TITL C-3623284-6838-1501 0.000142294188700197 125000 -1214.24392948161 0 0 197 (C1) n - 1
REM
REM in /home/nfs/bkarasulu/CARBON/AIRSS/Generating-Clusters/LCBOP/Higher-Symm/SD-CG/FIRE-CG
REM
REM
REM
REM
REM
REM ./C.cell (b20cbc046b6831c77cfcea5457e17084)
REM AIRSS Version 0.9.1 bugfix July 2018 build 013d7b7c2542+ Fri, 06 Jul 2018 19:26:36 +0100
REM compiler GCC version 9.2.1 20190827 (Red Hat 9.2.1-1)
REM options -cpp -mtune=generic -march=x86-64 -g -O0 -fpre-include=/usr/include/finclude/math-vector-fortran.h
REM seed 2127434811 1879638700 -1125580419 -1401245551 -2013493104 624682909 513211027 -801227679 1946190721 -1421257577 -1849426053 -1804496832 -2076446305 2147137320 549546210 1540106082 1336499737 560105021 60406528 -186139819 -1029982873 1288530334 1890716111 -694109263 76995691 -1805124247 -1348072698 1200036348 677540033 1823970936 -1412871097 959452861 2144833294
REM
CELL 1.54180   50.00000   50.00000   50.00000   90.00000   90.00000   90.00000
LATT -1
SFAC C  
C      1  0.4871960000000  0.4470500000000  0.4782260000000 1.0
C      1  0.5182410000000  0.3995680000000  0.5384680000000 1.0
C      1  0.5359670000000  0.3937400000000  0.4822540000000 1.0
C      1  0.5815680000000  0.3941960000000  0.5035040000000 1.0
C      1  0.5449950000000  0.5501120000000  0.4445770000000 1.0
C      1  0.3866030000000  0.5337790000000  0.4609480000000 1.0
C      1  0.5997850000000  0.5067320000000  0.5628500000000 1.0
C      1  0.4652670000000  0.5469470000000  0.4171170000000 1.0
C      1  0.5889890000000  0.4664900000000  0.4291260000000 1.0
C      1  0.3937430000000  0.4888450000000  0.5142910000000 1.0
C      1  0.4418130000000  0.4497470000000  0.5858760000000 1.0
C      1  0.4497120000000  0.4524590000000  0.4456790000000 1.0
C      1  0.4842980000000  0.6565400000000  0.5464220000000 1.0
C      1  0.5346400000000  0.5166560000000  0.4984160000000 1.0
C      1  0.4710620000000  0.6105750000000  0.3988590000000 1.0
C      1  0.4229940000000  0.4564330000000  0.4359120000000 1.0
C      1  0.5005290000000  0.4211870000000  0.4260550000000 1.0
C      1  0.5161120000000  0.5837170000000  0.5390160000000 1.0
C      1  0.4144420000000  0.4969040000000  0.4052940000000 1.0
C      1  0.5511510000000  0.5047000000000  0.4599280000000 1.0
C      1  0.5007470000000  0.5524710000000  0.3869470000000 1.0
C      1  0.4326690000000  0.6178230000000  0.5271840000000 1.0
C      1  0.4798160000000  0.6319600000000  0.4763690000000 1.0
C      1  0.4504420000000  0.5286060000000  0.4805730000000 1.0
C      1  0.6165520000000  0.5382090000000  0.5294430000000 1.0
C      1  0.5088590000000  0.5577290000000  0.5359310000000 1.0
C      1  0.4875360000000  0.6310220000000  0.5051760000000 1.0
C      1  0.5489190000000  0.5510250000000  0.6040030000000 1.0
C      1  0.4602310000000  0.4052990000000  0.5443840000000 1.0
C      1  0.5767110000000  0.5929540000000  0.4608120000000 1.0
C      1  0.4190550000000  0.6105640000000  0.5052620000000 1.0
C      1  0.5603020000000  0.3810720000000  0.4894430000000 1.0
C      1  0.4749170000000  0.4050870000000  0.4651490000000 1.0
C      1  0.5928460000000  0.5700010000000  0.4538440000000 1.0
C      1  0.4143550000000  0.5455920000000  0.4270370000000 1.0
C      1  0.5428710000000  0.5254190000000  0.5420230000000 1.0
C      1  0.4989350000000  0.4013900000000  0.4489390000000 1.0
C      1  0.5669510000000  0.5507340000000  0.5803040000000 1.0
C      1  0.4393290000000  0.4667520000000  0.6079510000000 1.0
C      1  0.4481880000000  0.5709400000000  0.5375790000000 1.0
C      1  0.6072480000000  0.5631870000000  0.5312600000000 1.0
C      1  0.4687920000000  0.5068830000000  0.6053220000000 1.0
C      1  0.5066320000000  0.5438710000000  0.6285800000000 1.0
C      1  0.5110620000000  0.4914480000000  0.4187070000000 1.0
C      1  0.5527110000000  0.5592510000000  0.4984390000000 1.0
C      1  0.5394390000000  0.4918610000000  0.3715350000000 1.0
C      1  0.5227310000000  0.3875400000000  0.4568980000000 1.0
C      1  0.5008160000000  0.4435750000000  0.5942780000000 1.0
C      1  0.6056330000000  0.4895680000000  0.4397950000000 1.0
C      1  0.4747870000000  0.4732140000000  0.4776020000000 1.0
C      1  0.5379160000000  0.5601210000000  0.4724120000000 1.0
C      1  0.4352960000000  0.3965770000000  0.4306650000000 1.0
C      1  0.5037700000000  0.6047850000000  0.4340000000000 1.0
C      1  0.3862830000000  0.4648330000000  0.5012040000000 1.0
C      1  0.4708990000000  0.4598520000000  0.3741900000000 1.0
C      1  0.4767960000000  0.6351490000000  0.5311620000000 1.0
C      1  0.5458280000000  0.3925830000000  0.5367350000000 1.0
C      1  0.4236690000000  0.4073750000000  0.6030370000000 1.0
C      1  0.5990720000000  0.4981150000000  0.4664050000000 1.0
C      1  0.4762070000000  0.4363920000000  0.3855550000000 1.0
C      1  0.4320210000000  0.5255140000000  0.5369040000000 1.0
C      1  0.5089180000000  0.6116760000000  0.5039910000000 1.0
C      1  0.4516200000000  0.4783910000000  0.5447240000000 1.0
C      1  0.5222030000000  0.4677070000000  0.4083900000000 1.0
C      1  0.4993220000000  0.4940080000000  0.5603070000000 1.0
C      1  0.6099620000000  0.5116170000000  0.5355790000000 1.0
C      1  0.5210630000000  0.5112900000000  0.3674010000000 1.0
C      1  0.5569490000000  0.6032580000000  0.4430850000000 1.0
C      1  0.5502640000000  0.4702730000000  0.5511480000000 1.0
C      1  0.4442240000000  0.4646730000000  0.5205050000000 1.0
C      1  0.4395180000000  0.6430960000000  0.3722130000000 1.0
C      1  0.4552000000000  0.6269720000000  0.3853940000000 1.0
C      1  0.4871110000000  0.5929790000000  0.4137520000000 1.0
C      1  0.4851110000000  0.5650820000000  0.4072380000000 1.0
C      1  0.5989210000000  0.4366240000000  0.4717070000000 1.0
C      1  0.4309910000000  0.4077510000000  0.4812920000000 1.0
C      1  0.4740550000000  0.5296340000000  0.5879510000000 1.0
C      1  0.4067740000000  0.5541850000000  0.4539230000000 1.0
C      1  0.5534860000000  0.4688120000000  0.5793200000000 1.0
C      1  0.5462130000000  0.4334990000000  0.4618500000000 1.0
C      1  0.4296560000000  0.5086430000000  0.4832440000000 1.0
C      1  0.5328400000000  0.4929270000000  0.5121900000000 1.0
C      1  0.5069510000000  0.4506400000000  0.5457280000000 1.0
C      1  0.4569080000000  0.5537490000000  0.5865090000000 1.0
C      1  0.5013460000000  0.5172660000000  0.4615560000000 1.0
C      1  0.5070840000000  0.4830200000000  0.5131050000000 1.0
C      1  0.4009650000000  0.4610940000000  0.4543360000000 1.0
C      1  0.5016910000000  0.5669720000000  0.5871880000000 1.0
C      1  0.4195160000000  0.4322820000000  0.4910070000000 1.0
C      1  0.5159520000000  0.4179940000000  0.5903960000000 1.0
C      1  0.5390060000000  0.4892870000000  0.5915250000000 1.0
C      1  0.5056120000000  0.4296930000000  0.4947130000000 1.0
C      1  0.4150340000000  0.5935310000000  0.4849710000000 1.0
C      1  0.5893410000000  0.4077180000000  0.5534640000000 1.0
C      1  0.4855980000000  0.4437440000000  0.5666850000000 1.0
C      1  0.5104780000000  0.5148200000000  0.6305980000000 1.0
C      1  0.5821650000000  0.5351280000000  0.6371670000000 1.0
C      1  0.4737770000000  0.5773160000000  0.5783790000000 1.0
C      1  0.4577700000000  0.6160570000000  0.5408790000000 1.0
C      1  0.4047490000000  0.5189730000000  0.4198260000000 1.0
C      1  0.5454210000000  0.4786380000000  0.4519860000000 1.0
C      1  0.4572380000000  0.4762060000000  0.4988320000000 1.0
C      1  0.5614340000000  0.4474060000000  0.5941460000000 1.0
C      1  0.5693200000000  0.5707110000000  0.5596780000000 1.0
C      1  0.4624660000000  0.5901110000000  0.5539760000000 1.0
C      1  0.3850250000000  0.4843030000000  0.4487250000000 1.0
C      1  0.3523280000000  0.5525990000000  0.5236620000000 1.0
C      1  0.4279110000000  0.4416360000000  0.5166710000000 1.0
C      1  0.6051340000000  0.4815210000000  0.5756940000000 1.0
C      1  0.4959910000000  0.5041450000000  0.4377310000000 1.0
C      1  0.4680810000000  0.4331050000000  0.4595820000000 1.0
C      1  0.4425060000000  0.4948190000000  0.6079700000000 1.0
C      1  0.4347040000000  0.4126830000000  0.5554520000000 1.0
C      1  0.4907720000000  0.5455290000000  0.5183960000000 1.0
C      1  0.4189750000000  0.5088120000000  0.6010340000000 1.0
C      1  0.4555570000000  0.4032380000000  0.4142560000000 1.0
C      1  0.5839380000000  0.5272610000000  0.5757410000000 1.0
C      1  0.5323500000000  0.6057320000000  0.4321870000000 1.0
C      1  0.6052110000000  0.4540950000000  0.5766810000000 1.0
C      1  0.5777630000000  0.4478570000000  0.5124920000000 1.0
C      1  0.5741100000000  0.3963310000000  0.5320410000000 1.0
C      1  0.5664480000000  0.4233900000000  0.4437890000000 1.0
C      1  0.4137840000000  0.5272850000000  0.5805210000000 1.0
C      1  0.5463950000000  0.4956380000000  0.5378990000000 1.0
C      1  0.5323900000000  0.4539790000000  0.4495380000000 1.0
C      1  0.5499350000000  0.4390600000000  0.5135370000000 1.0
C      1  0.4936460000000  0.6113700000000  0.4598840000000 1.0
C      1  0.5175020000000  0.4454890000000  0.4260940000000 1.0
C      1  0.5617460000000  0.3990790000000  0.4305400000000 1.0
C      1  0.5000440000000  0.5387770000000  0.5756780000000 1.0
C      1  0.3995960000000  0.4497590000000  0.4804300000000 1.0
C      1  0.6134340000000  0.4906270000000  0.5162400000000 1.0
C      1  0.5686990000000  0.4820870000000  0.4100840000000 1.0
C      1  0.5775150000000  0.5169400000000  0.4655790000000 1.0
C      1  0.4583080000000  0.3998570000000  0.4899480000000 1.0
C      1  0.4977030000000  0.4664270000000  0.6122740000000 1.0
C      1  0.6023230000000  0.4840100000000  0.4901490000000 1.0
C      1  0.5909890000000  0.4576720000000  0.4890800000000 1.0
C      1  0.4243020000000  0.3980330000000  0.4552810000000 1.0
C      1  0.5414350000000  0.3819410000000  0.4360800000000 1.0
C      1  0.5389220000000  0.5125940000000  0.6337640000000 1.0
C      1  0.5576560000000  0.5325650000000  0.6252630000000 1.0
C      1  0.4792530000000  0.5311500000000  0.4749830000000 1.0
C      1  0.4100270000000  0.5181680000000  0.5534980000000 1.0
C      1  0.5204970000000  0.5610030000000  0.6088550000000 1.0
C      1  0.4703010000000  0.4019970000000  0.5167750000000 1.0
C      1  0.4988050000000  0.5256050000000  0.3775250000000 1.0
C      1  0.5761610000000  0.5988460000000  0.4887810000000 1.0
C      1  0.5987830000000  0.4473440000000  0.5321600000000 1.0
C      1  0.5687350000000  0.5803170000000  0.5088840000000 1.0
C      1  0.3936800000000  0.4980150000000  0.5414190000000 1.0
C      1  0.6148150000000  0.5732740000000  0.4378040000000 1.0
C      1  0.5893050000000  0.4407140000000  0.4440430000000 1.0
C      1  0.4748600000000  0.5111100000000  0.3857710000000 1.0
C      1  0.4373190000000  0.5517320000000  0.4932550000000 1.0
C      1  0.4782950000000  0.4189330000000  0.4073830000000 1.0
C      1  0.4679380000000  0.4999850000000  0.4333870000000 1.0
C      1  0.3663340000000  0.5397050000000  0.5052400000000 1.0
C      1  0.6017270000000  0.5116680000000  0.4210050000000 1.0
C      1  0.4773620000000  0.5220940000000  0.5281490000000 1.0
C      1  0.4329480000000  0.4226880000000  0.5824500000000 1.0
C      1  0.5110000000000  0.5686260000000  0.4787180000000 1.0
C      1  0.4919060000000  0.5512810000000  0.4908750000000 1.0
C      1  0.4982850000000  0.4767560000000  0.5383330000000 1.0
C      1  0.5984150000000  0.4342720000000  0.5569730000000 1.0
C      1  0.5458510000000  0.4750530000000  0.3937550000000 1.0
C      1  0.5072040000000  0.5960180000000  0.4805760000000 1.0
C      1  0.6200700000000  0.4655590000000  0.5280510000000 1.0
C      1  0.4920150000000  0.4949220000000  0.6189580000000 1.0
C      1  0.5733980000000  0.5124050000000  0.4134860000000 1.0
C      1  0.4549150000000  0.5078900000000  0.5389650000000 1.0
C      1  0.5077780000000  0.4032580000000  0.5657180000000 1.0
C      1  0.4288980000000  0.5512020000000  0.5843020000000 1.0
C      1  0.5358640000000  0.4244830000000  0.4885410000000 1.0
C      1  0.5162490000000  0.4980670000000  0.5805960000000 1.0
C      1  0.3844100000000  0.5275530000000  0.4880570000000 1.0
C      1  0.5817290000000  0.5751150000000  0.5340640000000 1.0
C      1  0.4202350000000  0.5674230000000  0.4758370000000 1.0
C      1  0.4687480000000  0.4863850000000  0.3741130000000 1.0
C      1  0.5471310000000  0.5366150000000  0.5142290000000 1.0
C      1  0.4181340000000  0.4260180000000  0.5375820000000 1.0
C      1  0.4203880000000  0.4711630000000  0.4114720000000 1.0
C      1  0.5984260000000  0.4108180000000  0.4861570000000 1.0
C      1  0.4990540000000  0.4092540000000  0.5160130000000 1.0
C      1  0.4630590000000  0.5187110000000  0.4114740000000 1.0
C      1  0.4621970000000  0.4784080000000  0.4512530000000 1.0
C      1  0.4037490000000  0.5082060000000  0.4959250000000 1.0
C      1  0.5560840000000  0.5341120000000  0.4241300000000 1.0
C      1  0.4363620000000  0.5504180000000  0.5224000000000 1.0
C      1  0.3398180000000  0.5651470000000  0.5427830000000 1.0
C      1  0.3869210000000  0.5117690000000  0.4420390000000 1.0
C      1  0.4809150000000  0.4137700000000  0.5618060000000 1.0
C      1  0.5862110000000  0.5441440000000  0.4639560000000 1.0
C      1  0.5356050000000  0.4483120000000  0.5380540000000 1.0
C      1  0.4599410000000  0.4598460000000  0.5658470000000 1.0
C      1  0.5197520000000  0.5381360000000  0.5541760000000 1.0
C      1  0.5278400000000  0.5161180000000  0.4717440000000 1.0
END
