TITL C-3623289-7120-811 -0.000124795695059229 125000 -647.113680635675 0 0 107 (C1) n - 1
REM
REM in /home/nfs/bkarasulu/CARBON/AIRSS/Generating-Clusters/LCBOP/Higher-Symm/SD-CG/FIRE-CG
REM
REM
REM
REM
REM
REM ./C.cell (b20cbc046b6831c77cfcea5457e17084)
REM AIRSS Version 0.9.1 bugfix July 2018 build 013d7b7c2542+ Fri, 06 Jul 2018 19:26:36 +0100
REM compiler GCC version 9.2.1 20190827 (Red Hat 9.2.1-1)
REM options -cpp -mtune=generic -march=x86-64 -g -O0 -fpre-include=/usr/include/finclude/math-vector-fortran.h
REM seed -734643067 -96716317 -1609109473 -1727270551 1919923924 -64533183 -1997561663 -1665869738 464478052 -993660382 -1288490795 853870586 1230171250 -1848059800 -1441554323 -1689890808 -1246440415 -287560597 -833818341 2053556833 32215756 -588502840 -1319900458 364974013 -1220681880 12746576 149428011 208063378 1939704873 -1895988133 1007360752 93814220 -772268184
REM
CELL 1.54180   50.00000   50.00000   50.00000   90.00000   90.00000   90.00000
LATT -1
SFAC C  
C      1  0.5106010000000  0.5499810000000  0.5066950000000 1.0
C      1  0.4465130000000  0.4052710000000  0.5309300000000 1.0
C      1  0.5695900000000  0.5371380000000  0.5228980000000 1.0
C      1  0.4050550000000  0.5043840000000  0.4667890000000 1.0
C      1  0.5557140000000  0.5639580000000  0.5274160000000 1.0
C      1  0.4137700000000  0.5047270000000  0.4409040000000 1.0
C      1  0.5323940000000  0.4426180000000  0.4357150000000 1.0
C      1  0.4603220000000  0.3987030000000  0.5536690000000 1.0
C      1  0.5098130000000  0.4471180000000  0.5662360000000 1.0
C      1  0.4490690000000  0.6555500000000  0.5507880000000 1.0
C      1  0.5416080000000  0.4393830000000  0.6028210000000 1.0
C      1  0.4779780000000  0.4795070000000  0.5093420000000 1.0
C      1  0.5519780000000  0.4328010000000  0.4934030000000 1.0
C      1  0.5094330000000  0.6090470000000  0.5076370000000 1.0
C      1  0.4865250000000  0.5067590000000  0.4209290000000 1.0
C      1  0.4493610000000  0.5347730000000  0.4515590000000 1.0
C      1  0.4467530000000  0.4316690000000  0.5164520000000 1.0
C      1  0.4825880000000  0.4502270000000  0.4332100000000 1.0
C      1  0.6035260000000  0.5011630000000  0.5198130000000 1.0
C      1  0.5402660000000  0.4587460000000  0.4131210000000 1.0
C      1  0.5325440000000  0.5679750000000  0.5112850000000 1.0
C      1  0.4229380000000  0.5116010000000  0.4876640000000 1.0
C      1  0.4958290000000  0.5790830000000  0.5499750000000 1.0
C      1  0.5730060000000  0.4876320000000  0.4776740000000 1.0
C      1  0.4216460000000  0.6198690000000  0.5209520000000 1.0
C      1  0.4174530000000  0.4717730000000  0.5214270000000 1.0
C      1  0.5780660000000  0.4430820000000  0.4490390000000 1.0
C      1  0.3982720000000  0.6086720000000  0.5297060000000 1.0
C      1  0.5966950000000  0.4765800000000  0.5309920000000 1.0
C      1  0.5516880000000  0.5156790000000  0.5649090000000 1.0
C      1  0.5813620000000  0.4637520000000  0.4658260000000 1.0
C      1  0.4326310000000  0.6123570000000  0.4963230000000 1.0
C      1  0.4831420000000  0.4383520000000  0.5755190000000 1.0
C      1  0.5373340000000  0.3897290000000  0.4806300000000 1.0
C      1  0.5922350000000  0.5335340000000  0.4804260000000 1.0
C      1  0.5132280000000  0.6023200000000  0.4811420000000 1.0
C      1  0.5793010000000  0.5566900000000  0.4702430000000 1.0
C      1  0.4604300000000  0.4542210000000  0.5655160000000 1.0
C      1  0.5294320000000  0.5648850000000  0.4509110000000 1.0
C      1  0.5128950000000  0.4056550000000  0.5212010000000 1.0
C      1  0.4569460000000  0.4972690000000  0.5184430000000 1.0
C      1  0.4733730000000  0.5822660000000  0.5092280000000 1.0
C      1  0.4556170000000  0.5950550000000  0.4918140000000 1.0
C      1  0.5861630000000  0.5100660000000  0.4662250000000 1.0
C      1  0.5290470000000  0.4844760000000  0.4095380000000 1.0
C      1  0.4175570000000  0.4704860000000  0.5503260000000 1.0
C      1  0.4807210000000  0.4575060000000  0.4902360000000 1.0
C      1  0.4383130000000  0.4575530000000  0.4557070000000 1.0
C      1  0.4634140000000  0.5148660000000  0.5402260000000 1.0
C      1  0.4684500000000  0.3895810000000  0.4610980000000 1.0
C      1  0.4399880000000  0.6085630000000  0.4504620000000 1.0
C      1  0.5740280000000  0.5253710000000  0.5504020000000 1.0
C      1  0.4836880000000  0.4471890000000  0.4047970000000 1.0
C      1  0.5203120000000  0.5239370000000  0.5119840000000 1.0
C      1  0.5482590000000  0.5208220000000  0.5056710000000 1.0
C      1  0.4992760000000  0.4798180000000  0.5285180000000 1.0
C      1  0.5547220000000  0.5734380000000  0.5543490000000 1.0
C      1  0.4295640000000  0.4747590000000  0.5981430000000 1.0
C      1  0.5562830000000  0.4933620000000  0.5008870000000 1.0
C      1  0.5540830000000  0.4278380000000  0.4479900000000 1.0
C      1  0.4632210000000  0.5383800000000  0.4964350000000 1.0
C      1  0.4229950000000  0.4479010000000  0.5055710000000 1.0
C      1  0.5367080000000  0.4981220000000  0.5485800000000 1.0
C      1  0.4684720000000  0.4105270000000  0.4766030000000 1.0
C      1  0.4605690000000  0.4673460000000  0.4409980000000 1.0
C      1  0.4584710000000  0.4489480000000  0.5377770000000 1.0
C      1  0.4658520000000  0.4328180000000  0.4932890000000 1.0
C      1  0.5374970000000  0.4451710000000  0.5756890000000 1.0
C      1  0.5564280000000  0.5658520000000  0.4592960000000 1.0
C      1  0.4733560000000  0.5488480000000  0.4439120000000 1.0
C      1  0.4603440000000  0.5923190000000  0.4626690000000 1.0
C      1  0.4405370000000  0.5125980000000  0.4355460000000 1.0
C      1  0.5082430000000  0.4545440000000  0.5388100000000 1.0
C      1  0.4231000000000  0.4504380000000  0.4769200000000 1.0
C      1  0.5720010000000  0.4376960000000  0.5127550000000 1.0
C      1  0.5070540000000  0.4477550000000  0.4489150000000 1.0
C      1  0.5422960000000  0.5354640000000  0.5828850000000 1.0
C      1  0.5064010000000  0.4528270000000  0.4772900000000 1.0
C      1  0.5447570000000  0.4339660000000  0.6281160000000 1.0
C      1  0.4299060000000  0.4950700000000  0.5098730000000 1.0
C      1  0.4938630000000  0.5325220000000  0.4315230000000 1.0
C      1  0.5142920000000  0.4340020000000  0.5205640000000 1.0
C      1  0.4921110000000  0.5954310000000  0.5265830000000 1.0
C      1  0.5219950000000  0.3875410000000  0.5030470000000 1.0
C      1  0.4929130000000  0.5524320000000  0.5560680000000 1.0
C      1  0.5198960000000  0.5429890000000  0.4352740000000 1.0
C      1  0.5103990000000  0.5071970000000  0.5362570000000 1.0
C      1  0.5085480000000  0.5825830000000  0.4605680000000 1.0
C      1  0.5491720000000  0.4824560000000  0.5267600000000 1.0
C      1  0.5258920000000  0.4436560000000  0.4963510000000 1.0
C      1  0.5949560000000  0.5275510000000  0.5087080000000 1.0
C      1  0.4349650000000  0.6388360000000  0.5366130000000 1.0
C      1  0.5023810000000  0.4910740000000  0.4030870000000 1.0
C      1  0.5507400000000  0.4130870000000  0.4721670000000 1.0
C      1  0.5794200000000  0.4529600000000  0.5360250000000 1.0
C      1  0.4239210000000  0.6201190000000  0.4698090000000 1.0
C      1  0.4829490000000  0.5560690000000  0.5035030000000 1.0
C      1  0.4356070000000  0.4668420000000  0.5727820000000 1.0
C      1  0.5463930000000  0.5619000000000  0.5775080000000 1.0
C      1  0.4891300000000  0.4693910000000  0.3898100000000 1.0
C      1  0.4889040000000  0.5249150000000  0.5485730000000 1.0
C      1  0.4808570000000  0.5753250000000  0.4534110000000 1.0
C      1  0.4617820000000  0.4944020000000  0.4305430000000 1.0
C      1  0.4429970000000  0.5308730000000  0.4792490000000 1.0
C      1  0.5613610000000  0.4489560000000  0.5589550000000 1.0
C      1  0.5572550000000  0.4486640000000  0.3941150000000 1.0
C      1  0.4763050000000  0.4104470000000  0.5724860000000 1.0
END
