TITL C-3623287-7182-385 -5.25194285006765e-07 125000 -487.556562996738 0 0 81 (C1) n - 1
REM
REM in /home/nfs/bkarasulu/CARBON/AIRSS/Generating-Clusters/LCBOP/Higher-Symm/SD-CG/FIRE-CG
REM
REM
REM
REM
REM
REM ./C.cell (b20cbc046b6831c77cfcea5457e17084)
REM AIRSS Version 0.9.1 bugfix July 2018 build 013d7b7c2542+ Fri, 06 Jul 2018 19:26:36 +0100
REM compiler GCC version 9.2.1 20190827 (Red Hat 9.2.1-1)
REM options -cpp -mtune=generic -march=x86-64 -g -O0 -fpre-include=/usr/include/finclude/math-vector-fortran.h
REM seed -459697361 544213183 1568757969 1155912635 -718606428 1060045661 1799896767 1594161465 412114118 -945376621 829786209 -36154694 -2113108768 1717979184 636065821 1668141030 -1022056051 1488621624 868460160 72732588 -230238272 867377728 -117928451 1668031283 -1305803348 -786362277 849738205 -732293985 -1047953027 800410545 413438175 774826072 49206691
REM
CELL 1.54180   50.00000   50.00000   50.00000   90.00000   90.00000   90.00000
LATT -1
SFAC C  
C      1  0.5712200000000  0.4504170000000  0.4803780000000 1.0
C      1  0.5071070000000  0.4121690000000  0.4767860000000 1.0
C      1  0.4372460000000  0.4395240000000  0.4800560000000 1.0
C      1  0.4147810000000  0.5127500000000  0.4808960000000 1.0
C      1  0.4559780000000  0.5771090000000  0.4754420000000 1.0
C      1  0.5318480000000  0.5842620000000  0.4742570000000 1.0
C      1  0.5819450000000  0.5262100000000  0.4807930000000 1.0
C      1  0.5238980000000  0.4928330000000  0.4772060000000 1.0
C      1  0.5142480000000  0.4693080000000  0.4906410000000 1.0
C      1  0.4860520000000  0.4690580000000  0.4907770000000 1.0
C      1  0.4756690000000  0.4923980000000  0.4774520000000 1.0
C      1  0.4753530000000  0.5150680000000  0.4944120000000 1.0
C      1  0.5006470000000  0.5515250000000  0.4830060000000 1.0
C      1  0.5236600000000  0.5155150000000  0.4941190000000 1.0
C      1  0.4897090000000  0.5315400000000  0.4309820000000 1.0
C      1  0.5182230000000  0.5271930000000  0.4312260000000 1.0
C      1  0.5329990000000  0.5024930000000  0.4315680000000 1.0
C      1  0.5229480000000  0.4755150000000  0.4310720000000 1.0
C      1  0.4954890000000  0.4668010000000  0.4308550000000 1.0
C      1  0.4714860000000  0.4826940000000  0.4313370000000 1.0
C      1  0.4690510000000  0.5114400000000  0.4317110000000 1.0
C      1  0.5939350000000  0.5244900000000  0.5067930000000 1.0
C      1  0.5765570000000  0.4389670000000  0.5060590000000 1.0
C      1  0.5025230000000  0.4022840000000  0.5027780000000 1.0
C      1  0.4268540000000  0.4346700000000  0.5062440000000 1.0
C      1  0.4045600000000  0.5188240000000  0.5069950000000 1.0
C      1  0.4552110000000  0.5856210000000  0.5026670000000 1.0
C      1  0.5397190000000  0.5885670000000  0.5015010000000 1.0
C      1  0.4436260000000  0.5206340000000  0.4412530000000 1.0
C      1  0.4813150000000  0.5585650000000  0.4371450000000 1.0
C      1  0.5338610000000  0.5499880000000  0.4387230000000 1.0
C      1  0.5599130000000  0.5047510000000  0.4418450000000 1.0
C      1  0.5418370000000  0.4557920000000  0.4403050000000 1.0
C      1  0.4914710000000  0.4396180000000  0.4390400000000 1.0
C      1  0.4480940000000  0.4688270000000  0.4413660000000 1.0
C      1  0.4589070000000  0.4234470000000  0.4709350000000 1.0
C      1  0.4162990000000  0.4850950000000  0.4738350000000 1.0
C      1  0.4356130000000  0.5580550000000  0.4691760000000 1.0
C      1  0.5050780000000  0.5912640000000  0.4645800000000 1.0
C      1  0.5690520000000  0.5501940000000  0.4720270000000 1.0
C      1  0.5816590000000  0.4761960000000  0.4742230000000 1.0
C      1  0.5336640000000  0.4189670000000  0.4697530000000 1.0
C      1  0.5727680000000  0.4387360000000  0.5331140000000 1.0
C      1  0.5010710000000  0.4101950000000  0.5284180000000 1.0
C      1  0.4292280000000  0.4362580000000  0.5334020000000 1.0
C      1  0.4070350000000  0.5167760000000  0.5341960000000 1.0
C      1  0.4560420000000  0.5759200000000  0.5280560000000 1.0
C      1  0.5410240000000  0.5772160000000  0.5262080000000 1.0
C      1  0.5919740000000  0.5200710000000  0.5337460000000 1.0
C      1  0.5283060000000  0.4661030000000  0.5147450000000 1.0
C      1  0.4724000000000  0.4654550000000  0.5150180000000 1.0
C      1  0.4525490000000  0.4856460000000  0.5205530000000 1.0
C      1  0.4562170000000  0.5131490000000  0.5142990000000 1.0
C      1  0.4983860000000  0.5614530000000  0.5068760000000 1.0
C      1  0.5429820000000  0.5143010000000  0.5138400000000 1.0
C      1  0.5475070000000  0.4870140000000  0.5202110000000 1.0
C      1  0.4989350000000  0.5551690000000  0.5353900000000 1.0
C      1  0.5463980000000  0.5300900000000  0.5382550000000 1.0
C      1  0.5603310000000  0.4838460000000  0.5464610000000 1.0
C      1  0.5260920000000  0.4499370000000  0.5390390000000 1.0
C      1  0.4752630000000  0.4493110000000  0.5392390000000 1.0
C      1  0.4398920000000  0.4819150000000  0.5468160000000 1.0
C      1  0.4523640000000  0.5285450000000  0.5389090000000 1.0
C      1  0.5465360000000  0.5632790000000  0.4603240000000 1.0
C      1  0.5767320000000  0.5024980000000  0.4648340000000 1.0
C      1  0.5507580000000  0.4402390000000  0.4624960000000 1.0
C      1  0.4854590000000  0.4227740000000  0.4610740000000 1.0
C      1  0.4318720000000  0.4633960000000  0.4643770000000 1.0
C      1  0.4291710000000  0.5311480000000  0.4634200000000 1.0
C      1  0.4793690000000  0.5791310000000  0.4573720000000 1.0
C      1  0.5545850000000  0.4542290000000  0.5497680000000 1.0
C      1  0.5008270000000  0.4356250000000  0.5411010000000 1.0
C      1  0.4466860000000  0.4525510000000  0.5500560000000 1.0
C      1  0.4303390000000  0.5106800000000  0.5509600000000 1.0
C      1  0.4688560000000  0.5530480000000  0.5407660000000 1.0
C      1  0.5292720000000  0.5541750000000  0.5397960000000 1.0
C      1  0.5689230000000  0.5129720000000  0.5504800000000 1.0
C      1  0.5001490000000  0.4958960000000  0.5874550000000 1.0
C      1  0.4998040000000  0.5084150000000  0.5363310000000 1.0
C      1  0.4995620000000  0.5168000000000  0.5090540000000 1.0
C      1  0.4999990000000  0.5018280000000  0.5620780000000 1.0
END
