TITL C-3623284-6838-427 -9.6487854726728e-07 125000 -620.6283872561 0 0 102 (C1) n - 1
REM
REM in /home/nfs/bkarasulu/CARBON/AIRSS/Generating-Clusters/LCBOP/Higher-Symm/SD-CG/FIRE-CG
REM
REM
REM
REM
REM
REM ./C.cell (b20cbc046b6831c77cfcea5457e17084)
REM AIRSS Version 0.9.1 bugfix July 2018 build 013d7b7c2542+ Fri, 06 Jul 2018 19:26:36 +0100
REM compiler GCC version 9.2.1 20190827 (Red Hat 9.2.1-1)
REM options -cpp -mtune=generic -march=x86-64 -g -O0 -fpre-include=/usr/include/finclude/math-vector-fortran.h
REM seed 579748422 340699858 890742547 1342930280 1880384239 596808298 -1091896348 1338329666 -1409335460 -1450700678 -1105465642 378637694 60047406 1225230468 1454758290 -521919496 1239902678 646534755 -1428047611 -270387066 -1195371551 1851557394 -595895770 1531411831 -567423640 992068494 241298532 -331817809 -203010218 -76960753 1346765757 -1425439769 149492172
REM
CELL 1.54180   50.00000   50.00000   50.00000   90.00000   90.00000   90.00000
LATT -1
SFAC C  
C      1  0.5426210000000  0.4906970000000  0.4461100000000 1.0
C      1  0.4973900000000  0.5974580000000  0.5227530000000 1.0
C      1  0.4345190000000  0.4536890000000  0.4670250000000 1.0
C      1  0.5172960000000  0.5575310000000  0.4768810000000 1.0
C      1  0.4116960000000  0.4978990000000  0.4834480000000 1.0
C      1  0.4542930000000  0.4508700000000  0.5193630000000 1.0
C      1  0.5110820000000  0.4768950000000  0.4996040000000 1.0
C      1  0.4892760000000  0.4751010000000  0.6023440000000 1.0
C      1  0.5396510000000  0.5300740000000  0.5890830000000 1.0
C      1  0.5191970000000  0.5733320000000  0.4306670000000 1.0
C      1  0.4963840000000  0.5688980000000  0.4147440000000 1.0
C      1  0.5280900000000  0.4511450000000  0.4052370000000 1.0
C      1  0.5524330000000  0.4078030000000  0.5041690000000 1.0
C      1  0.5046820000000  0.5163550000000  0.4611540000000 1.0
C      1  0.4525950000000  0.5500470000000  0.5113110000000 1.0
C      1  0.4623820000000  0.4780850000000  0.4298030000000 1.0
C      1  0.5347630000000  0.4908960000000  0.5040360000000 1.0
C      1  0.4218530000000  0.4708600000000  0.4878700000000 1.0
C      1  0.5821850000000  0.5145900000000  0.5378090000000 1.0
C      1  0.5698930000000  0.4979260000000  0.4448230000000 1.0
C      1  0.4880710000000  0.4027060000000  0.4904550000000 1.0
C      1  0.5296960000000  0.5280520000000  0.4202140000000 1.0
C      1  0.4776950000000  0.5369240000000  0.5025890000000 1.0
C      1  0.5531090000000  0.4459220000000  0.4481300000000 1.0
C      1  0.5073950000000  0.4319120000000  0.5540290000000 1.0
C      1  0.5117980000000  0.5883890000000  0.5441710000000 1.0
C      1  0.5081170000000  0.5235020000000  0.4014890000000 1.0
C      1  0.4969660000000  0.4783980000000  0.5440280000000 1.0
C      1  0.5571370000000  0.4736940000000  0.5047120000000 1.0
C      1  0.5387500000000  0.5322970000000  0.5301580000000 1.0
C      1  0.4405870000000  0.4644730000000  0.4415620000000 1.0
C      1  0.4551730000000  0.5067470000000  0.5814210000000 1.0
C      1  0.4619800000000  0.4345310000000  0.5419500000000 1.0
C      1  0.5801280000000  0.5144540000000  0.4657060000000 1.0
C      1  0.5645740000000  0.5386620000000  0.4676940000000 1.0
C      1  0.4175590000000  0.4809510000000  0.5358320000000 1.0
C      1  0.5464910000000  0.4571680000000  0.5560530000000 1.0
C      1  0.4248320000000  0.5454200000000  0.5750200000000 1.0
C      1  0.4450870000000  0.4835480000000  0.5905100000000 1.0
C      1  0.4869990000000  0.5425490000000  0.4088850000000 1.0
C      1  0.5199130000000  0.5654670000000  0.5588920000000 1.0
C      1  0.4523700000000  0.5770420000000  0.5528110000000 1.0
C      1  0.5790200000000  0.4709340000000  0.4866000000000 1.0
C      1  0.4940630000000  0.5241810000000  0.5516270000000 1.0
C      1  0.4654450000000  0.4083900000000  0.4734810000000 1.0
C      1  0.4729810000000  0.5914330000000  0.5091110000000 1.0
C      1  0.5251280000000  0.5115750000000  0.4428390000000 1.0
C      1  0.5402190000000  0.5389830000000  0.4840620000000 1.0
C      1  0.5159270000000  0.5408380000000  0.5444700000000 1.0
C      1  0.5754380000000  0.4510290000000  0.4657700000000 1.0
C      1  0.4657320000000  0.4979260000000  0.4859250000000 1.0
C      1  0.5907610000000  0.4981930000000  0.4871740000000 1.0
C      1  0.5025130000000  0.4100620000000  0.5137680000000 1.0
C      1  0.4917630000000  0.5409420000000  0.4740400000000 1.0
C      1  0.5365150000000  0.5197250000000  0.5050080000000 1.0
C      1  0.4643770000000  0.5878840000000  0.4810580000000 1.0
C      1  0.4680200000000  0.4488330000000  0.5674280000000 1.0
C      1  0.5717830000000  0.3943350000000  0.4930560000000 1.0
C      1  0.5738770000000  0.4964750000000  0.5579440000000 1.0
C      1  0.5476180000000  0.4390210000000  0.4205620000000 1.0
C      1  0.4954350000000  0.4564950000000  0.5608280000000 1.0
C      1  0.4654470000000  0.5412980000000  0.4557340000000 1.0
C      1  0.4944530000000  0.4612650000000  0.4833800000000 1.0
C      1  0.4823530000000  0.5210480000000  0.5797640000000 1.0
C      1  0.5496810000000  0.4840120000000  0.5677690000000 1.0
C      1  0.4727120000000  0.5488880000000  0.5872700000000 1.0
C      1  0.4512560000000  0.5152450000000  0.4684950000000 1.0
C      1  0.4879680000000  0.5026190000000  0.5342920000000 1.0
C      1  0.4112810000000  0.5255790000000  0.5630600000000 1.0
C      1  0.5625270000000  0.5586120000000  0.4468830000000 1.0
C      1  0.5313410000000  0.5023060000000  0.5844150000000 1.0
C      1  0.5309850000000  0.4180120000000  0.5185930000000 1.0
C      1  0.5323210000000  0.4653480000000  0.4531450000000 1.0
C      1  0.4494650000000  0.5651850000000  0.4688370000000 1.0
C      1  0.4547470000000  0.4346720000000  0.4762070000000 1.0
C      1  0.4450870000000  0.3725970000000  0.4388140000000 1.0
C      1  0.4564960000000  0.5742570000000  0.5254680000000 1.0
C      1  0.4708240000000  0.4497490000000  0.4950290000000 1.0
C      1  0.5238830000000  0.5797290000000  0.4591640000000 1.0
C      1  0.4298640000000  0.4656940000000  0.5156320000000 1.0
C      1  0.4588180000000  0.5051520000000  0.4219620000000 1.0
C      1  0.4491750000000  0.5599760000000  0.5748850000000 1.0
C      1  0.5760920000000  0.5631100000000  0.5405720000000 1.0
C      1  0.5658810000000  0.5380700000000  0.5372380000000 1.0
C      1  0.5335310000000  0.5562440000000  0.5827490000000 1.0
C      1  0.5412900000000  0.5535480000000  0.4259010000000 1.0
C      1  0.4871280000000  0.4181470000000  0.5371360000000 1.0
C      1  0.5025800000000  0.4989640000000  0.5919930000000 1.0
C      1  0.4255270000000  0.5228100000000  0.4799060000000 1.0
C      1  0.5531890000000  0.5842910000000  0.4587190000000 1.0
C      1  0.4328590000000  0.5497120000000  0.4894700000000 1.0
C      1  0.5063640000000  0.4700760000000  0.4073270000000 1.0
C      1  0.5957930000000  0.5080150000000  0.5135790000000 1.0
C      1  0.4891340000000  0.4673270000000  0.4310830000000 1.0
C      1  0.5054370000000  0.4958260000000  0.3943360000000 1.0
C      1  0.4776030000000  0.5089540000000  0.5093130000000 1.0
C      1  0.4672900000000  0.5320770000000  0.4266740000000 1.0
C      1  0.5335890000000  0.4345860000000  0.5431580000000 1.0
C      1  0.4551090000000  0.3896470000000  0.4557840000000 1.0
C      1  0.5036130000000  0.4614110000000  0.4557780000000 1.0
C      1  0.4097250000000  0.5027300000000  0.5492110000000 1.0
C      1  0.4642570000000  0.4629980000000  0.5919820000000 1.0
END
