TITL C-3623282-6910-622 -1.47727834119429e-06 125000 -1087.89825118417 0 0 176 (C1) n - 1
REM
REM in /home/nfs/bkarasulu/CARBON/AIRSS/Generating-Clusters/LCBOP/Higher-Symm/SD-CG/FIRE-CG
REM
REM
REM
REM
REM
REM ./C.cell (b20cbc046b6831c77cfcea5457e17084)
REM AIRSS Version 0.9.1 bugfix July 2018 build 013d7b7c2542+ Fri, 06 Jul 2018 19:26:36 +0100
REM compiler GCC version 9.2.1 20190827 (Red Hat 9.2.1-1)
REM options -cpp -mtune=generic -march=x86-64 -g -O0 -fpre-include=/usr/include/finclude/math-vector-fortran.h
REM seed 2126084601 796001229 431081055 -1286568501 -1426509088 -2078192320 1411429807 876396061 -1728685831 921635635 -630957626 -910542639 786794702 -1023108041 1426267398 -779074756 1741404271 -1684938913 1311394752 -1402470783 -2067311702 -536526648 699954513 1241637136 -281374957 -1685719976 1175003054 940795761 1098994688 -433308899 106712160 1951308464 -1533937954
REM
CELL 1.54180   50.00000   50.00000   50.00000   90.00000   90.00000   90.00000
LATT -1
SFAC C  
C      1  0.4951210000000  0.5935000000000  0.4828880000000 1.0
C      1  0.6025520000000  0.4860540000000  0.5683360000000 1.0
C      1  0.5085050000000  0.5236780000000  0.5065670000000 1.0
C      1  0.5136190000000  0.4204530000000  0.5220040000000 1.0
C      1  0.5678740000000  0.6184350000000  0.4673260000000 1.0
C      1  0.3900350000000  0.5356360000000  0.4877760000000 1.0
C      1  0.5154100000000  0.4510270000000  0.4858240000000 1.0
C      1  0.4141050000000  0.5541260000000  0.5573090000000 1.0
C      1  0.4867750000000  0.4832620000000  0.5811520000000 1.0
C      1  0.4779130000000  0.4807090000000  0.4772720000000 1.0
C      1  0.5730410000000  0.5420970000000  0.4048510000000 1.0
C      1  0.4979410000000  0.6402430000000  0.4863290000000 1.0
C      1  0.4908990000000  0.3746220000000  0.5069170000000 1.0
C      1  0.5157880000000  0.4271560000000  0.5996440000000 1.0
C      1  0.5649090000000  0.4905630000000  0.4092790000000 1.0
C      1  0.4505770000000  0.4123040000000  0.4341120000000 1.0
C      1  0.3938180000000  0.5370160000000  0.5160720000000 1.0
C      1  0.4901840000000  0.4968550000000  0.4109950000000 1.0
C      1  0.4743530000000  0.4923490000000  0.5047240000000 1.0
C      1  0.5136350000000  0.5752650000000  0.5233900000000 1.0
C      1  0.4342660000000  0.4860790000000  0.5977600000000 1.0
C      1  0.5739710000000  0.5145960000000  0.3984370000000 1.0
C      1  0.4493800000000  0.4819380000000  0.3986140000000 1.0
C      1  0.3807600000000  0.4878560000000  0.5196040000000 1.0
C      1  0.4762670000000  0.4797610000000  0.5551060000000 1.0
C      1  0.4577130000000  0.5486040000000  0.5748590000000 1.0
C      1  0.4751710000000  0.5609710000000  0.4115540000000 1.0
C      1  0.4092260000000  0.4575610000000  0.4648940000000 1.0
C      1  0.5083740000000  0.5510660000000  0.5932740000000 1.0
C      1  0.4789210000000  0.3835460000000  0.5308580000000 1.0
C      1  0.4399070000000  0.5932030000000  0.5600700000000 1.0
C      1  0.5299290000000  0.5101120000000  0.4958190000000 1.0
C      1  0.5539060000000  0.5443180000000  0.4777260000000 1.0
C      1  0.4477480000000  0.5050680000000  0.6115540000000 1.0
C      1  0.4602350000000  0.5728590000000  0.4346810000000 1.0
C      1  0.5989400000000  0.5399330000000  0.4504870000000 1.0
C      1  0.6079270000000  0.4728210000000  0.4605170000000 1.0
C      1  0.4851770000000  0.4772350000000  0.5273430000000 1.0
C      1  0.5509900000000  0.4031310000000  0.5424620000000 1.0
C      1  0.4490370000000  0.4513140000000  0.5260800000000 1.0
C      1  0.5146110000000  0.5698930000000  0.5719440000000 1.0
C      1  0.4203070000000  0.5252720000000  0.4492420000000 1.0
C      1  0.5427120000000  0.4455010000000  0.4838880000000 1.0
C      1  0.5422580000000  0.5311220000000  0.4563090000000 1.0
C      1  0.3972650000000  0.4544170000000  0.4152270000000 1.0
C      1  0.5585620000000  0.5613990000000  0.4990300000000 1.0
C      1  0.5026590000000  0.5694550000000  0.4021720000000 1.0
C      1  0.4674470000000  0.4989590000000  0.4551930000000 1.0
C      1  0.5662770000000  0.4119450000000  0.5192230000000 1.0
C      1  0.5568990000000  0.3984240000000  0.4951070000000 1.0
C      1  0.6141140000000  0.4984910000000  0.4699490000000 1.0
C      1  0.5996180000000  0.4533210000000  0.5307980000000 1.0
C      1  0.4018940000000  0.4791780000000  0.5613210000000 1.0
C      1  0.4961340000000  0.5340930000000  0.4464300000000 1.0
C      1  0.5812970000000  0.5291520000000  0.5764810000000 1.0
C      1  0.3948470000000  0.4760070000000  0.3973600000000 1.0
C      1  0.3993630000000  0.5014060000000  0.4087110000000 1.0
C      1  0.4812700000000  0.5408020000000  0.4693170000000 1.0
C      1  0.5114790000000  0.4475900000000  0.4083510000000 1.0
C      1  0.4784090000000  0.5439090000000  0.5960920000000 1.0
C      1  0.3949980000000  0.5082740000000  0.5589160000000 1.0
C      1  0.4110150000000  0.5569930000000  0.5278300000000 1.0
C      1  0.5305960000000  0.5070510000000  0.5979220000000 1.0
C      1  0.3748110000000  0.5110070000000  0.4493630000000 1.0
C      1  0.5889190000000  0.5624920000000  0.5059250000000 1.0
C      1  0.4406800000000  0.5082390000000  0.4605410000000 1.0
C      1  0.5061480000000  0.4733030000000  0.4715730000000 1.0
C      1  0.5549590000000  0.5039630000000  0.5060730000000 1.0
C      1  0.5961810000000  0.5383690000000  0.5513870000000 1.0
C      1  0.5333620000000  0.5354960000000  0.5998150000000 1.0
C      1  0.4625910000000  0.4562120000000  0.4737640000000 1.0
C      1  0.5968910000000  0.5823660000000  0.4837700000000 1.0
C      1  0.6053730000000  0.4888420000000  0.5385370000000 1.0
C      1  0.5791670000000  0.4387380000000  0.5160580000000 1.0
C      1  0.4773260000000  0.4502430000000  0.5195230000000 1.0
C      1  0.4641900000000  0.5360080000000  0.4005940000000 1.0
C      1  0.4278340000000  0.4341330000000  0.5203420000000 1.0
C      1  0.5420060000000  0.5741970000000  0.5191660000000 1.0
C      1  0.6246720000000  0.4512280000000  0.4661110000000 1.0
C      1  0.4366470000000  0.5669570000000  0.5696370000000 1.0
C      1  0.4019820000000  0.4429740000000  0.5268450000000 1.0
C      1  0.5246150000000  0.5742160000000  0.4457910000000 1.0
C      1  0.5426170000000  0.5031890000000  0.4504470000000 1.0
C      1  0.4882990000000  0.5388330000000  0.5443540000000 1.0
C      1  0.5658140000000  0.4546970000000  0.4965310000000 1.0
C      1  0.3986680000000  0.5140160000000  0.4335320000000 1.0
C      1  0.5240460000000  0.6443560000000  0.4810930000000 1.0
C      1  0.4540250000000  0.6138430000000  0.4936520000000 1.0
C      1  0.5325010000000  0.5731660000000  0.4020790000000 1.0
C      1  0.5483780000000  0.6353690000000  0.4743530000000 1.0
C      1  0.5358930000000  0.4777510000000  0.5504660000000 1.0
C      1  0.5612140000000  0.5428100000000  0.5933130000000 1.0
C      1  0.4361640000000  0.4072340000000  0.5141990000000 1.0
C      1  0.3839880000000  0.4885120000000  0.4918240000000 1.0
C      1  0.4461770000000  0.4377980000000  0.5773660000000 1.0
C      1  0.4978940000000  0.3910920000000  0.5525700000000 1.0
C      1  0.4642800000000  0.4301280000000  0.4725360000000 1.0
C      1  0.5013220000000  0.5645830000000  0.5472570000000 1.0
C      1  0.6099400000000  0.4420920000000  0.5549410000000 1.0
C      1  0.4812880000000  0.6175660000000  0.4876750000000 1.0
C      1  0.5601480000000  0.4920090000000  0.5511330000000 1.0
C      1  0.5806220000000  0.4505310000000  0.4236400000000 1.0
C      1  0.6110530000000  0.4598430000000  0.5759010000000 1.0
C      1  0.4480290000000  0.5035790000000  0.5089270000000 1.0
C      1  0.5648860000000  0.4905660000000  0.4389220000000 1.0
C      1  0.5222910000000  0.4031020000000  0.5425050000000 1.0
C      1  0.5346870000000  0.3898240000000  0.4788610000000 1.0
C      1  0.6027460000000  0.5337710000000  0.5023330000000 1.0
C      1  0.5168430000000  0.4906600000000  0.4518670000000 1.0
C      1  0.5116240000000  0.4075920000000  0.4378150000000 1.0
C      1  0.4670050000000  0.5241350000000  0.6136940000000 1.0
C      1  0.5336940000000  0.3951330000000  0.4505960000000 1.0
C      1  0.5121410000000  0.3772060000000  0.4906450000000 1.0
C      1  0.4031120000000  0.4485520000000  0.4405810000000 1.0
C      1  0.5587960000000  0.5128280000000  0.5323680000000 1.0
C      1  0.4782430000000  0.4665490000000  0.6017320000000 1.0
C      1  0.5497860000000  0.5367770000000  0.5434140000000 1.0
C      1  0.5417900000000  0.5786450000000  0.5676380000000 1.0
C      1  0.5528160000000  0.5568460000000  0.3904890000000 1.0
C      1  0.4935250000000  0.5448820000000  0.4938950000000 1.0
C      1  0.4483260000000  0.4090100000000  0.4629610000000 1.0
C      1  0.4441790000000  0.6223140000000  0.5189590000000 1.0
C      1  0.5844730000000  0.4694500000000  0.4453210000000 1.0
C      1  0.4355430000000  0.3981550000000  0.4865060000000 1.0
C      1  0.6063480000000  0.5251890000000  0.4743800000000 1.0
C      1  0.6387250000000  0.4302550000000  0.4725740000000 1.0
C      1  0.5352650000000  0.4449720000000  0.5899060000000 1.0
C      1  0.4889480000000  0.4206620000000  0.5940810000000 1.0
C      1  0.3854610000000  0.5136020000000  0.5318500000000 1.0
C      1  0.4815280000000  0.4037990000000  0.5726030000000 1.0
C      1  0.4408240000000  0.5874420000000  0.4863670000000 1.0
C      1  0.5809130000000  0.5937520000000  0.4618280000000 1.0
C      1  0.4471530000000  0.4800610000000  0.5501970000000 1.0
C      1  0.5334730000000  0.4527750000000  0.5626260000000 1.0
C      1  0.5163880000000  0.4994740000000  0.5521540000000 1.0
C      1  0.5049820000000  0.5188490000000  0.5343280000000 1.0
C      1  0.4534700000000  0.3975310000000  0.5351710000000 1.0
C      1  0.4934950000000  0.5055830000000  0.4389690000000 1.0
C      1  0.5551370000000  0.4905480000000  0.5983900000000 1.0
C      1  0.4298000000000  0.4702130000000  0.5720480000000 1.0
C      1  0.4679480000000  0.4299200000000  0.4187690000000 1.0
C      1  0.3884400000000  0.4726550000000  0.3710900000000 1.0
C      1  0.4096220000000  0.5442170000000  0.4686520000000 1.0
C      1  0.4683070000000  0.4407470000000  0.5970900000000 1.0
C      1  0.4976140000000  0.4252970000000  0.4209510000000 1.0
C      1  0.4979660000000  0.5720950000000  0.5006530000000 1.0
C      1  0.5563930000000  0.5664070000000  0.5446640000000 1.0
C      1  0.5762090000000  0.4982910000000  0.5767010000000 1.0
C      1  0.5838950000000  0.5536380000000  0.4299600000000 1.0
C      1  0.5511240000000  0.4630170000000  0.6051070000000 1.0
C      1  0.3758210000000  0.5121750000000  0.4777710000000 1.0
C      1  0.4643720000000  0.4574180000000  0.4062830000000 1.0
C      1  0.5377570000000  0.4499490000000  0.3992930000000 1.0
C      1  0.4616460000000  0.5311080000000  0.5516040000000 1.0
C      1  0.4925670000000  0.4686650000000  0.4058610000000 1.0
C      1  0.4266360000000  0.5783160000000  0.5139740000000 1.0
C      1  0.5444050000000  0.5826160000000  0.4275590000000 1.0
C      1  0.5096880000000  0.4990990000000  0.5806330000000 1.0
C      1  0.4311130000000  0.4974570000000  0.4863500000000 1.0
C      1  0.6050480000000  0.5181000000000  0.5293030000000 1.0
C      1  0.4027710000000  0.5321200000000  0.5712340000000 1.0
C      1  0.5716970000000  0.5791200000000  0.4378750000000 1.0
C      1  0.4652550000000  0.5073840000000  0.3997630000000 1.0
C      1  0.5693550000000  0.4823130000000  0.4965630000000 1.0
C      1  0.5865160000000  0.5635700000000  0.5381060000000 1.0
C      1  0.3909580000000  0.4667910000000  0.5368630000000 1.0
C      1  0.4998560000000  0.4385930000000  0.5066900000000 1.0
C      1  0.5550920000000  0.3874790000000  0.4351600000000 1.0
C      1  0.4340310000000  0.6002990000000  0.5334250000000 1.0
C      1  0.4475980000000  0.5782530000000  0.4589870000000 1.0
C      1  0.5628160000000  0.4617470000000  0.4034460000000 1.0
C      1  0.4545590000000  0.4124830000000  0.5615530000000 1.0
C      1  0.5210570000000  0.5462740000000  0.4455700000000 1.0
C      1  0.5089180000000  0.5919360000000  0.4591480000000 1.0
C      1  0.4093490000000  0.4788760000000  0.4830040000000 1.0
C      1  0.4455330000000  0.5089150000000  0.5378840000000 1.0
END
