TITL C-3623287-7182-168 -1.15223494943985e-06 125000 -1207.84019475463 0 0 196 (C1) n - 1
REM
REM in /home/nfs/bkarasulu/CARBON/AIRSS/Generating-Clusters/LCBOP/Higher-Symm/SD-CG/FIRE-CG
REM
REM
REM
REM
REM
REM ./C.cell (b20cbc046b6831c77cfcea5457e17084)
REM AIRSS Version 0.9.1 bugfix July 2018 build 013d7b7c2542+ Fri, 06 Jul 2018 19:26:36 +0100
REM compiler GCC version 9.2.1 20190827 (Red Hat 9.2.1-1)
REM options -cpp -mtune=generic -march=x86-64 -g -O0 -fpre-include=/usr/include/finclude/math-vector-fortran.h
REM seed -1949889906 -1147601963 36970636 -1298874891 635625769 913252918 2062664758 329524746 -1610584746 1935381275 933990571 -145175189 -89331983 416769136 -1257552537 -553570198 1333426954 2131609400 -626825121 852467066 1696176812 70202628 -109119902 1475543115 330641129 311135660 2070323470 69804564 -1874497599 -1028743414 1789391493 -490100216 -270948425
REM
CELL 1.54180   50.00000   50.00000   50.00000   90.00000   90.00000   90.00000
LATT -1
SFAC C  
C      1  0.5828220000000  0.4997140000000  0.4684630000000 1.0
C      1  0.4630760000000  0.5786980000000  0.5005710000000 1.0
C      1  0.5009700000000  0.4702030000000  0.5836940000000 1.0
C      1  0.5828220000000  0.4974670000000  0.5310480000000 1.0
C      1  0.4182540000000  0.4999120000000  0.4630660000000 1.0
C      1  0.4161730000000  0.4989990000000  0.5341880000000 1.0
C      1  0.4657870000000  0.4183620000000  0.4990460000000 1.0
C      1  0.5302300000000  0.4162750000000  0.4989460000000 1.0
C      1  0.5300460000000  0.5793330000000  0.5004820000000 1.0
C      1  0.5032770000000  0.5352020000000  0.4184490000000 1.0
C      1  0.4988700000000  0.5335630000000  0.5797500000000 1.0
C      1  0.5010890000000  0.4704320000000  0.4168140000000 1.0
C      1  0.4209810000000  0.4068630000000  0.4640690000000 1.0
C      1  0.4658560000000  0.4285460000000  0.4026340000000 1.0
C      1  0.4007040000000  0.4703050000000  0.4227890000000 1.0
C      1  0.4207460000000  0.5950810000000  0.5319880000000 1.0
C      1  0.5729290000000  0.5966590000000  0.4683940000000 1.0
C      1  0.5747120000000  0.4030230000000  0.5327680000000 1.0
C      1  0.4652050000000  0.5766800000000  0.5952050000000 1.0
C      1  0.5331440000000  0.5771940000000  0.4026780000000 1.0
C      1  0.5342870000000  0.4266480000000  0.5951900000000 1.0
C      1  0.4017120000000  0.5325780000000  0.5749540000000 1.0
C      1  0.5957430000000  0.5352550000000  0.4234870000000 1.0
C      1  0.5979030000000  0.4668630000000  0.5744100000000 1.0
C      1  0.5933430000000  0.4209380000000  0.5251900000000 1.0
C      1  0.5245600000000  0.5932450000000  0.4225620000000 1.0
C      1  0.4208770000000  0.5260320000000  0.5927690000000 1.0
C      1  0.5910980000000  0.5781100000000  0.4751760000000 1.0
C      1  0.4035100000000  0.5758270000000  0.5243470000000 1.0
C      1  0.4024590000000  0.4249900000000  0.4716160000000 1.0
C      1  0.5256460000000  0.4082290000000  0.5774450000000 1.0
C      1  0.4725520000000  0.4096960000000  0.4206030000000 1.0
C      1  0.4718670000000  0.5943350000000  0.5760930000000 1.0
C      1  0.4207160000000  0.4782190000000  0.4065510000000 1.0
C      1  0.5794460000000  0.4761090000000  0.5917070000000 1.0
C      1  0.5784620000000  0.5282340000000  0.4040430000000 1.0
C      1  0.5142820000000  0.4403630000000  0.4500330000000 1.0
C      1  0.4533090000000  0.5312430000000  0.4535980000000 1.0
C      1  0.4305180000000  0.4463950000000  0.5110300000000 1.0
C      1  0.5192870000000  0.5578310000000  0.5449980000000 1.0
C      1  0.4756300000000  0.5518300000000  0.4514280000000 1.0
C      1  0.4839110000000  0.4370280000000  0.5550310000000 1.0
C      1  0.4510420000000  0.4833370000000  0.5617750000000 1.0
C      1  0.5571070000000  0.4895190000000  0.4310930000000 1.0
C      1  0.5524030000000  0.5250010000000  0.5525450000000 1.0
C      1  0.4404680000000  0.5422860000000  0.4804190000000 1.0
C      1  0.5463880000000  0.5468610000000  0.5317820000000 1.0
C      1  0.5643020000000  0.4440230000000  0.4829820000000 1.0
C      1  0.5107980000000  0.5127490000000  0.5976050000000 1.0
C      1  0.5992240000000  0.5093580000000  0.5094750000000 1.0
C      1  0.5128500000000  0.5985410000000  0.5148030000000 1.0
C      1  0.5111370000000  0.4925060000000  0.3999640000000 1.0
C      1  0.4901330000000  0.4925020000000  0.5996320000000 1.0
C      1  0.4911490000000  0.5131660000000  0.4026860000000 1.0
C      1  0.5999820000000  0.4886190000000  0.4895470000000 1.0
C      1  0.3978650000000  0.4846560000000  0.5159570000000 1.0
C      1  0.3995720000000  0.5143050000000  0.4813390000000 1.0
C      1  0.5074240000000  0.4009210000000  0.4885170000000 1.0
C      1  0.4879100000000  0.4013650000000  0.5099180000000 1.0
C      1  0.4807310000000  0.5959040000000  0.4843840000000 1.0
C      1  0.3915500000000  0.5325010000000  0.5006290000000 1.0
C      1  0.5004950000000  0.3937410000000  0.5352200000000 1.0
C      1  0.5359210000000  0.5041210000000  0.3899680000000 1.0
C      1  0.3889070000000  0.4674380000000  0.4962280000000 1.0
C      1  0.6080520000000  0.4633000000000  0.5012060000000 1.0
C      1  0.6047050000000  0.5352560000000  0.4979820000000 1.0
C      1  0.4991940000000  0.6036400000000  0.4654990000000 1.0
C      1  0.4941480000000  0.6070060000000  0.5329980000000 1.0
C      1  0.4949550000000  0.3942420000000  0.4631700000000 1.0
C      1  0.5367770000000  0.5010540000000  0.6042220000000 1.0
C      1  0.4647220000000  0.5024690000000  0.3968070000000 1.0
C      1  0.4645630000000  0.5038530000000  0.6070270000000 1.0
C      1  0.4113480000000  0.4665020000000  0.6010270000000 1.0
C      1  0.5952010000000  0.4032680000000  0.4640590000000 1.0
C      1  0.4657910000000  0.5999860000000  0.4164170000000 1.0
C      1  0.4198840000000  0.5354220000000  0.3970040000000 1.0
C      1  0.5904010000000  0.5338750000000  0.5961730000000 1.0
C      1  0.5955570000000  0.4630200000000  0.4040080000000 1.0
C      1  0.5990680000000  0.5840380000000  0.5310840000000 1.0
C      1  0.3967140000000  0.5812720000000  0.4654060000000 1.0
C      1  0.4023570000000  0.4074510000000  0.5381080000000 1.0
C      1  0.4659620000000  0.4048570000000  0.5952610000000 1.0
C      1  0.5325520000000  0.4040500000000  0.4089710000000 1.0
C      1  0.5340500000000  0.5991650000000  0.5848220000000 1.0
C      1  0.3832290000000  0.5646860000000  0.4493550000000 1.0
C      1  0.4560100000000  0.3893020000000  0.5759160000000 1.0
C      1  0.5760120000000  0.4538410000000  0.3881980000000 1.0
C      1  0.3869530000000  0.4260880000000  0.5495300000000 1.0
C      1  0.6116830000000  0.4226930000000  0.4558620000000 1.0
C      1  0.6164220000000  0.5674700000000  0.5427790000000 1.0
C      1  0.4505090000000  0.6127010000000  0.4342220000000 1.0
C      1  0.5469710000000  0.6141990000000  0.5668710000000 1.0
C      1  0.5410990000000  0.3854990000000  0.4261730000000 1.0
C      1  0.5715750000000  0.5464940000000  0.6103290000000 1.0
C      1  0.4372420000000  0.5488430000000  0.3818120000000 1.0
C      1  0.4298560000000  0.4576240000000  0.6181180000000 1.0
C      1  0.5513650000000  0.4436010000000  0.3888740000000 1.0
C      1  0.3890070000000  0.5445160000000  0.4327900000000 1.0
C      1  0.4444250000000  0.3888170000000  0.5518580000000 1.0
C      1  0.5485200000000  0.5598420000000  0.6085950000000 1.0
C      1  0.4590820000000  0.5638820000000  0.3853120000000 1.0
C      1  0.4536200000000  0.4453980000000  0.6184210000000 1.0
C      1  0.3883610000000  0.4496190000000  0.5620510000000 1.0
C      1  0.6131680000000  0.4474200000000  0.4458380000000 1.0
C      1  0.6167870000000  0.5450360000000  0.5573440000000 1.0
C      1  0.4350070000000  0.6084870000000  0.4555310000000 1.0
C      1  0.5615720000000  0.6111350000000  0.5446800000000 1.0
C      1  0.5536940000000  0.3829880000000  0.4496040000000 1.0
C      1  0.5534290000000  0.5722060000000  0.5169530000000 1.0
C      1  0.5152950000000  0.5559170000000  0.5729090000000 1.0
C      1  0.5787580000000  0.5151430000000  0.5529990000000 1.0
C      1  0.5540080000000  0.4180590000000  0.4839300000000 1.0
C      1  0.4419160000000  0.4210380000000  0.5142410000000 1.0
C      1  0.4401600000000  0.5700930000000  0.4853310000000 1.0
C      1  0.5160160000000  0.4474490000000  0.4229650000000 1.0
C      1  0.4859490000000  0.4463770000000  0.5813280000000 1.0
C      1  0.4854050000000  0.5561590000000  0.4253900000000 1.0
C      1  0.5816400000000  0.4859440000000  0.4438940000000 1.0
C      1  0.4235090000000  0.4835140000000  0.5572230000000 1.0
C      1  0.4285400000000  0.5181850000000  0.4425830000000 1.0
C      1  0.5316570000000  0.5048930000000  0.5535750000000 1.0
C      1  0.5499830000000  0.5248530000000  0.5030640000000 1.0
C      1  0.4968470000000  0.5541380000000  0.5281730000000 1.0
C      1  0.5351670000000  0.5032990000000  0.4405160000000 1.0
C      1  0.4735400000000  0.4982390000000  0.5546480000000 1.0
C      1  0.4754850000000  0.5021270000000  0.4497160000000 1.0
C      1  0.5564500000000  0.4667350000000  0.4966910000000 1.0
C      1  0.4394640000000  0.4683010000000  0.4964470000000 1.0
C      1  0.4428690000000  0.5241940000000  0.5016490000000 1.0
C      1  0.4990660000000  0.4462150000000  0.4727220000000 1.0
C      1  0.4969490000000  0.4436950000000  0.5315120000000 1.0
C      1  0.4940640000000  0.5502180000000  0.4742420000000 1.0
C      1  0.4577700000000  0.5532750000000  0.6061220000000 1.0
C      1  0.6083630000000  0.4580840000000  0.5511870000000 1.0
C      1  0.5489780000000  0.6064450000000  0.4612080000000 1.0
C      1  0.4587350000000  0.4527460000000  0.3932700000000 1.0
C      1  0.5417460000000  0.4505170000000  0.6054030000000 1.0
C      1  0.5409640000000  0.5544050000000  0.3905120000000 1.0
C      1  0.6051240000000  0.5416580000000  0.4479140000000 1.0
C      1  0.3905440000000  0.5386730000000  0.5511200000000 1.0
C      1  0.3887830000000  0.4627560000000  0.4458070000000 1.0
C      1  0.5507940000000  0.3929200000000  0.5400230000000 1.0
C      1  0.4447260000000  0.3961380000000  0.4569820000000 1.0
C      1  0.4441010000000  0.6064960000000  0.5391440000000 1.0
C      1  0.5531750000000  0.4767490000000  0.6027220000000 1.0
C      1  0.6023960000000  0.5520880000000  0.4744120000000 1.0
C      1  0.4706340000000  0.6049220000000  0.5497340000000 1.0
C      1  0.5524810000000  0.5282070000000  0.3921990000000 1.0
C      1  0.4470470000000  0.5268880000000  0.6040770000000 1.0
C      1  0.4475590000000  0.4788200000000  0.3969420000000 1.0
C      1  0.6055850000000  0.4466820000000  0.5250750000000 1.0
C      1  0.3909200000000  0.4512090000000  0.4719490000000 1.0
C      1  0.3930070000000  0.5492790000000  0.5245690000000 1.0
C      1  0.4713560000000  0.3977320000000  0.4463980000000 1.0
C      1  0.5247640000000  0.3960110000000  0.5516070000000 1.0
C      1  0.5233070000000  0.6029290000000  0.4493500000000 1.0
C      1  0.5597670000000  0.5265420000000  0.4762680000000 1.0
C      1  0.4691300000000  0.5623770000000  0.5255770000000 1.0
C      1  0.5279140000000  0.4766410000000  0.5616650000000 1.0
C      1  0.5635780000000  0.4731390000000  0.5249810000000 1.0
C      1  0.4340450000000  0.4744580000000  0.4686310000000 1.0
C      1  0.4340560000000  0.5232520000000  0.5290490000000 1.0
C      1  0.4708180000000  0.4384440000000  0.4745060000000 1.0
C      1  0.5251020000000  0.4381770000000  0.5263840000000 1.0
C      1  0.5217910000000  0.5604720000000  0.4774570000000 1.0
C      1  0.5279090000000  0.5310840000000  0.4359760000000 1.0
C      1  0.4747330000000  0.5265660000000  0.5616680000000 1.0
C      1  0.4742690000000  0.4761800000000  0.4386330000000 1.0
C      1  0.5304060000000  0.5719330000000  0.5908610000000 1.0
C      1  0.5976740000000  0.5284350000000  0.5695350000000 1.0
C      1  0.5719210000000  0.5905230000000  0.5285380000000 1.0
C      1  0.5316670000000  0.4319000000000  0.4050450000000 1.0
C      1  0.4709460000000  0.4320780000000  0.6008840000000 1.0
C      1  0.4727350000000  0.5742690000000  0.4075700000000 1.0
C      1  0.5995550000000  0.4674290000000  0.4316630000000 1.0
C      1  0.4058610000000  0.4682990000000  0.5735050000000 1.0
C      1  0.4116850000000  0.5307800000000  0.4233610000000 1.0
C      1  0.5676380000000  0.3986670000000  0.4681700000000 1.0
C      1  0.4297710000000  0.4032660000000  0.5328060000000 1.0
C      1  0.4233770000000  0.5880960000000  0.4709700000000 1.0
C      1  0.5314990000000  0.4809700000000  0.4887150000000 1.0
C      1  0.4896470000000  0.5232690000000  0.4891330000000 1.0
C      1  0.4926890000000  0.4892280000000  0.5360580000000 1.0
C      1  0.5340200000000  0.5034780000000  0.5076260000000 1.0
C      1  0.4651480000000  0.5078710000000  0.4980930000000 1.0
C      1  0.4635620000000  0.4801290000000  0.5039270000000 1.0
C      1  0.4880450000000  0.4679590000000  0.5160390000000 1.0
C      1  0.5071270000000  0.4643930000000  0.4928350000000 1.0
C      1  0.5002460000000  0.5296570000000  0.5156760000000 1.0
C      1  0.4968970000000  0.5055170000000  0.4667320000000 1.0
C      1  0.5142940000000  0.5074720000000  0.5286940000000 1.0
C      1  0.5225640000000  0.4944070000000  0.4636340000000 1.0
C      1  0.4550610000000  0.5411380000000  0.5430700000000 1.0
C      1  0.5404610000000  0.5441130000000  0.4604420000000 1.0
C      1  0.5419410000000  0.4589370000000  0.5412690000000 1.0
C      1  0.4566620000000  0.4589960000000  0.4554300000000 1.0
END
