TITL C-3623283-6828-1428 -2.73250773289593e-07 125000 -822.589680180772 0 0 131 (C1) n - 1
REM
REM in /home/nfs/bkarasulu/CARBON/AIRSS/Generating-Clusters/LCBOP/Higher-Symm/SD-CG/FIRE-CG
REM
REM
REM
REM
REM
REM ./C.cell (b20cbc046b6831c77cfcea5457e17084)
REM AIRSS Version 0.9.1 bugfix July 2018 build 013d7b7c2542+ Fri, 06 Jul 2018 19:26:36 +0100
REM compiler GCC version 9.2.1 20190827 (Red Hat 9.2.1-1)
REM options -cpp -mtune=generic -march=x86-64 -g -O0 -fpre-include=/usr/include/finclude/math-vector-fortran.h
REM seed 49321305 -2007755983 -822312242 -507403655 -1819403555 1861468318 -16151875 -613320151 1783702906 1142189015 -2082131171 1692688679 -2122562013 -1800635022 1337203324 -822783394 593280162 -224432975 963903712 -418670119 416840259 -1052409871 819483932 1588973957 168560213 -1377967874 1799749551 -1078023485 -1886197695 1356369995 718009267 -965226851 1671043070
REM
CELL 1.54180   50.00000   50.00000   50.00000   90.00000   90.00000   90.00000
LATT -1
SFAC C  
C      1  0.5221910000000  0.4846540000000  0.3782480000000 1.0
C      1  0.5178440000000  0.5215180000000  0.6222180000000 1.0
C      1  0.4782840000000  0.5168320000000  0.3786630000000 1.0
C      1  0.4832880000000  0.4767430000000  0.6213680000000 1.0
C      1  0.4821460000000  0.4169750000000  0.4969950000000 1.0
C      1  0.5926650000000  0.4844890000000  0.5053700000000 1.0
C      1  0.5081400000000  0.5894920000000  0.4921250000000 1.0
C      1  0.4215370000000  0.5303900000000  0.5072320000000 1.0
C      1  0.4332940000000  0.4484130000000  0.4371100000000 1.0
C      1  0.5528340000000  0.4312820000000  0.5637140000000 1.0
C      1  0.5720210000000  0.5530020000000  0.4337070000000 1.0
C      1  0.4506970000000  0.5630410000000  0.5634150000000 1.0
C      1  0.4981460000000  0.4008840000000  0.4803430000000 1.0
C      1  0.6053090000000  0.5023280000000  0.5231870000000 1.0
C      1  0.4854680000000  0.6008940000000  0.4798120000000 1.0
C      1  0.4032830000000  0.5130340000000  0.5206350000000 1.0
C      1  0.5804650000000  0.4648380000000  0.4051420000000 1.0
C      1  0.5369680000000  0.5807470000000  0.5953370000000 1.0
C      1  0.4188300000000  0.5367140000000  0.4000860000000 1.0
C      1  0.4589060000000  0.4201890000000  0.5945260000000 1.0
C      1  0.4790290000000  0.5455010000000  0.6060400000000 1.0
C      1  0.4543430000000  0.4772440000000  0.3952270000000 1.0
C      1  0.5220340000000  0.4524410000000  0.6033830000000 1.0
C      1  0.5470010000000  0.5246530000000  0.3942050000000 1.0
C      1  0.5046570000000  0.4766650000000  0.4823890000000 1.0
C      1  0.5286640000000  0.5039080000000  0.5137110000000 1.0
C      1  0.4886720000000  0.5207690000000  0.4868070000000 1.0
C      1  0.4702990000000  0.4873320000000  0.5158480000000 1.0
C      1  0.4393860000000  0.4698840000000  0.4186490000000 1.0
C      1  0.5305250000000  0.4364000000000  0.5812090000000 1.0
C      1  0.5651340000000  0.5322830000000  0.4150370000000 1.0
C      1  0.4725120000000  0.5585780000000  0.5814710000000 1.0
C      1  0.4263520000000  0.5673080000000  0.5774010000000 1.0
C      1  0.4333700000000  0.4232800000000  0.4240390000000 1.0
C      1  0.5775520000000  0.4319120000000  0.5775550000000 1.0
C      1  0.5681880000000  0.5788150000000  0.4226690000000 1.0
C      1  0.4746090000000  0.5395300000000  0.5272400000000 1.0
C      1  0.4551530000000  0.4716870000000  0.4728580000000 1.0
C      1  0.5336010000000  0.4573710000000  0.5279430000000 1.0
C      1  0.5499080000000  0.5308900000000  0.4705670000000 1.0
C      1  0.4326670000000  0.5288150000000  0.6065870000000 1.0
C      1  0.4731870000000  0.4316650000000  0.3962580000000 1.0
C      1  0.5671410000000  0.4729610000000  0.6020780000000 1.0
C      1  0.5252400000000  0.5695670000000  0.3997070000000 1.0
C      1  0.5708400000000  0.5488010000000  0.4617140000000 1.0
C      1  0.4518580000000  0.5548220000000  0.5363290000000 1.0
C      1  0.4363220000000  0.4515680000000  0.4654560000000 1.0
C      1  0.5514080000000  0.4364040000000  0.5357550000000 1.0
C      1  0.5394540000000  0.4736370000000  0.6116350000000 1.0
C      1  0.5252850000000  0.5423270000000  0.3880540000000 1.0
C      1  0.4605700000000  0.5257040000000  0.6156100000000 1.0
C      1  0.4748950000000  0.4592870000000  0.3863720000000 1.0
C      1  0.4338860000000  0.4378380000000  0.5533370000000 1.0
C      1  0.5638680000000  0.4456740000000  0.4499400000000 1.0
C      1  0.5533590000000  0.5654140000000  0.5489660000000 1.0
C      1  0.4375460000000  0.5544700000000  0.4443470000000 1.0
C      1  0.4202460000000  0.5532230000000  0.5998500000000 1.0
C      1  0.4496840000000  0.4177840000000  0.4030640000000 1.0
C      1  0.5824480000000  0.4499500000000  0.5971720000000 1.0
C      1  0.5480690000000  0.5847650000000  0.4055900000000 1.0
C      1  0.4874210000000  0.6065080000000  0.4524290000000 1.0
C      1  0.3970010000000  0.5164630000000  0.5476780000000 1.0
C      1  0.4915340000000  0.3956340000000  0.4537600000000 1.0
C      1  0.6088430000000  0.4958380000000  0.5500860000000 1.0
C      1  0.4420340000000  0.5158500000000  0.4937190000000 1.0
C      1  0.4857620000000  0.4426440000000  0.5077020000000 1.0
C      1  0.5661930000000  0.4853090000000  0.4959090000000 1.0
C      1  0.5142480000000  0.5631880000000  0.5000240000000 1.0
C      1  0.5098230000000  0.4547860000000  0.4149340000000 1.0
C      1  0.5428270000000  0.5084110000000  0.5820660000000 1.0
C      1  0.4906650000000  0.5437950000000  0.4172830000000 1.0
C      1  0.4541320000000  0.4924110000000  0.5857030000000 1.0
C      1  0.5257120000000  0.4016170000000  0.4856520000000 1.0
C      1  0.6008870000000  0.5295850000000  0.5182660000000 1.0
C      1  0.4603030000000  0.5935130000000  0.4904760000000 1.0
C      1  0.4027030000000  0.4857800000000  0.5121430000000 1.0
C      1  0.4707020000000  0.4890470000000  0.5629190000000 1.0
C      1  0.5125970000000  0.4723720000000  0.4369180000000 1.0
C      1  0.5248670000000  0.5125890000000  0.5602330000000 1.0
C      1  0.4895400000000  0.5255370000000  0.4388820000000 1.0
C      1  0.5027890000000  0.4680500000000  0.3895400000000 1.0
C      1  0.5305060000000  0.5012600000000  0.6080120000000 1.0
C      1  0.4978480000000  0.5321810000000  0.3912440000000 1.0
C      1  0.4680710000000  0.4976620000000  0.6110190000000 1.0
C      1  0.5420740000000  0.4440170000000  0.4677900000000 1.0
C      1  0.5556190000000  0.5437490000000  0.5309220000000 1.0
C      1  0.4552780000000  0.5522840000000  0.4660700000000 1.0
C      1  0.4365130000000  0.4593330000000  0.5355910000000 1.0
C      1  0.4343350000000  0.5561820000000  0.5128860000000 1.0
C      1  0.4202970000000  0.4463380000000  0.4887200000000 1.0
C      1  0.5594020000000  0.4231430000000  0.5119310000000 1.0
C      1  0.5806920000000  0.5589680000000  0.4867590000000 1.0
C      1  0.5445760000000  0.4798630000000  0.5143150000000 1.0
C      1  0.5290200000000  0.5458550000000  0.4829750000000 1.0
C      1  0.4683380000000  0.5164590000000  0.5085700000000 1.0
C      1  0.4777060000000  0.4675190000000  0.4927270000000 1.0
C      1  0.4183310000000  0.4620300000000  0.5129350000000 1.0
C      1  0.5441750000000  0.4227390000000  0.4876310000000 1.0
C      1  0.5785840000000  0.5458140000000  0.5124450000000 1.0
C      1  0.4477640000000  0.5681660000000  0.4895530000000 1.0
C      1  0.4422170000000  0.4234270000000  0.5740610000000 1.0
C      1  0.5778370000000  0.4520020000000  0.4282810000000 1.0
C      1  0.5481840000000  0.5787720000000  0.5713060000000 1.0
C      1  0.4227380000000  0.5499560000000  0.4228220000000 1.0
C      1  0.5588510000000  0.5042340000000  0.4754980000000 1.0
C      1  0.4989140000000  0.5531310000000  0.5217280000000 1.0
C      1  0.4430910000000  0.4975870000000  0.4724670000000 1.0
C      1  0.5066480000000  0.4486750000000  0.5261190000000 1.0
C      1  0.4303590000000  0.5184230000000  0.3844860000000 1.0
C      1  0.4787130000000  0.4302690000000  0.6091800000000 1.0
C      1  0.5692770000000  0.4818390000000  0.3879600000000 1.0
C      1  0.5210840000000  0.5690070000000  0.6132200000000 1.0
C      1  0.4953800000000  0.4523880000000  0.6133680000000 1.0
C      1  0.5465200000000  0.4978600000000  0.3843110000000 1.0
C      1  0.5053010000000  0.5461490000000  0.6166590000000 1.0
C      1  0.4539410000000  0.5033360000000  0.3838950000000 1.0
C      1  0.5357620000000  0.5218600000000  0.5347060000000 1.0
C      1  0.4786010000000  0.5344080000000  0.4638320000000 1.0
C      1  0.4586920000000  0.4777150000000  0.5395040000000 1.0
C      1  0.5200010000000  0.4628030000000  0.4629840000000 1.0
C      1  0.4962700000000  0.4291360000000  0.4140370000000 1.0
C      1  0.5691080000000  0.4958470000000  0.5840160000000 1.0
C      1  0.5016240000000  0.5706750000000  0.4167560000000 1.0
C      1  0.4289390000000  0.5066690000000  0.5876690000000 1.0
C      1  0.4070320000000  0.5074150000000  0.5706790000000 1.0
C      1  0.4977630000000  0.4069110000000  0.4304550000000 1.0
C      1  0.5932730000000  0.5000380000000  0.5712730000000 1.0
C      1  0.4925900000000  0.5933190000000  0.4298670000000 1.0
C      1  0.5015530000000  0.4993280000000  0.4358720000000 1.0
C      1  0.4976740000000  0.5010270000000  0.5618100000000 1.0
C      1  0.5103050000000  0.5031110000000  0.4918900000000 1.0
END
