TITL C-3623282-6910-1553 -3.01284648953871e-07 125000 -595.217763186443 0 0 96 (C1) n - 1
REM
REM in /home/nfs/bkarasulu/CARBON/AIRSS/Generating-Clusters/LCBOP/Higher-Symm/SD-CG/FIRE-CG
REM
REM
REM
REM
REM
REM ./C.cell (b20cbc046b6831c77cfcea5457e17084)
REM AIRSS Version 0.9.1 bugfix July 2018 build 013d7b7c2542+ Fri, 06 Jul 2018 19:26:36 +0100
REM compiler GCC version 9.2.1 20190827 (Red Hat 9.2.1-1)
REM options -cpp -mtune=generic -march=x86-64 -g -O0 -fpre-include=/usr/include/finclude/math-vector-fortran.h
REM seed 1233934158 -683892908 2037037550 -818353056 -1160791635 -1171867750 -1784168335 1035804256 -1688302066 2113505653 515393057 -2059812612 458111783 934165726 -1725230185 1349780012 1852098607 -568795507 -1456009477 582768029 2053686280 1854291793 -58706362 -2041816584 -1111571668 1280841389 -2113743816 -484012460 1955186794 634497675 -272183 -842216353 909932196
REM
CELL 1.54180   50.00000   50.00000   50.00000   90.00000   90.00000   90.00000
LATT -1
SFAC C  
C      1  0.4614680000000  0.4380410000000  0.5370480000000 1.0
C      1  0.5409500000000  0.5655140000000  0.5316200000000 1.0
C      1  0.4619200000000  0.5627520000000  0.4660890000000 1.0
C      1  0.5423340000000  0.4361010000000  0.4660960000000 1.0
C      1  0.4410470000000  0.4612130000000  0.5393300000000 1.0
C      1  0.5606270000000  0.5421480000000  0.5330320000000 1.0
C      1  0.5646510000000  0.4557580000000  0.4634320000000 1.0
C      1  0.4402330000000  0.5422530000000  0.4670360000000 1.0
C      1  0.4598390000000  0.5827930000000  0.5370650000000 1.0
C      1  0.5496430000000  0.4181820000000  0.5370690000000 1.0
C      1  0.4594870000000  0.4259540000000  0.4619340000000 1.0
C      1  0.5387000000000  0.5703620000000  0.4569590000000 1.0
C      1  0.5810670000000  0.4560520000000  0.5356220000000 1.0
C      1  0.4191260000000  0.5529420000000  0.5385130000000 1.0
C      1  0.4273310000000  0.4651000000000  0.4641650000000 1.0
C      1  0.5744350000000  0.5349990000000  0.4597000000000 1.0
C      1  0.5775880000000  0.4442780000000  0.5098440000000 1.0
C      1  0.4261220000000  0.5604630000000  0.5115200000000 1.0
C      1  0.5710060000000  0.5491380000000  0.4844840000000 1.0
C      1  0.4301450000000  0.4520080000000  0.4898980000000 1.0
C      1  0.4483290000000  0.5788560000000  0.5109700000000 1.0
C      1  0.5591120000000  0.4225110000000  0.5105650000000 1.0
C      1  0.5514970000000  0.5698940000000  0.4826830000000 1.0
C      1  0.4487440000000  0.4299820000000  0.4886160000000 1.0
C      1  0.4915530000000  0.5306650000000  0.4784040000000 1.0
C      1  0.5088440000000  0.4632400000000  0.4830650000000 1.0
C      1  0.4915940000000  0.4745070000000  0.5357210000000 1.0
C      1  0.5077450000000  0.5354880000000  0.5242050000000 1.0
C      1  0.5208270000000  0.4883650000000  0.4725360000000 1.0
C      1  0.4709580000000  0.5111020000000  0.4788350000000 1.0
C      1  0.4714740000000  0.4894010000000  0.5215300000000 1.0
C      1  0.5234480000000  0.5132050000000  0.5401610000000 1.0
C      1  0.5892300000000  0.5107610000000  0.5059680000000 1.0
C      1  0.4124910000000  0.4920280000000  0.5101830000000 1.0
C      1  0.5900930000000  0.4872330000000  0.4930870000000 1.0
C      1  0.4114510000000  0.5161320000000  0.4981760000000 1.0
C      1  0.5147400000000  0.5949080000000  0.5010900000000 1.0
C      1  0.4898870000000  0.4105510000000  0.5058810000000 1.0
C      1  0.4895990000000  0.5950800000000  0.4915740000000 1.0
C      1  0.5149960000000  0.4079230000000  0.4962470000000 1.0
C      1  0.5495770000000  0.4990850000000  0.4374210000000 1.0
C      1  0.4559900000000  0.4965200000000  0.4379310000000 1.0
C      1  0.5599460000000  0.4920250000000  0.5592640000000 1.0
C      1  0.4433750000000  0.5135230000000  0.5522090000000 1.0
C      1  0.5036140000000  0.5442280000000  0.4352500000000 1.0
C      1  0.4954710000000  0.4524570000000  0.4391320000000 1.0
C      1  0.4922930000000  0.5559460000000  0.5635340000000 1.0
C      1  0.5111940000000  0.4352460000000  0.5590110000000 1.0
C      1  0.5155530000000  0.4449020000000  0.4594640000000 1.0
C      1  0.4873310000000  0.5503470000000  0.4580770000000 1.0
C      1  0.5142420000000  0.5592260000000  0.5426190000000 1.0
C      1  0.4841760000000  0.4334960000000  0.5547460000000 1.0
C      1  0.4505990000000  0.5160150000000  0.4586780000000 1.0
C      1  0.5663500000000  0.4762010000000  0.4429090000000 1.0
C      1  0.5522840000000  0.5185550000000  0.5488890000000 1.0
C      1  0.4435480000000  0.4842650000000  0.5598910000000 1.0
C      1  0.4794030000000  0.5243480000000  0.6013730000000 1.0
C      1  0.5099790000000  0.4684490000000  0.5879170000000 1.0
C      1  0.5139130000000  0.4737500000000  0.3983330000000 1.0
C      1  0.4881490000000  0.5354420000000  0.3893820000000 1.0
C      1  0.5217690000000  0.4623610000000  0.6103700000000 1.0
C      1  0.4649850000000  0.5011620000000  0.6016830000000 1.0
C      1  0.5242340000000  0.4702210000000  0.3746820000000 1.0
C      1  0.4860910000000  0.5423590000000  0.3643430000000 1.0
C      1  0.4650040000000  0.4238730000000  0.5113460000000 1.0
C      1  0.5385140000000  0.5800310000000  0.5060920000000 1.0
C      1  0.4646960000000  0.5819300000000  0.4877120000000 1.0
C      1  0.5409270000000  0.4182170000000  0.4891510000000 1.0
C      1  0.4253750000000  0.4668640000000  0.5144130000000 1.0
C      1  0.5763560000000  0.5358180000000  0.5091940000000 1.0
C      1  0.5799010000000  0.4614180000000  0.4873920000000 1.0
C      1  0.4228160000000  0.5411690000000  0.4904360000000 1.0
C      1  0.4653050000000  0.4833170000000  0.5792450000000 1.0
C      1  0.5063530000000  0.5094270000000  0.5645540000000 1.0
C      1  0.4810410000000  0.5008010000000  0.4238280000000 1.0
C      1  0.5232240000000  0.4912540000000  0.4445180000000 1.0
C      1  0.4933400000000  0.4816940000000  0.5665840000000 1.0
C      1  0.4956830000000  0.5318410000000  0.5793530000000 1.0
C      1  0.5027750000000  0.4791100000000  0.4251970000000 1.0
C      1  0.4910000000000  0.5270230000000  0.4158370000000 1.0
C      1  0.5322050000000  0.5476760000000  0.4400090000000 1.0
C      1  0.4672120000000  0.4470140000000  0.4435910000000 1.0
C      1  0.5392610000000  0.4398580000000  0.5534840000000 1.0
C      1  0.4636540000000  0.5619300000000  0.5569920000000 1.0
C      1  0.5537790000000  0.5272580000000  0.4412090000000 1.0
C      1  0.4478780000000  0.4693370000000  0.4441610000000 1.0
C      1  0.4396110000000  0.5425600000000  0.5564980000000 1.0
C      1  0.5590520000000  0.4633210000000  0.5532670000000 1.0
C      1  0.5137050000000  0.5296120000000  0.4953980000000 1.0
C      1  0.4803370000000  0.4648350000000  0.4837090000000 1.0
C      1  0.5139860000000  0.4699520000000  0.5191160000000 1.0
C      1  0.4783550000000  0.5348340000000  0.5244600000000 1.0
C      1  0.5287650000000  0.5057930000000  0.4928390000000 1.0
C      1  0.4697320000000  0.4878470000000  0.4939580000000 1.0
C      1  0.4625580000000  0.5135080000000  0.5311760000000 1.0
C      1  0.5292040000000  0.4928630000000  0.5182150000000 1.0
END
