TITL C-3623286-7563-1353 -1.12196623718007e-06 125000 -701.499037169467 0 0 118 (C1) n - 1
REM
REM in /home/nfs/bkarasulu/CARBON/AIRSS/Generating-Clusters/LCBOP/Higher-Symm/SD-CG/FIRE-CG
REM
REM
REM
REM
REM
REM ./C.cell (b20cbc046b6831c77cfcea5457e17084)
REM AIRSS Version 0.9.1 bugfix July 2018 build 013d7b7c2542+ Fri, 06 Jul 2018 19:26:36 +0100
REM compiler GCC version 9.2.1 20190827 (Red Hat 9.2.1-1)
REM options -cpp -mtune=generic -march=x86-64 -g -O0 -fpre-include=/usr/include/finclude/math-vector-fortran.h
REM seed 1998098625 -1313132177 -475552094 -192984651 490884988 570711587 -722492871 1811008649 -1283562495 1389624190 2091823392 -1837293123 -302512153 -511736324 -1654511036 -1081748065 -911857487 1914308935 1353758033 818657689 -1771008749 1359806054 385251799 -1921567501 1549967002 -1894470736 1120395796 -1216239247 -1261557004 1199129682 1700928978 1868007435 287577531
REM
CELL 1.54180   50.00000   50.00000   50.00000   90.00000   90.00000   90.00000
LATT -1
SFAC C  
C      1  0.5151580000000  0.4220850000000  0.4779070000000 1.0
C      1  0.4333250000000  0.5281620000000  0.4636180000000 1.0
C      1  0.5541310000000  0.4478270000000  0.4361900000000 1.0
C      1  0.5637890000000  0.4449540000000  0.5740580000000 1.0
C      1  0.4941200000000  0.4570340000000  0.6199490000000 1.0
C      1  0.5662580000000  0.4409740000000  0.4590670000000 1.0
C      1  0.4919030000000  0.4252840000000  0.5661540000000 1.0
C      1  0.4040990000000  0.4887260000000  0.4715660000000 1.0
C      1  0.5468470000000  0.5776330000000  0.4490070000000 1.0
C      1  0.5032240000000  0.5586380000000  0.4447230000000 1.0
C      1  0.4125720000000  0.4912950000000  0.5193910000000 1.0
C      1  0.5426340000000  0.4273960000000  0.5267210000000 1.0
C      1  0.5324740000000  0.5427530000000  0.4087300000000 1.0
C      1  0.4221220000000  0.4877550000000  0.5466810000000 1.0
C      1  0.4592380000000  0.5047210000000  0.5719830000000 1.0
C      1  0.4985860000000  0.5033670000000  0.4039420000000 1.0
C      1  0.4981380000000  0.5742250000000  0.4213430000000 1.0
C      1  0.5030060000000  0.5318600000000  0.4516270000000 1.0
C      1  0.5125040000000  0.5249760000000  0.5048780000000 1.0
C      1  0.5283930000000  0.4062730000000  0.5405680000000 1.0
C      1  0.4581240000000  0.5142970000000  0.4637330000000 1.0
C      1  0.5627020000000  0.4285960000000  0.5074000000000 1.0
C      1  0.4542140000000  0.5536200000000  0.5608160000000 1.0
C      1  0.5701500000000  0.5011620000000  0.4268130000000 1.0
C      1  0.4844510000000  0.5978250000000  0.4278650000000 1.0
C      1  0.4827320000000  0.4201820000000  0.5357750000000 1.0
C      1  0.5027020000000  0.5838130000000  0.5357730000000 1.0
C      1  0.4807780000000  0.5435940000000  0.5560530000000 1.0
C      1  0.5450330000000  0.4922990000000  0.4158730000000 1.0
C      1  0.5231890000000  0.4487770000000  0.5286110000000 1.0
C      1  0.5374520000000  0.5638390000000  0.4938350000000 1.0
C      1  0.5580370000000  0.5007360000000  0.5448620000000 1.0
C      1  0.5776450000000  0.5406520000000  0.5583940000000 1.0
C      1  0.4757170000000  0.5156920000000  0.4160990000000 1.0
C      1  0.5676670000000  0.4469050000000  0.4865220000000 1.0
C      1  0.5572630000000  0.5685620000000  0.5146180000000 1.0
C      1  0.4781280000000  0.6035780000000  0.4536550000000 1.0
C      1  0.5456100000000  0.5873320000000  0.6113930000000 1.0
C      1  0.4038720000000  0.5184710000000  0.5140850000000 1.0
C      1  0.4046050000000  0.5513730000000  0.5650780000000 1.0
C      1  0.5532050000000  0.5273080000000  0.5521910000000 1.0
C      1  0.4329780000000  0.5103680000000  0.5617830000000 1.0
C      1  0.4292340000000  0.5389660000000  0.5619490000000 1.0
C      1  0.4778060000000  0.3933120000000  0.4855360000000 1.0
C      1  0.4440450000000  0.4384040000000  0.4241090000000 1.0
C      1  0.5303900000000  0.5446680000000  0.5953540000000 1.0
C      1  0.4144050000000  0.4745840000000  0.4944900000000 1.0
C      1  0.4731100000000  0.4715690000000  0.4795850000000 1.0
C      1  0.4513880000000  0.5168430000000  0.4024500000000 1.0
C      1  0.5652470000000  0.4740560000000  0.4934290000000 1.0
C      1  0.5418420000000  0.4303090000000  0.5801410000000 1.0
C      1  0.4284680000000  0.4525820000000  0.4078970000000 1.0
C      1  0.5246030000000  0.5144860000000  0.4591640000000 1.0
C      1  0.5280350000000  0.6070640000000  0.4941280000000 1.0
C      1  0.5113120000000  0.4969920000000  0.5121730000000 1.0
C      1  0.4778750000000  0.5200390000000  0.4442220000000 1.0
C      1  0.5412240000000  0.5709450000000  0.5896340000000 1.0
C      1  0.5482450000000  0.5583450000000  0.4289630000000 1.0
C      1  0.4807250000000  0.4551640000000  0.5724900000000 1.0
C      1  0.5107090000000  0.5519070000000  0.4965210000000 1.0
C      1  0.5049760000000  0.4015830000000  0.5238000000000 1.0
C      1  0.4337430000000  0.4071250000000  0.5377680000000 1.0
C      1  0.5842140000000  0.5609240000000  0.5166680000000 1.0
C      1  0.4845460000000  0.4689460000000  0.5447910000000 1.0
C      1  0.5262190000000  0.5133950000000  0.4071420000000 1.0
C      1  0.5992520000000  0.5071530000000  0.4697950000000 1.0
C      1  0.5763080000000  0.5115220000000  0.4524960000000 1.0
C      1  0.6057840000000  0.4998430000000  0.4955630000000 1.0
C      1  0.5077150000000  0.4560710000000  0.4180900000000 1.0
C      1  0.5476770000000  0.5869280000000  0.5353710000000 1.0
C      1  0.4632490000000  0.4350680000000  0.4443950000000 1.0
C      1  0.4872260000000  0.4959290000000  0.5323860000000 1.0
C      1  0.5520790000000  0.5156310000000  0.4682050000000 1.0
C      1  0.4899690000000  0.4770150000000  0.4567670000000 1.0
C      1  0.4226040000000  0.4760800000000  0.3968000000000 1.0
C      1  0.5791630000000  0.4605830000000  0.5582530000000 1.0
C      1  0.4292240000000  0.4630800000000  0.5589990000000 1.0
C      1  0.5205240000000  0.4164000000000  0.5673290000000 1.0
C      1  0.4311150000000  0.5012870000000  0.3947500000000 1.0
C      1  0.5378520000000  0.5860150000000  0.4752870000000 1.0
C      1  0.4109670000000  0.5114560000000  0.4585510000000 1.0
C      1  0.4813640000000  0.5146330000000  0.5565030000000 1.0
C      1  0.4500970000000  0.4538260000000  0.5737340000000 1.0
C      1  0.4479330000000  0.4313780000000  0.4755450000000 1.0
C      1  0.4595960000000  0.5328190000000  0.5165580000000 1.0
C      1  0.4916070000000  0.4477390000000  0.5256870000000 1.0
C      1  0.5120180000000  0.4493230000000  0.4868810000000 1.0
C      1  0.4837120000000  0.5654360000000  0.4907290000000 1.0
C      1  0.5360150000000  0.4643790000000  0.4220940000000 1.0
C      1  0.5237520000000  0.5994040000000  0.5230160000000 1.0
C      1  0.5479720000000  0.5820170000000  0.5637020000000 1.0
C      1  0.4952020000000  0.4695590000000  0.5953430000000 1.0
C      1  0.5118280000000  0.5615750000000  0.3998300000000 1.0
C      1  0.4580910000000  0.5531810000000  0.4971990000000 1.0
C      1  0.4566870000000  0.4105540000000  0.4937790000000 1.0
C      1  0.4810530000000  0.5902590000000  0.4769210000000 1.0
C      1  0.5038660000000  0.4008870000000  0.4947620000000 1.0
C      1  0.4559200000000  0.4131210000000  0.5230140000000 1.0
C      1  0.5202790000000  0.5194180000000  0.5972340000000 1.0
C      1  0.4953370000000  0.4750540000000  0.4008490000000 1.0
C      1  0.4320250000000  0.5480830000000  0.4844350000000 1.0
C      1  0.4291090000000  0.4507010000000  0.4869710000000 1.0
C      1  0.5942770000000  0.5513980000000  0.5399150000000 1.0
C      1  0.3813030000000  0.5627380000000  0.5677200000000 1.0
C      1  0.5203370000000  0.4776270000000  0.4902810000000 1.0
C      1  0.5574100000000  0.4998220000000  0.4915840000000 1.0
C      1  0.4848870000000  0.4526170000000  0.4975820000000 1.0
C      1  0.5283930000000  0.5411720000000  0.5483630000000 1.0
C      1  0.5802430000000  0.4832930000000  0.5412420000000 1.0
C      1  0.4105500000000  0.5422030000000  0.5025980000000 1.0
C      1  0.4654210000000  0.5057050000000  0.5130630000000 1.0
C      1  0.5993430000000  0.4905140000000  0.5206190000000 1.0
C      1  0.5040260000000  0.5572060000000  0.5475430000000 1.0
C      1  0.5099000000000  0.4192670000000  0.4502170000000 1.0
C      1  0.4924130000000  0.4364100000000  0.4352510000000 1.0
C      1  0.5148600000000  0.4884820000000  0.4638440000000 1.0
C      1  0.5093600000000  0.4946720000000  0.5941360000000 1.0
C      1  0.4619710000000  0.4963370000000  0.4864840000000 1.0
END
