TITL C-3623285-6872-533 2952.63504299761 125000 -829.483104622041 0 0 137 (C1) n - 1
REM
REM in /home/nfs/bkarasulu/CARBON/AIRSS/Generating-Clusters/LCBOP/Higher-Symm/SD-CG/FIRE-CG
REM
REM
REM
REM
REM
REM ./C.cell (b20cbc046b6831c77cfcea5457e17084)
REM AIRSS Version 0.9.1 bugfix July 2018 build 013d7b7c2542+ Fri, 06 Jul 2018 19:26:36 +0100
REM compiler GCC version 9.2.1 20190827 (Red Hat 9.2.1-1)
REM options -cpp -mtune=generic -march=x86-64 -g -O0 -fpre-include=/usr/include/finclude/math-vector-fortran.h
REM seed -893607203 -1050028501 226457746 1498634947 1177501407 -1430097331 -2096281564 587561917 -1090919973 997498765 2027213250 255295397 1601342878 -607276824 690526285 -472549384 554576640 -1229286842 2043810573 -2086664542 -101667534 -1497661266 -111114086 -400533234 -795931981 -123574545 -1487431868 -1391142577 1012914289 941267847 -904311636 -1104101843 -1772368992
REM
CELL 1.54180   50.00000   50.00000   50.00000   90.00000   90.00000   90.00000
LATT -1
SFAC C  
C      1  0.3794220000000  0.5047500000000  0.4264650000000 1.0
C      1  0.5343670000000  0.5865500000000  0.4762770000000 1.0
C      1  0.5747080000000  0.4010990000000  0.4094640000000 1.0
C      1  0.5739930000000  0.5113850000000  0.4408290000000 1.0
C      1  0.4792190000000  0.4211410000000  0.4474960000000 1.0
C      1  0.4528180000000  0.5467450000000  0.4536920000000 1.0
C      1  0.4544740000000  0.5051760000000  0.4266130000000 1.0
C      1  0.5314060000000  0.5427530000000  0.4232080000000 1.0
C      1  0.5157460000000  0.4518870000000  0.4202770000000 1.0
C      1  0.3808060000000  0.5649210000000  0.5600470000000 1.0
C      1  0.5938250000000  0.5743980000000  0.5682260000000 1.0
C      1  0.5069720000000  0.3974810000000  0.5741310000000 1.0
C      1  0.4189630000000  0.5330360000000  0.5521810000000 1.0
C      1  0.5448440000000  0.5556350000000  0.5566150000000 1.0
C      1  0.5181460000000  0.4381460000000  0.5500020000000 1.0
C      1  0.6338430000000  0.4403450000000  0.4288900000000 1.0
C      1  0.4207920000000  0.4367650000000  0.5114720000000 1.0
C      1  0.4700790000000  0.6186410000000  0.4899230000000 1.0
C      1  0.5012310000000  0.4546560000000  0.4697040000000 1.0
C      1  0.4704030000000  0.5288780000000  0.4712540000000 1.0
C      1  0.5551610000000  0.5057840000000  0.4621500000000 1.0
C      1  0.4611180000000  0.4252480000000  0.4703350000000 1.0
C      1  0.4522700000000  0.5739080000000  0.4616070000000 1.0
C      1  0.5913230000000  0.4879560000000  0.4427980000000 1.0
C      1  0.4438980000000  0.6118090000000  0.4903830000000 1.0
C      1  0.6336500000000  0.4657330000000  0.4369670000000 1.0
C      1  0.4354740000000  0.4130750000000  0.5099960000000 1.0
C      1  0.5922140000000  0.5651950000000  0.4846310000000 1.0
C      1  0.5374380000000  0.3906730000000  0.4908740000000 1.0
C      1  0.4023210000000  0.5135460000000  0.4968010000000 1.0
C      1  0.4623660000000  0.5022740000000  0.6051690000000 1.0
C      1  0.4937810000000  0.5145950000000  0.6170580000000 1.0
C      1  0.4908310000000  0.4796060000000  0.6132300000000 1.0
C      1  0.5195430000000  0.5645660000000  0.5672930000000 1.0
C      1  0.5398930000000  0.4471220000000  0.5670150000000 1.0
C      1  0.4181340000000  0.5013770000000  0.5473540000000 1.0
C      1  0.5018380000000  0.5808750000000  0.5492850000000 1.0
C      1  0.5598100000000  0.4624230000000  0.5516290000000 1.0
C      1  0.4061820000000  0.4802800000000  0.5317290000000 1.0
C      1  0.4578340000000  0.5347290000000  0.4274510000000 1.0
C      1  0.5556750000000  0.5170780000000  0.4178640000000 1.0
C      1  0.4882140000000  0.4396820000000  0.4264080000000 1.0
C      1  0.5628710000000  0.4616950000000  0.4163650000000 1.0
C      1  0.4396060000000  0.4600600000000  0.4380740000000 1.0
C      1  0.4926880000000  0.5747480000000  0.4312060000000 1.0
C      1  0.4431990000000  0.4524310000000  0.4688280000000 1.0
C      1  0.4787350000000  0.5861230000000  0.4554340000000 1.0
C      1  0.5747140000000  0.4633970000000  0.4441000000000 1.0
C      1  0.6314830000000  0.5127100000000  0.4525460000000 1.0
C      1  0.4796250000000  0.3957170000000  0.5103410000000 1.0
C      1  0.4136530000000  0.5752280000000  0.4979700000000 1.0
C      1  0.3957890000000  0.4876390000000  0.5056500000000 1.0
C      1  0.5105850000000  0.5769130000000  0.5201040000000 1.0
C      1  0.5672240000000  0.4558840000000  0.5239260000000 1.0
C      1  0.4747820000000  0.4429140000000  0.5878840000000 1.0
C      1  0.4311300000000  0.5345410000000  0.5813710000000 1.0
C      1  0.5396150000000  0.5271770000000  0.6102860000000 1.0
C      1  0.4890720000000  0.6009990000000  0.4786320000000 1.0
C      1  0.6220870000000  0.4178110000000  0.4209220000000 1.0
C      1  0.4175730000000  0.4495470000000  0.4858400000000 1.0
C      1  0.3961240000000  0.4676810000000  0.4856450000000 1.0
C      1  0.5117260000000  0.5920130000000  0.4937800000000 1.0
C      1  0.6009110000000  0.4031730000000  0.4140410000000 1.0
C      1  0.4558480000000  0.5816380000000  0.5805020000000 1.0
C      1  0.5713930000000  0.5010120000000  0.5814440000000 1.0
C      1  0.4291720000000  0.4430740000000  0.5596650000000 1.0
C      1  0.4974570000000  0.4570360000000  0.5987580000000 1.0
C      1  0.4460410000000  0.5087220000000  0.5841400000000 1.0
C      1  0.5123340000000  0.5300730000000  0.6041190000000 1.0
C      1  0.4829100000000  0.5479670000000  0.4205260000000 1.0
C      1  0.5486880000000  0.4878230000000  0.4097020000000 1.0
C      1  0.4659310000000  0.4584040000000  0.4236900000000 1.0
C      1  0.6150840000000  0.5571350000000  0.4733620000000 1.0
C      1  0.5250340000000  0.3797770000000  0.5128000000000 1.0
C      1  0.3862360000000  0.5362270000000  0.4995300000000 1.0
C      1  0.4930320000000  0.4452960000000  0.5002900000000 1.0
C      1  0.4733900000000  0.5360630000000  0.5005490000000 1.0
C      1  0.5640350000000  0.5089810000000  0.4885490000000 1.0
C      1  0.5128880000000  0.4927290000000  0.5461030000000 1.0
C      1  0.4595470000000  0.4753150000000  0.5425750000000 1.0
C      1  0.4852810000000  0.5314430000000  0.5619550000000 1.0
C      1  0.4809890000000  0.4866830000000  0.4966580000000 1.0
C      1  0.5179450000000  0.5473400000000  0.5195780000000 1.0
C      1  0.5567110000000  0.4635680000000  0.4979640000000 1.0
C      1  0.4994900000000  0.5270270000000  0.4600750000000 1.0
C      1  0.5319680000000  0.4936370000000  0.4512740000000 1.0
C      1  0.4911730000000  0.4781070000000  0.4552610000000 1.0
C      1  0.4475860000000  0.5055730000000  0.4755040000000 1.0
C      1  0.5427980000000  0.5601460000000  0.4809300000000 1.0
C      1  0.5327040000000  0.4394900000000  0.4662140000000 1.0
C      1  0.5697090000000  0.5659010000000  0.5632030000000 1.0
C      1  0.5090650000000  0.4100300000000  0.5494720000000 1.0
C      1  0.3980500000000  0.5529320000000  0.5425180000000 1.0
C      1  0.4663830000000  0.5501180000000  0.5513580000000 1.0
C      1  0.5392820000000  0.5060660000000  0.5456030000000 1.0
C      1  0.4803210000000  0.4596710000000  0.5302640000000 1.0
C      1  0.6293000000000  0.5374070000000  0.4623800000000 1.0
C      1  0.5031580000000  0.3925970000000  0.5265100000000 1.0
C      1  0.3970620000000  0.5581840000000  0.5138990000000 1.0
C      1  0.5421710000000  0.4402210000000  0.4131640000000 1.0
C      1  0.4302800000000  0.4878840000000  0.4305220000000 1.0
C      1  0.5239760000000  0.5728700000000  0.4292050000000 1.0
C      1  0.4395470000000  0.5610940000000  0.5898480000000 1.0
C      1  0.5621930000000  0.5154170000000  0.6020870000000 1.0
C      1  0.4504760000000  0.4393630000000  0.5762310000000 1.0
C      1  0.4438000000000  0.4925390000000  0.5597460000000 1.0
C      1  0.5047830000000  0.5429030000000  0.5800480000000 1.0
C      1  0.5254290000000  0.4523720000000  0.5919910000000 1.0
C      1  0.4757590000000  0.4847370000000  0.4311440000000 1.0
C      1  0.5050660000000  0.5315210000000  0.4297640000000 1.0
C      1  0.5245760000000  0.4813130000000  0.4250440000000 1.0
C      1  0.4465180000000  0.5347930000000  0.5106010000000 1.0
C      1  0.5679070000000  0.5296780000000  0.5054530000000 1.0
C      1  0.5142570000000  0.4282080000000  0.5050120000000 1.0
C      1  0.4162720000000  0.4523830000000  0.5355190000000 1.0
C      1  0.4735630000000  0.5774100000000  0.5578860000000 1.0
C      1  0.5601740000000  0.4906580000000  0.5579200000000 1.0
C      1  0.5049130000000  0.4637920000000  0.5437490000000 1.0
C      1  0.4436720000000  0.5420970000000  0.5369300000000 1.0
C      1  0.5401260000000  0.5349460000000  0.5362490000000 1.0
C      1  0.5218620000000  0.5419740000000  0.4741520000000 1.0
C      1  0.5584110000000  0.4544570000000  0.4687870000000 1.0
C      1  0.4573480000000  0.4799540000000  0.4817400000000 1.0
C      1  0.6195020000000  0.4888310000000  0.4440470000000 1.0
C      1  0.4594230000000  0.4090440000000  0.4952700000000 1.0
C      1  0.4345300000000  0.5862170000000  0.4818240000000 1.0
C      1  0.5514470000000  0.4142770000000  0.4087480000000 1.0
C      1  0.4038970000000  0.4958570000000  0.4274230000000 1.0
C      1  0.5360220000000  0.5912860000000  0.4479990000000 1.0
C      1  0.5073370000000  0.4872500000000  0.5025870000000 1.0
C      1  0.4953210000000  0.5299810000000  0.5172890000000 1.0
C      1  0.5329080000000  0.4794130000000  0.5018620000000 1.0
C      1  0.5309570000000  0.4172710000000  0.4845370000000 1.0
C      1  0.4298640000000  0.5185000000000  0.4938870000000 1.0
C      1  0.5675970000000  0.5548980000000  0.4931540000000 1.0
C      1  0.4935250000000  0.5134940000000  0.5415900000000 1.0
C      1  0.5074080000000  0.4994410000000  0.4619830000000 1.0
END
