TITL C-3623283-6828-641 -4.61562010050472e-08 125000 -131.854799569279 0 0 22 (D2h) n - 1
REM
REM in /home/nfs/bkarasulu/CARBON/AIRSS/Generating-Clusters/LCBOP/Higher-Symm/SD-CG/FIRE-CG
REM
REM
REM
REM
REM
REM ./C.cell (b20cbc046b6831c77cfcea5457e17084)
REM AIRSS Version 0.9.1 bugfix July 2018 build 013d7b7c2542+ Fri, 06 Jul 2018 19:26:36 +0100
REM compiler GCC version 9.2.1 20190827 (Red Hat 9.2.1-1)
REM options -cpp -mtune=generic -march=x86-64 -g -O0 -fpre-include=/usr/include/finclude/math-vector-fortran.h
REM seed -162036859 282444653 171899512 -1810707743 -583401086 -880326672 -1260725094 -1183787184 1922556663 -927254870 -1802275273 29563529 2007601597 1915239599 -312755348 -556451980 289152945 552520157 -1176268171 1999803659 -303571523 1156188253 425745773 1128052921 1829125514 -1962165823 -1075363205 125888313 -1292965750 -226514244 714237863 -1799367116 -741160391
REM
CELL 1.54180   50.00000   50.00000   50.00000   90.00000   90.00000   90.00000
LATT -1
SFAC C  
C      1  0.5352440000000  0.5382470000000  0.4741260000000 1.0
C      1  0.4647560000000  0.4617530000000  0.4741260000000 1.0
C      1  0.5352440000000  0.5382470000000  0.5221600000000 1.0
C      1  0.4647560000000  0.4617530000000  0.5221600000000 1.0
C      1  0.4647560000000  0.5382470000000  0.4741260000000 1.0
C      1  0.5352440000000  0.4617530000000  0.4741260000000 1.0
C      1  0.4647560000000  0.5382470000000  0.5221600000000 1.0
C      1  0.5352440000000  0.4617530000000  0.5221600000000 1.0
C      1  0.5133410000000  0.4552610000000  0.4603180000000 1.0
C      1  0.4866590000000  0.5447390000000  0.4603180000000 1.0
C      1  0.5133410000000  0.4552610000000  0.5359680000000 1.0
C      1  0.4866590000000  0.5447390000000  0.5359680000000 1.0
C      1  0.4866590000000  0.4552610000000  0.4603180000000 1.0
C      1  0.5133410000000  0.5447390000000  0.4603180000000 1.0
C      1  0.4866590000000  0.4552610000000  0.5359680000000 1.0
C      1  0.5133410000000  0.5447390000000  0.5359680000000 1.0
C      1  0.4560020000000  0.4734500000000  0.4981430000000 1.0
C      1  0.5439980000000  0.4734500000000  0.4981430000000 1.0
C      1  0.5439980000000  0.5265500000000  0.4981430000000 1.0
C      1  0.4560020000000  0.5265500000000  0.4981430000000 1.0
C      1  0.5529590000000  0.5000000000000  0.4981430000000 1.0
C      1  0.4470410000000  0.5000000000000  0.4981430000000 1.0
END
