TITL C-3623282-6910-1509 8.85391397693093e-06 125000 -741.033905749631 0 0 122 (C1) n - 1
REM
REM in /home/nfs/bkarasulu/CARBON/AIRSS/Generating-Clusters/LCBOP/Higher-Symm/SD-CG/FIRE-CG
REM
REM
REM
REM
REM
REM ./C.cell (b20cbc046b6831c77cfcea5457e17084)
REM AIRSS Version 0.9.1 bugfix July 2018 build 013d7b7c2542+ Fri, 06 Jul 2018 19:26:36 +0100
REM compiler GCC version 9.2.1 20190827 (Red Hat 9.2.1-1)
REM options -cpp -mtune=generic -march=x86-64 -g -O0 -fpre-include=/usr/include/finclude/math-vector-fortran.h
REM seed -1126213405 407421683 1781842165 648524778 -1372813278 -1962958320 647678465 -1585704764 -1845913079 597707253 1476955566 179291122 801869949 -1943198091 -492231752 -434738071 1446345415 1148433655 -2049155738 19321648 239021426 64796138 -1859217510 -77787269 -1251514853 -557545070 -360250767 -1949343129 750724827 -1238348643 700827620 -217581523 450676625
REM
CELL 1.54180   50.00000   50.00000   50.00000   90.00000   90.00000   90.00000
LATT -1
SFAC C  
C      1  0.5291420000000  0.5956640000000  0.5119460000000 1.0
C      1  0.4151780000000  0.5463630000000  0.5019950000000 1.0
C      1  0.4384740000000  0.4343280000000  0.4981180000000 1.0
C      1  0.5428930000000  0.4093330000000  0.5007030000000 1.0
C      1  0.6057390000000  0.5021150000000  0.5144960000000 1.0
C      1  0.4815090000000  0.5945450000000  0.4994950000000 1.0
C      1  0.5887770000000  0.5459560000000  0.5008380000000 1.0
C      1  0.5828080000000  0.4341980000000  0.4871090000000 1.0
C      1  0.4673970000000  0.3987120000000  0.4824730000000 1.0
C      1  0.4011130000000  0.5004980000000  0.4900610000000 1.0
C      1  0.5339490000000  0.5293580000000  0.5584130000000 1.0
C      1  0.4821390000000  0.5431410000000  0.5589860000000 1.0
C      1  0.4536030000000  0.4987340000000  0.5595500000000 1.0
C      1  0.4886810000000  0.4572790000000  0.5614250000000 1.0
C      1  0.5371170000000  0.4761930000000  0.5588860000000 1.0
C      1  0.4640260000000  0.5298890000000  0.4429250000000 1.0
C      1  0.5157950000000  0.5416860000000  0.4428600000000 1.0
C      1  0.5434190000000  0.4959980000000  0.4438750000000 1.0
C      1  0.5086830000000  0.4552420000000  0.4439260000000 1.0
C      1  0.4598340000000  0.4762730000000  0.4426320000000 1.0
C      1  0.5225250000000  0.4130710000000  0.4465170000000 1.0
C      1  0.5877780000000  0.4967500000000  0.4486670000000 1.0
C      1  0.5289770000000  0.5841480000000  0.4472020000000 1.0
C      1  0.4284770000000  0.5562030000000  0.4471120000000 1.0
C      1  0.4242140000000  0.4494300000000  0.4453290000000 1.0
C      1  0.4758910000000  0.4152510000000  0.5551490000000 1.0
C      1  0.4093200000000  0.4991870000000  0.5548460000000 1.0
C      1  0.4680390000000  0.5850820000000  0.5545570000000 1.0
C      1  0.5696170000000  0.5555020000000  0.5538660000000 1.0
C      1  0.5727060000000  0.4500070000000  0.5525090000000 1.0
C      1  0.4572000000000  0.5585910000000  0.5587010000000 1.0
C      1  0.4310260000000  0.4800690000000  0.5578010000000 1.0
C      1  0.5000550000000  0.4300080000000  0.5605420000000 1.0
C      1  0.5663100000000  0.4781070000000  0.5559830000000 1.0
C      1  0.5408890000000  0.5577670000000  0.5569380000000 1.0
C      1  0.5405130000000  0.5575990000000  0.4442160000000 1.0
C      1  0.5661970000000  0.4775440000000  0.4457820000000 1.0
C      1  0.4979030000000  0.4280360000000  0.4432810000000 1.0
C      1  0.4304920000000  0.4778710000000  0.4435230000000 1.0
C      1  0.4570750000000  0.5584040000000  0.4430650000000 1.0
C      1  0.5035090000000  0.5379340000000  0.6018020000000 1.0
C      1  0.4661440000000  0.5159350000000  0.6030010000000 1.0
C      1  0.4747790000000  0.4734530000000  0.6038790000000 1.0
C      1  0.5180060000000  0.4698660000000  0.6029510000000 1.0
C      1  0.5360640000000  0.5092800000000  0.6018750000000 1.0
C      1  0.4959200000000  0.5360790000000  0.3989910000000 1.0
C      1  0.5329970000000  0.5136170000000  0.4000740000000 1.0
C      1  0.5229120000000  0.4714620000000  0.4009820000000 1.0
C      1  0.4796930000000  0.4685100000000  0.3989510000000 1.0
C      1  0.4626050000000  0.5083440000000  0.4001110000000 1.0
C      1  0.5195020000000  0.4849070000000  0.5366860000000 1.0
C      1  0.5194960000000  0.5161750000000  0.5363360000000 1.0
C      1  0.4900050000000  0.5257980000000  0.5363750000000 1.0
C      1  0.4720520000000  0.5005170000000  0.5365360000000 1.0
C      1  0.4900880000000  0.4751090000000  0.5373570000000 1.0
C      1  0.4757250000000  0.4859710000000  0.4656490000000 1.0
C      1  0.4778810000000  0.5172040000000  0.4656880000000 1.0
C      1  0.5080280000000  0.5245750000000  0.4657000000000 1.0
C      1  0.5241200000000  0.4978220000000  0.4661770000000 1.0
C      1  0.5039210000000  0.4737470000000  0.4665010000000 1.0
C      1  0.4702320000000  0.4319090000000  0.4349080000000 1.0
C      1  0.5543040000000  0.4515130000000  0.4389840000000 1.0
C      1  0.5612170000000  0.5380200000000  0.4368830000000 1.0
C      1  0.4818430000000  0.5715160000000  0.4348950000000 1.0
C      1  0.4250440000000  0.5063010000000  0.4378460000000 1.0
C      1  0.5280890000000  0.4325020000000  0.5671560000000 1.0
C      1  0.4435010000000  0.4541900000000  0.5640060000000 1.0
C      1  0.4362750000000  0.5400780000000  0.5669970000000 1.0
C      1  0.5164600000000  0.5726000000000  0.5633460000000 1.0
C      1  0.5727170000000  0.5059130000000  0.5629390000000 1.0
C      1  0.4966220000000  0.5884330000000  0.5473290000000 1.0
C      1  0.4137590000000  0.5284420000000  0.5520640000000 1.0
C      1  0.4537150000000  0.4323150000000  0.5454980000000 1.0
C      1  0.5521120000000  0.4287810000000  0.5507620000000 1.0
C      1  0.5825950000000  0.5295150000000  0.5476270000000 1.0
C      1  0.4998460000000  0.5893210000000  0.4497940000000 1.0
C      1  0.5839140000000  0.5260270000000  0.4513460000000 1.0
C      1  0.5481300000000  0.4263310000000  0.4537280000000 1.0
C      1  0.4451650000000  0.4287170000000  0.4501680000000 1.0
C      1  0.4163570000000  0.5299630000000  0.4542540000000 1.0
C      1  0.4059960000000  0.5410550000000  0.5281870000000 1.0
C      1  0.4580880000000  0.4399670000000  0.5180780000000 1.0
C      1  0.5507230000000  0.4130340000000  0.5275480000000 1.0
C      1  0.5939160000000  0.5266270000000  0.5215280000000 1.0
C      1  0.5020580000000  0.5946550000000  0.5198910000000 1.0
C      1  0.5940030000000  0.5388040000000  0.4741410000000 1.0
C      1  0.5585940000000  0.4217870000000  0.4799880000000 1.0
C      1  0.4475970000000  0.4179590000000  0.4765360000000 1.0
C      1  0.4092330000000  0.5263690000000  0.4818480000000 1.0
C      1  0.4899000000000  0.6010250000000  0.4732990000000 1.0
C      1  0.4154310000000  0.4505540000000  0.4976840000000 1.0
C      1  0.5181790000000  0.3967140000000  0.4957310000000 1.0
C      1  0.6067060000000  0.4771060000000  0.5054740000000 1.0
C      1  0.5536820000000  0.5865050000000  0.5069400000000 1.0
C      1  0.4336910000000  0.5678410000000  0.4993220000000 1.0
C      1  0.5987480000000  0.4535670000000  0.4959680000000 1.0
C      1  0.4922990000000  0.3928460000000  0.4903160000000 1.0
C      1  0.4034620000000  0.4744050000000  0.4954690000000 1.0
C      1  0.4553550000000  0.5836020000000  0.5020550000000 1.0
C      1  0.5743550000000  0.5697690000000  0.5049640000000 1.0
C      1  0.5490310000000  0.5152070000000  0.5783030000000 1.0
C      1  0.5006270000000  0.5527140000000  0.5787460000000 1.0
C      1  0.4507020000000  0.5182040000000  0.5803720000000 1.0
C      1  0.4675800000000  0.4602320000000  0.5807710000000 1.0
C      1  0.5293360000000  0.4588430000000  0.5804010000000 1.0
C      1  0.4492580000000  0.5152980000000  0.4231510000000 1.0
C      1  0.4981600000000  0.5508040000000  0.4221110000000 1.0
C      1  0.5470140000000  0.5159530000000  0.4236320000000 1.0
C      1  0.5294510000000  0.4586460000000  0.4244310000000 1.0
C      1  0.4690940000000  0.4583010000000  0.4222070000000 1.0
C      1  0.5070680000000  0.4607330000000  0.4947580000000 1.0
C      1  0.5371950000000  0.4975800000000  0.4939820000000 1.0
C      1  0.5124430000000  0.5374800000000  0.4934230000000 1.0
C      1  0.4673530000000  0.5253960000000  0.4935400000000 1.0
C      1  0.4644260000000  0.4793720000000  0.4933650000000 1.0
C      1  0.4804440000000  0.4597350000000  0.5106100000000 1.0
C      1  0.4586730000000  0.5025950000000  0.5088490000000 1.0
C      1  0.4877620000000  0.5388560000000  0.5084390000000 1.0
C      1  0.5313360000000  0.5219340000000  0.5084480000000 1.0
C      1  0.5281070000000  0.4749280000000  0.5091660000000 1.0
C      1  0.4997570000000  0.5013910000000  0.6058150000000 1.0
C      1  0.4988680000000  0.4995770000000  0.3965840000000 1.0
END
