TITL C-3623287-7182-962 374.625659893878 125000 -672.835132948863 0 0 110 (C1) n - 1
REM
REM in /home/nfs/bkarasulu/CARBON/AIRSS/Generating-Clusters/LCBOP/Higher-Symm/SD-CG/FIRE-CG
REM
REM
REM
REM
REM
REM ./C.cell (b20cbc046b6831c77cfcea5457e17084)
REM AIRSS Version 0.9.1 bugfix July 2018 build 013d7b7c2542+ Fri, 06 Jul 2018 19:26:36 +0100
REM compiler GCC version 9.2.1 20190827 (Red Hat 9.2.1-1)
REM options -cpp -mtune=generic -march=x86-64 -g -O0 -fpre-include=/usr/include/finclude/math-vector-fortran.h
REM seed -1079899302 1148795711 -872427543 522019004 566631883 -1065720449 -1326862801 319049965 -1716571572 61571865 1944523009 869858964 -328820137 1714184115 1031459411 -514509869 -984636764 1663143752 -1861389706 -888279012 727795434 1816587667 -260293277 -1530766891 325940598 435259553 -1450236523 937325492 -180076030 469457204 -354963692 -443881635 1513367464
REM
CELL 1.54180   50.00000   50.00000   50.00000   90.00000   90.00000   90.00000
LATT -1
SFAC C  
C      1  0.5356700000000  0.4853640000000  0.5520900000000 1.0
C      1  0.5244090000000  0.4874420000000  0.4571370000000 1.0
C      1  0.4994930000000  0.5325080000000  0.5226280000000 1.0
C      1  0.5024380000000  0.5295380000000  0.4700100000000 1.0
C      1  0.4887100000000  0.5377160000000  0.4196310000000 1.0
C      1  0.4869590000000  0.5242940000000  0.5732000000000 1.0
C      1  0.5058440000000  0.5371790000000  0.5528350000000 1.0
C      1  0.5104250000000  0.5415350000000  0.4417460000000 1.0
C      1  0.5087010000000  0.3845870000000  0.5371690000000 1.0
C      1  0.4889190000000  0.3862790000000  0.4523450000000 1.0
C      1  0.5857570000000  0.5022290000000  0.4685330000000 1.0
C      1  0.5897480000000  0.5115580000000  0.5352850000000 1.0
C      1  0.5102800000000  0.3827690000000  0.4678390000000 1.0
C      1  0.5230490000000  0.3852340000000  0.5145800000000 1.0
C      1  0.4455740000000  0.4406830000000  0.4662030000000 1.0
C      1  0.4587920000000  0.4311750000000  0.5518790000000 1.0
C      1  0.4689200000000  0.4066000000000  0.5622490000000 1.0
C      1  0.4495970000000  0.4190490000000  0.4488470000000 1.0
C      1  0.5313020000000  0.4788740000000  0.4822070000000 1.0
C      1  0.5344140000000  0.4811190000000  0.5253510000000 1.0
C      1  0.4742770000000  0.5853840000000  0.4218940000000 1.0
C      1  0.4569710000000  0.5619850000000  0.5709840000000 1.0
C      1  0.4584200000000  0.5338810000000  0.5723570000000 1.0
C      1  0.4676510000000  0.5588880000000  0.4162490000000 1.0
C      1  0.4534520000000  0.6139320000000  0.4632860000000 1.0
C      1  0.4348960000000  0.5935360000000  0.5332400000000 1.0
C      1  0.4667730000000  0.3989990000000  0.4446970000000 1.0
C      1  0.4892830000000  0.3906010000000  0.5546490000000 1.0
C      1  0.4864240000000  0.5051200000000  0.5953550000000 1.0
C      1  0.4809630000000  0.5175690000000  0.3997070000000 1.0
C      1  0.5660460000000  0.4629150000000  0.4381890000000 1.0
C      1  0.5872700000000  0.4915690000000  0.5823370000000 1.0
C      1  0.4606520000000  0.5018740000000  0.4641140000000 1.0
C      1  0.4540990000000  0.5158430000000  0.5246840000000 1.0
C      1  0.4122430000000  0.4830100000000  0.5465170000000 1.0
C      1  0.3978220000000  0.5731650000000  0.3946960000000 1.0
C      1  0.5021650000000  0.4760710000000  0.4438620000000 1.0
C      1  0.5266200000000  0.4664620000000  0.5709280000000 1.0
C      1  0.5036470000000  0.5691500000000  0.5570200000000 1.0
C      1  0.5170370000000  0.5737450000000  0.4402680000000 1.0
C      1  0.5057140000000  0.4970320000000  0.6135800000000 1.0
C      1  0.4938450000000  0.4953870000000  0.3893980000000 1.0
C      1  0.5260250000000  0.4798010000000  0.6164820000000 1.0
C      1  0.5034290000000  0.4713550000000  0.3958350000000 1.0
C      1  0.4400260000000  0.4288150000000  0.5289480000000 1.0
C      1  0.4243370000000  0.4421130000000  0.4849460000000 1.0
C      1  0.6128210000000  0.4943080000000  0.5915070000000 1.0
C      1  0.5759540000000  0.4402500000000  0.4516870000000 1.0
C      1  0.5689110000000  0.4732970000000  0.5941370000000 1.0
C      1  0.5421280000000  0.4576400000000  0.4225590000000 1.0
C      1  0.5486930000000  0.5091420000000  0.5599280000000 1.0
C      1  0.5439190000000  0.5036340000000  0.4444080000000 1.0
C      1  0.5613760000000  0.5527310000000  0.5215560000000 1.0
C      1  0.5635090000000  0.5485650000000  0.4755900000000 1.0
C      1  0.4275340000000  0.5223190000000  0.5150020000000 1.0
C      1  0.4343170000000  0.4966410000000  0.4753550000000 1.0
C      1  0.4723110000000  0.5348720000000  0.5164380000000 1.0
C      1  0.4732580000000  0.5267660000000  0.4701400000000 1.0
C      1  0.4411880000000  0.5116890000000  0.5806290000000 1.0
C      1  0.4454750000000  0.5493180000000  0.4005330000000 1.0
C      1  0.5788130000000  0.5255580000000  0.4854440000000 1.0
C      1  0.5791270000000  0.5297600000000  0.5153620000000 1.0
C      1  0.5450640000000  0.5764600000000  0.4413780000000 1.0
C      1  0.5303640000000  0.5785930000000  0.5523850000000 1.0
C      1  0.4689380000000  0.4561570000000  0.4732610000000 1.0
C      1  0.4794750000000  0.4510130000000  0.5482820000000 1.0
C      1  0.5410540000000  0.4682280000000  0.5957300000000 1.0
C      1  0.5140320000000  0.4633870000000  0.4204130000000 1.0
C      1  0.5487240000000  0.5571710000000  0.5463190000000 1.0
C      1  0.5567870000000  0.5516240000000  0.4485510000000 1.0
C      1  0.5769950000000  0.5072570000000  0.5606580000000 1.0
C      1  0.5693820000000  0.4909580000000  0.4471470000000 1.0
C      1  0.6056760000000  0.4899320000000  0.5264340000000 1.0
C      1  0.6043740000000  0.4840990000000  0.4797970000000 1.0
C      1  0.4975770000000  0.5921380000000  0.4333520000000 1.0
C      1  0.4783520000000  0.5777760000000  0.5652710000000 1.0
C      1  0.5392810000000  0.5304190000000  0.4388160000000 1.0
C      1  0.5357210000000  0.5334670000000  0.5570860000000 1.0
C      1  0.4207240000000  0.4986080000000  0.5667140000000 1.0
C      1  0.4209130000000  0.5612770000000  0.3968520000000 1.0
C      1  0.4231110000000  0.5752260000000  0.4667970000000 1.0
C      1  0.4223720000000  0.5503460000000  0.5088460000000 1.0
C      1  0.4546810000000  0.5243550000000  0.3900780000000 1.0
C      1  0.4588590000000  0.4969090000000  0.5982410000000 1.0
C      1  0.5020520000000  0.4539260000000  0.5649940000000 1.0
C      1  0.4768320000000  0.4784050000000  0.4576170000000 1.0
C      1  0.4479370000000  0.5886420000000  0.4718440000000 1.0
C      1  0.4408430000000  0.5732710000000  0.5162800000000 1.0
C      1  0.4801080000000  0.4490390000000  0.4986880000000 1.0
C      1  0.4775150000000  0.4649450000000  0.5231250000000 1.0
C      1  0.4105800000000  0.5576410000000  0.4835550000000 1.0
C      1  0.4239620000000  0.4479220000000  0.5131370000000 1.0
C      1  0.4639090000000  0.5750580000000  0.4938980000000 1.0
C      1  0.5532900000000  0.4015880000000  0.4788890000000 1.0
C      1  0.4948970000000  0.5825090000000  0.4967030000000 1.0
C      1  0.5692590000000  0.4181740000000  0.4653160000000 1.0
C      1  0.4204830000000  0.4976650000000  0.5006690000000 1.0
C      1  0.4648080000000  0.4898290000000  0.5254310000000 1.0
C      1  0.4665230000000  0.5451670000000  0.4903190000000 1.0
C      1  0.4161310000000  0.4750620000000  0.5194240000000 1.0
C      1  0.5483200000000  0.5626680000000  0.4970160000000 1.0
C      1  0.6000150000000  0.4724560000000  0.5051170000000 1.0
C      1  0.5775200000000  0.4554220000000  0.5072010000000 1.0
C      1  0.5240260000000  0.4968310000000  0.5032610000000 1.0
C      1  0.4548590000000  0.4103730000000  0.5117950000000 1.0
C      1  0.5129360000000  0.5220800000000  0.4985660000000 1.0
C      1  0.5294910000000  0.3891670000000  0.4873910000000 1.0
C      1  0.5220260000000  0.5760020000000  0.4963210000000 1.0
C      1  0.4785460000000  0.4205660000000  0.5023850000000 1.0
C      1  0.5502650000000  0.4575950000000  0.5048560000000 1.0
END
