TITL C-3623283-6828-67 -3.41168111584848e-07 125000 -949.374731036495 0 0 157 (C1) n - 1
REM
REM in /home/nfs/bkarasulu/CARBON/AIRSS/Generating-Clusters/LCBOP/Higher-Symm/SD-CG/FIRE-CG
REM
REM
REM
REM
REM
REM ./C.cell (b20cbc046b6831c77cfcea5457e17084)
REM AIRSS Version 0.9.1 bugfix July 2018 build 013d7b7c2542+ Fri, 06 Jul 2018 19:26:36 +0100
REM compiler GCC version 9.2.1 20190827 (Red Hat 9.2.1-1)
REM options -cpp -mtune=generic -march=x86-64 -g -O0 -fpre-include=/usr/include/finclude/math-vector-fortran.h
REM seed 1664774348 236845718 2024033580 1520969838 -1229481291 49361308 1186261835 -2016995415 -471517546 -304352783 -1188104826 -1393684106 -1659260278 1933396280 -1497785212 1293699307 1851094828 -2111839900 -1241467328 -1783347461 725478760 -2058406057 1052075408 -999231155 -2003207588 486644251 -312969766 -1941091240 -1849113571 1673486008 -1755598025 -270863971 -1002051663
REM
CELL 1.54180   50.00000   50.00000   50.00000   90.00000   90.00000   90.00000
LATT -1
SFAC C  
C      1  0.6067550000000  0.5679030000000  0.5471360000000 1.0
C      1  0.5612890000000  0.5792880000000  0.5279300000000 1.0
C      1  0.4056920000000  0.4862470000000  0.5382600000000 1.0
C      1  0.5519730000000  0.4622750000000  0.4926750000000 1.0
C      1  0.4429590000000  0.5084070000000  0.6062720000000 1.0
C      1  0.4692110000000  0.4589740000000  0.5907280000000 1.0
C      1  0.4296090000000  0.4713260000000  0.4989730000000 1.0
C      1  0.5192990000000  0.4697240000000  0.5758970000000 1.0
C      1  0.4000020000000  0.5041250000000  0.5840100000000 1.0
C      1  0.5292690000000  0.4548120000000  0.5088020000000 1.0
C      1  0.5165460000000  0.4972920000000  0.5833950000000 1.0
C      1  0.5750840000000  0.4499080000000  0.4232270000000 1.0
C      1  0.5388790000000  0.5976720000000  0.5304210000000 1.0
C      1  0.4683900000000  0.4868060000000  0.5192220000000 1.0
C      1  0.5217220000000  0.5276700000000  0.4958250000000 1.0
C      1  0.5147690000000  0.4728330000000  0.4144140000000 1.0
C      1  0.4952710000000  0.4921300000000  0.5147910000000 1.0
C      1  0.4086840000000  0.4349230000000  0.5268410000000 1.0
C      1  0.6129700000000  0.5445950000000  0.5616570000000 1.0
C      1  0.4959800000000  0.6093350000000  0.5108020000000 1.0
C      1  0.5479000000000  0.3875840000000  0.5173840000000 1.0
C      1  0.4569020000000  0.5272890000000  0.4746530000000 1.0
C      1  0.5113770000000  0.4961260000000  0.4592200000000 1.0
C      1  0.5671320000000  0.4025400000000  0.4206230000000 1.0
C      1  0.3989870000000  0.5077810000000  0.5561390000000 1.0
C      1  0.5917020000000  0.5266460000000  0.5684110000000 1.0
C      1  0.5892420000000  0.4992780000000  0.4118800000000 1.0
C      1  0.4784760000000  0.4543310000000  0.5617810000000 1.0
C      1  0.4270530000000  0.4212280000000  0.5117610000000 1.0
C      1  0.4221780000000  0.5056540000000  0.4238720000000 1.0
C      1  0.5370010000000  0.4343600000000  0.3970280000000 1.0
C      1  0.5065620000000  0.5654360000000  0.6011070000000 1.0
C      1  0.4998740000000  0.5196550000000  0.6271610000000 1.0
C      1  0.5940300000000  0.4124250000000  0.4828580000000 1.0
C      1  0.3983230000000  0.4564880000000  0.4622480000000 1.0
C      1  0.3877630000000  0.4779570000000  0.4472080000000 1.0
C      1  0.5041110000000  0.6175750000000  0.4588790000000 1.0
C      1  0.6386550000000  0.5394920000000  0.5695420000000 1.0
C      1  0.4959400000000  0.5186320000000  0.5029390000000 1.0
C      1  0.4515000000000  0.4845220000000  0.3869760000000 1.0
C      1  0.5223890000000  0.5220840000000  0.4154100000000 1.0
C      1  0.4031100000000  0.4974780000000  0.6322730000000 1.0
C      1  0.4812780000000  0.4144370000000  0.3946260000000 1.0
C      1  0.4038250000000  0.5411520000000  0.5161310000000 1.0
C      1  0.5862580000000  0.3901060000000  0.4669950000000 1.0
C      1  0.5728500000000  0.3960810000000  0.5228290000000 1.0
C      1  0.4902830000000  0.4498290000000  0.4799420000000 1.0
C      1  0.4404880000000  0.4556800000000  0.5888190000000 1.0
C      1  0.5877910000000  0.4430930000000  0.5220560000000 1.0
C      1  0.4417810000000  0.5253120000000  0.4286560000000 1.0
C      1  0.5598840000000  0.5456120000000  0.6010070000000 1.0
C      1  0.4735730000000  0.5947080000000  0.5008320000000 1.0
C      1  0.5149650000000  0.3879910000000  0.4806010000000 1.0
C      1  0.5935050000000  0.5242140000000  0.4245920000000 1.0
C      1  0.5271250000000  0.3998990000000  0.5028750000000 1.0
C      1  0.4038520000000  0.4762770000000  0.3896030000000 1.0
C      1  0.4035000000000  0.5169800000000  0.4702960000000 1.0
C      1  0.4504980000000  0.6096370000000  0.5029340000000 1.0
C      1  0.5124430000000  0.4714350000000  0.5256930000000 1.0
C      1  0.4023950000000  0.5024570000000  0.4453020000000 1.0
C      1  0.4915050000000  0.4756510000000  0.4660250000000 1.0
C      1  0.4875100000000  0.4415100000000  0.3892360000000 1.0
C      1  0.5238880000000  0.6057770000000  0.5056200000000 1.0
C      1  0.5956250000000  0.4987650000000  0.5689990000000 1.0
C      1  0.5555310000000  0.4636020000000  0.4639980000000 1.0
C      1  0.4191730000000  0.5659490000000  0.5118840000000 1.0
C      1  0.5026470000000  0.3844930000000  0.4572040000000 1.0
C      1  0.4663850000000  0.5266720000000  0.5438310000000 1.0
C      1  0.5232810000000  0.4271400000000  0.5085930000000 1.0
C      1  0.4911790000000  0.4931380000000  0.6255340000000 1.0
C      1  0.5129500000000  0.5185240000000  0.3888220000000 1.0
C      1  0.4092260000000  0.4578350000000  0.5449320000000 1.0
C      1  0.4077230000000  0.5189230000000  0.4984550000000 1.0
C      1  0.5972690000000  0.4726740000000  0.5634820000000 1.0
C      1  0.5534980000000  0.5460680000000  0.6493940000000 1.0
C      1  0.5381290000000  0.5055600000000  0.5978740000000 1.0
C      1  0.5311140000000  0.5141950000000  0.4734180000000 1.0
C      1  0.5285560000000  0.5493720000000  0.5117340000000 1.0
C      1  0.5234330000000  0.6021320000000  0.4757720000000 1.0
C      1  0.4541000000000  0.3866600000000  0.4929830000000 1.0
C      1  0.4411360000000  0.4400000000000  0.4336900000000 1.0
C      1  0.4906180000000  0.5917220000000  0.4187430000000 1.0
C      1  0.5208290000000  0.5754720000000  0.4645450000000 1.0
C      1  0.5660450000000  0.5377550000000  0.5743450000000 1.0
C      1  0.5133940000000  0.4499980000000  0.3982850000000 1.0
C      1  0.4534830000000  0.4630010000000  0.5192290000000 1.0
C      1  0.4264610000000  0.5486310000000  0.5568000000000 1.0
C      1  0.5918490000000  0.4882830000000  0.5008500000000 1.0
C      1  0.5881370000000  0.4165000000000  0.5107430000000 1.0
C      1  0.4617790000000  0.5180690000000  0.5878190000000 1.0
C      1  0.4802330000000  0.5536590000000  0.4434880000000 1.0
C      1  0.4491590000000  0.5339740000000  0.5662930000000 1.0
C      1  0.5149350000000  0.5705910000000  0.5739870000000 1.0
C      1  0.4848690000000  0.5727020000000  0.5371880000000 1.0
C      1  0.5362340000000  0.5632770000000  0.4439620000000 1.0
C      1  0.5765240000000  0.4471300000000  0.4519630000000 1.0
C      1  0.5182940000000  0.5446760000000  0.5604590000000 1.0
C      1  0.5599180000000  0.5116050000000  0.4613750000000 1.0
C      1  0.4422350000000  0.4695710000000  0.4710050000000 1.0
C      1  0.4873410000000  0.3880580000000  0.4356450000000 1.0
C      1  0.5612250000000  0.4284160000000  0.4104240000000 1.0
C      1  0.4553870000000  0.4508030000000  0.5448790000000 1.0
C      1  0.5758170000000  0.3886580000000  0.4420430000000 1.0
C      1  0.5967620000000  0.4354770000000  0.4669870000000 1.0
C      1  0.5515050000000  0.5521810000000  0.5278800000000 1.0
C      1  0.5048850000000  0.4622040000000  0.5527650000000 1.0
C      1  0.4213020000000  0.4971460000000  0.5137370000000 1.0
C      1  0.4253700000000  0.4503560000000  0.4547860000000 1.0
C      1  0.5535580000000  0.4873600000000  0.4425350000000 1.0
C      1  0.4315690000000  0.4529520000000  0.5619370000000 1.0
C      1  0.4554660000000  0.6031090000000  0.4512970000000 1.0
C      1  0.4709040000000  0.4021410000000  0.4178140000000 1.0
C      1  0.5431880000000  0.5452050000000  0.6241040000000 1.0
C      1  0.5723130000000  0.4786040000000  0.4202450000000 1.0
C      1  0.4593630000000  0.5353920000000  0.4475990000000 1.0
C      1  0.4653410000000  0.4765160000000  0.4546450000000 1.0
C      1  0.4011430000000  0.4603530000000  0.4909940000000 1.0
C      1  0.6179660000000  0.4925580000000  0.5094350000000 1.0
C      1  0.5740530000000  0.5321220000000  0.4440410000000 1.0
C      1  0.4728040000000  0.4308480000000  0.4893700000000 1.0
C      1  0.4782360000000  0.5668860000000  0.4904440000000 1.0
C      1  0.4151700000000  0.5032810000000  0.6078380000000 1.0
C      1  0.5463630000000  0.5406690000000  0.5537540000000 1.0
C      1  0.5250350000000  0.4947670000000  0.4316220000000 1.0
C      1  0.4334580000000  0.5699420000000  0.5377840000000 1.0
C      1  0.5770580000000  0.4646490000000  0.5065980000000 1.0
C      1  0.4041540000000  0.5338380000000  0.5452110000000 1.0
C      1  0.6152510000000  0.5396880000000  0.4188640000000 1.0
C      1  0.4355310000000  0.5899560000000  0.4647600000000 1.0
C      1  0.4899960000000  0.5165870000000  0.3753430000000 1.0
C      1  0.4908180000000  0.5111530000000  0.5797990000000 1.0
C      1  0.4824200000000  0.6080310000000  0.4415160000000 1.0
C      1  0.5882290000000  0.5824780000000  0.5344620000000 1.0
C      1  0.4740740000000  0.5373980000000  0.4950760000000 1.0
C      1  0.4233050000000  0.5775790000000  0.4859700000000 1.0
C      1  0.4936710000000  0.5657350000000  0.4663390000000 1.0
C      1  0.4467440000000  0.4136450000000  0.4268190000000 1.0
C      1  0.6431630000000  0.4960200000000  0.5151190000000 1.0
C      1  0.5134740000000  0.4563360000000  0.6009440000000 1.0
C      1  0.4530660000000  0.5085760000000  0.5263000000000 1.0
C      1  0.5956810000000  0.4508370000000  0.5479740000000 1.0
C      1  0.5633850000000  0.5579310000000  0.4451650000000 1.0
C      1  0.4946710000000  0.5634030000000  0.4207000000000 1.0
C      1  0.4594220000000  0.5797630000000  0.5417740000000 1.0
C      1  0.4259750000000  0.4885760000000  0.4005070000000 1.0
C      1  0.5206470000000  0.5500060000000  0.4236780000000 1.0
C      1  0.4884100000000  0.4672560000000  0.6114120000000 1.0
C      1  0.4616660000000  0.4603780000000  0.4310300000000 1.0
C      1  0.5060070000000  0.5633100000000  0.5231500000000 1.0
C      1  0.5792880000000  0.5061430000000  0.4834000000000 1.0
C      1  0.4652090000000  0.5067720000000  0.3764450000000 1.0
C      1  0.4943830000000  0.5282790000000  0.5559350000000 1.0
C      1  0.5145280000000  0.5442430000000  0.6194440000000 1.0
C      1  0.5249930000000  0.5932230000000  0.5572340000000 1.0
C      1  0.3920950000000  0.4916650000000  0.6551650000000 1.0
C      1  0.4512810000000  0.4136070000000  0.4981000000000 1.0
C      1  0.4661720000000  0.4599710000000  0.3841890000000 1.0
END
