TITL C-3623284-6838-756 328.589943265362 125000 -911.18596077581 0 0 149 (C1) n - 1
REM
REM in /home/nfs/bkarasulu/CARBON/AIRSS/Generating-Clusters/LCBOP/Higher-Symm/SD-CG/FIRE-CG
REM
REM
REM
REM
REM
REM ./C.cell (b20cbc046b6831c77cfcea5457e17084)
REM AIRSS Version 0.9.1 bugfix July 2018 build 013d7b7c2542+ Fri, 06 Jul 2018 19:26:36 +0100
REM compiler GCC version 9.2.1 20190827 (Red Hat 9.2.1-1)
REM options -cpp -mtune=generic -march=x86-64 -g -O0 -fpre-include=/usr/include/finclude/math-vector-fortran.h
REM seed -2092759229 1370119173 1236558410 1970043369 665559944 1057793341 -950547491 1501786350 45343329 1197269923 573196688 -286572398 -109970177 205033173 -1594875724 1215058948 -207187334 -311625479 1887570248 1454449936 -2119194961 -2129109642 -1426486583 117728400 -1289937191 645573887 934917061 1859117527 1416787250 -822995473 -997721837 -573210742 1963342996
REM
CELL 1.54180   50.00000   50.00000   50.00000   90.00000   90.00000   90.00000
LATT -1
SFAC C  
C      1  0.5116450000000  0.4343190000000  0.4118640000000 1.0
C      1  0.4325390000000  0.5181120000000  0.4134470000000 1.0
C      1  0.5585330000000  0.5531280000000  0.3959060000000 1.0
C      1  0.4498000000000  0.4542340000000  0.5605260000000 1.0
C      1  0.4890700000000  0.5731500000000  0.5586260000000 1.0
C      1  0.5647890000000  0.4764520000000  0.5644360000000 1.0
C      1  0.4026220000000  0.4464090000000  0.5361210000000 1.0
C      1  0.5075570000000  0.6144780000000  0.5315310000000 1.0
C      1  0.5934350000000  0.4411400000000  0.5385330000000 1.0
C      1  0.5711950000000  0.4491510000000  0.4174480000000 1.0
C      1  0.4218550000000  0.4582060000000  0.4176910000000 1.0
C      1  0.5019830000000  0.5676830000000  0.4207710000000 1.0
C      1  0.4784920000000  0.5512480000000  0.4931440000000 1.0
C      1  0.5618220000000  0.4923580000000  0.4994030000000 1.0
C      1  0.4689860000000  0.4564910000000  0.4915850000000 1.0
C      1  0.4966130000000  0.4639720000000  0.4917550000000 1.0
C      1  0.4734560000000  0.5054750000000  0.4891530000000 1.0
C      1  0.5205140000000  0.5075300000000  0.4833010000000 1.0
C      1  0.5226240000000  0.5093270000000  0.6126650000000 1.0
C      1  0.4785950000000  0.4708290000000  0.6250450000000 1.0
C      1  0.4979440000000  0.5255430000000  0.6105450000000 1.0
C      1  0.4993220000000  0.5021000000000  0.3780820000000 1.0
C      1  0.5268620000000  0.4950740000000  0.3767740000000 1.0
C      1  0.4801020000000  0.4815690000000  0.3731520000000 1.0
C      1  0.4563810000000  0.5210320000000  0.4300150000000 1.0
C      1  0.5444710000000  0.5080990000000  0.4403510000000 1.0
C      1  0.4953880000000  0.4526330000000  0.4294360000000 1.0
C      1  0.4242940000000  0.5306010000000  0.5643550000000 1.0
C      1  0.5709490000000  0.5534390000000  0.5584150000000 1.0
C      1  0.5142570000000  0.4182080000000  0.5684490000000 1.0
C      1  0.5830520000000  0.5329600000000  0.5753350000000 1.0
C      1  0.4904590000000  0.4124950000000  0.5832150000000 1.0
C      1  0.4344350000000  0.5526800000000  0.5802030000000 1.0
C      1  0.4813260000000  0.5244290000000  0.5341190000000 1.0
C      1  0.5330040000000  0.5103380000000  0.5344010000000 1.0
C      1  0.4931650000000  0.4772270000000  0.5422620000000 1.0
C      1  0.5751860000000  0.5570100000000  0.4164000000000 1.0
C      1  0.5175780000000  0.4083640000000  0.4219580000000 1.0
C      1  0.4084970000000  0.5296220000000  0.4227330000000 1.0
C      1  0.3958110000000  0.4920120000000  0.4781310000000 1.0
C      1  0.5454500000000  0.5932350000000  0.4709420000000 1.0
C      1  0.5572820000000  0.4130800000000  0.4789390000000 1.0
C      1  0.5303660000000  0.4416020000000  0.3922740000000 1.0
C      1  0.4297150000000  0.4983130000000  0.3942900000000 1.0
C      1  0.5328270000000  0.5490450000000  0.3898930000000 1.0
C      1  0.5485590000000  0.4844490000000  0.5425610000000 1.0
C      1  0.4666130000000  0.4655670000000  0.5396590000000 1.0
C      1  0.4904270000000  0.5534050000000  0.5381490000000 1.0
C      1  0.4405170000000  0.3989330000000  0.4697230000000 1.0
C      1  0.4275620000000  0.6010230000000  0.4835360000000 1.0
C      1  0.6168200000000  0.5437390000000  0.4927720000000 1.0
C      1  0.4801550000000  0.4371600000000  0.4496520000000 1.0
C      1  0.4540640000000  0.5418530000000  0.4501320000000 1.0
C      1  0.5677890000000  0.5119290000000  0.4552370000000 1.0
C      1  0.4877870000000  0.4092900000000  0.4560300000000 1.0
C      1  0.4280840000000  0.5516380000000  0.4584200000000 1.0
C      1  0.5792640000000  0.5372320000000  0.4612230000000 1.0
C      1  0.5311700000000  0.5340860000000  0.5516960000000 1.0
C      1  0.5123670000000  0.4628710000000  0.5559400000000 1.0
C      1  0.4633720000000  0.5119860000000  0.5536460000000 1.0
C      1  0.4845430000000  0.5645940000000  0.5852810000000 1.0
C      1  0.5592910000000  0.4885850000000  0.5893980000000 1.0
C      1  0.4581460000000  0.4532440000000  0.5876630000000 1.0
C      1  0.5706840000000  0.5392520000000  0.5101610000000 1.0
C      1  0.5031070000000  0.4239160000000  0.5210060000000 1.0
C      1  0.4372460000000  0.5341970000000  0.5167690000000 1.0
C      1  0.5870250000000  0.4296890000000  0.5136060000000 1.0
C      1  0.3923920000000  0.4586760000000  0.5128460000000 1.0
C      1  0.5204280000000  0.6140420000000  0.5064780000000 1.0
C      1  0.4168200000000  0.5285740000000  0.5363100000000 1.0
C      1  0.5723640000000  0.5600920000000  0.5302580000000 1.0
C      1  0.5192850000000  0.4108690000000  0.5410520000000 1.0
C      1  0.5680580000000  0.5161630000000  0.5935950000000 1.0
C      1  0.4782790000000  0.4339790000000  0.5973870000000 1.0
C      1  0.4598950000000  0.5515390000000  0.5937050000000 1.0
C      1  0.4651540000000  0.5278490000000  0.5071010000000 1.0
C      1  0.5512650000000  0.5175420000000  0.5100590000000 1.0
C      1  0.5135100000000  0.4453200000000  0.5047340000000 1.0
C      1  0.4686920000000  0.5256390000000  0.6068400000000 1.0
C      1  0.5455950000000  0.5288440000000  0.6075430000000 1.0
C      1  0.4964100000000  0.4505400000000  0.6149800000000 1.0
C      1  0.5667270000000  0.5830580000000  0.4563980000000 1.0
C      1  0.5356580000000  0.4006360000000  0.4663990000000 1.0
C      1  0.3938610000000  0.5173710000000  0.4668340000000 1.0
C      1  0.4324930000000  0.4819500000000  0.5089920000000 1.0
C      1  0.5231480000000  0.5675030000000  0.5040860000000 1.0
C      1  0.5416310000000  0.4480860000000  0.5078810000000 1.0
C      1  0.5083150000000  0.5877950000000  0.4376980000000 1.0
C      1  0.5794850000000  0.4365930000000  0.4397650000000 1.0
C      1  0.4056750000000  0.4599770000000  0.4393920000000 1.0
C      1  0.5732800000000  0.4917610000000  0.4741520000000 1.0
C      1  0.4594090000000  0.4448910000000  0.4679810000000 1.0
C      1  0.4751850000000  0.5519200000000  0.4655250000000 1.0
C      1  0.5281570000000  0.4917800000000  0.4246770000000 1.0
C      1  0.4995790000000  0.4834670000000  0.4286460000000 1.0
C      1  0.4812910000000  0.5077300000000  0.4223750000000 1.0
C      1  0.5337860000000  0.4833030000000  0.6039550000000 1.0
C      1  0.4579120000000  0.4768090000000  0.6056900000000 1.0
C      1  0.5064060000000  0.5525140000000  0.5995340000000 1.0
C      1  0.4373940000000  0.4270580000000  0.4696180000000 1.0
C      1  0.4291380000000  0.6234660000000  0.4679770000000 1.0
C      1  0.6290430000000  0.5679450000000  0.4892570000000 1.0
C      1  0.5139200000000  0.4018500000000  0.4488940000000 1.0
C      1  0.4061600000000  0.5358690000000  0.4499840000000 1.0
C      1  0.5761480000000  0.5596460000000  0.4442490000000 1.0
C      1  0.4547240000000  0.4661660000000  0.5136730000000 1.0
C      1  0.4972970000000  0.5615620000000  0.5112600000000 1.0
C      1  0.5535990000000  0.4716990000000  0.5166150000000 1.0
C      1  0.5208650000000  0.4576010000000  0.6016240000000 1.0
C      1  0.4526580000000  0.5033120000000  0.5980460000000 1.0
C      1  0.5345940000000  0.5524720000000  0.5946030000000 1.0
C      1  0.4363650000000  0.4710760000000  0.3968080000000 1.0
C      1  0.5075120000000  0.5465820000000  0.4023250000000 1.0
C      1  0.5517850000000  0.4587820000000  0.3992780000000 1.0
C      1  0.5403380000000  0.4847610000000  0.3994810000000 1.0
C      1  0.4602470000000  0.4656090000000  0.3825690000000 1.0
C      1  0.4935910000000  0.5214040000000  0.3991300000000 1.0
C      1  0.5202140000000  0.6021420000000  0.4588960000000 1.0
C      1  0.5803620000000  0.4253620000000  0.4655170000000 1.0
C      1  0.3940420000000  0.4661260000000  0.4644390000000 1.0
C      1  0.6313620000000  0.5214210000000  0.5012690000000 1.0
C      1  0.4200240000000  0.3810030000000  0.4747300000000 1.0
C      1  0.4289050000000  0.6030320000000  0.5113880000000 1.0
C      1  0.4963180000000  0.5994010000000  0.5508090000000 1.0
C      1  0.5847050000000  0.4573390000000  0.5582320000000 1.0
C      1  0.4236910000000  0.4459210000000  0.5528840000000 1.0
C      1  0.4424750000000  0.5089870000000  0.5720550000000 1.0
C      1  0.5432870000000  0.5537600000000  0.5677120000000 1.0
C      1  0.5219430000000  0.4453790000000  0.5753120000000 1.0
C      1  0.5987960000000  0.4310780000000  0.4871610000000 1.0
C      1  0.3870000000000  0.4480930000000  0.4862350000000 1.0
C      1  0.5089340000000  0.6187320000000  0.4799110000000 1.0
C      1  0.5574770000000  0.4221050000000  0.5088520000000 1.0
C      1  0.4031640000000  0.4874860000000  0.5076890000000 1.0
C      1  0.5414270000000  0.5912580000000  0.5015490000000 1.0
C      1  0.4293190000000  0.6157560000000  0.5623230000000 1.0
C      1  0.6502980000000  0.4751700000000  0.5175290000000 1.0
C      1  0.3791490000000  0.3497470000000  0.4854600000000 1.0
C      1  0.5450800000000  0.4047530000000  0.5300580000000 1.0
C      1  0.3974230000000  0.5098460000000  0.5266360000000 1.0
C      1  0.5642520000000  0.5857590000000  0.5199550000000 1.0
C      1  0.4293250000000  0.6082320000000  0.5373620000000 1.0
C      1  0.6412730000000  0.4982900000000  0.5095570000000 1.0
C      1  0.3994940000000  0.3651350000000  0.4800820000000 1.0
C      1  0.4672900000000  0.3916500000000  0.4641740000000 1.0
C      1  0.4248170000000  0.5758510000000  0.4717150000000 1.0
C      1  0.5890040000000  0.5407870000000  0.4879920000000 1.0
C      1  0.5028630000000  0.5029830000000  0.5328990000000 1.0
C      1  0.4983710000000  0.4918480000000  0.4859210000000 1.0
END
