TITL C-3623289-7120-1711 -1.93629168824857e-05 125000 -72.4487698346121 0 0 14 (C2) n - 1
REM
REM in /home/nfs/bkarasulu/CARBON/AIRSS/Generating-Clusters/LCBOP/Higher-Symm/SD-CG/FIRE-CG
REM
REM
REM
REM
REM
REM ./C.cell (b20cbc046b6831c77cfcea5457e17084)
REM AIRSS Version 0.9.1 bugfix July 2018 build 013d7b7c2542+ Fri, 06 Jul 2018 19:26:36 +0100
REM compiler GCC version 9.2.1 20190827 (Red Hat 9.2.1-1)
REM options -cpp -mtune=generic -march=x86-64 -g -O0 -fpre-include=/usr/include/finclude/math-vector-fortran.h
REM seed -637909514 -58994541 -1783571747 -2075293312 -390687165 821856556 14749561 -36986473 48452882 -22964609 -914131123 1238424901 752221757 -1272315727 908912729 -255289019 544620393 1922157384 -352329390 1897178145 898845436 1691185820 975453541 -1149974265 -1388444964 -1048600352 1513419095 -1116162005 -1386703297 -1195631505 -800163123 2013449329 -1491154238
REM
CELL 1.54180   50.00000   50.00000   50.00000   90.00000   90.00000   90.00000
LATT -1
SFAC C  
C      1  0.5258960000000  0.4517950000000  0.5113100000000 1.0
C      1  0.4999760000000  0.4780810000000  0.5562460000000 1.0
C      1  0.4740830000000  0.5278480000000  0.5409270000000 1.0
C      1  0.5262830000000  0.5469550000000  0.5097830000000 1.0
C      1  0.4854470000000  0.5428110000000  0.4629530000000 1.0
C      1  0.5145910000000  0.4935420000000  0.4437640000000 1.0
C      1  0.4737230000000  0.4588150000000  0.4754120000000 1.0
C      1  0.4938820000000  0.4753360000000  0.4837010000000 1.0
C      1  0.5067690000000  0.4712170000000  0.5087400000000 1.0
C      1  0.4999870000000  0.4880280000000  0.5307210000000 1.0
C      1  0.4932170000000  0.5152810000000  0.5259060000000 1.0
C      1  0.5061230000000  0.5291870000000  0.5046920000000 1.0
C      1  0.4978580000000  0.5236560000000  0.4780290000000 1.0
C      1  0.5021650000000  0.4974480000000  0.4678170000000 1.0
END
