TITL C-3623282-6910-1522 104764.724278031 125000 -741.313128068463 0 0 126 (C1) n - 1
REM
REM in /home/nfs/bkarasulu/CARBON/AIRSS/Generating-Clusters/LCBOP/Higher-Symm/SD-CG/FIRE-CG
REM
REM
REM
REM
REM
REM ./C.cell (b20cbc046b6831c77cfcea5457e17084)
REM AIRSS Version 0.9.1 bugfix July 2018 build 013d7b7c2542+ Fri, 06 Jul 2018 19:26:36 +0100
REM compiler GCC version 9.2.1 20190827 (Red Hat 9.2.1-1)
REM options -cpp -mtune=generic -march=x86-64 -g -O0 -fpre-include=/usr/include/finclude/math-vector-fortran.h
REM seed -621172399 998465269 -723152137 -234921694 -825782096 1598674077 -755427851 -1296235891 -336404550 -521394501 -1276559870 1163254883 -1977723321 1867820822 -1208093096 -1930693580 -346523761 -684446542 409431615 -1992850460 -788291658 1010139283 -614750111 654314743 729512036 -1328713892 -140173522 -70127919 -13431169 -1962271748 1213553340 -1093672064 2020308038
REM
CELL 1.54180   50.00000   50.00000   50.00000   90.00000   90.00000   90.00000
LATT -1
SFAC C  
C      1  0.4760900000000  0.5506050000000  0.4191080000000 1.0
C      1  0.5509970000000  0.4892000000000  0.4203650000000 1.0
C      1  0.4680590000000  0.4544730000000  0.4212170000000 1.0
C      1  0.4364240000000  0.5490150000000  0.4982610000000 1.0
C      1  0.5765420000000  0.5312150000000  0.4972400000000 1.0
C      1  0.4944880000000  0.4257690000000  0.4932820000000 1.0
C      1  0.5070000000000  0.5195410000000  0.5703640000000 1.0
C      1  0.4920530000000  0.4645210000000  0.5858390000000 1.0
C      1  0.4819990000000  0.5079190000000  0.5798040000000 1.0
C      1  0.5480640000000  0.4498230000000  0.5634800000000 1.0
C      1  0.4243430000000  0.4903490000000  0.5682940000000 1.0
C      1  0.5190250000000  0.5643420000000  0.5542240000000 1.0
C      1  0.5103720000000  0.5536440000000  0.5064140000000 1.0
C      1  0.5422340000000  0.4700010000000  0.5187500000000 1.0
C      1  0.4492670000000  0.4800230000000  0.5225950000000 1.0
C      1  0.5553790000000  0.5586360000000  0.5265820000000 1.0
C      1  0.5245510000000  0.4284800000000  0.5281590000000 1.0
C      1  0.4155140000000  0.5166840000000  0.5245500000000 1.0
C      1  0.4440190000000  0.4772580000000  0.5847150000000 1.0
C      1  0.4986310000000  0.5450920000000  0.5574890000000 1.0
C      1  0.5385490000000  0.4766730000000  0.5756620000000 1.0
C      1  0.5782740000000  0.4610460000000  0.4886610000000 1.0
C      1  0.4311370000000  0.4535980000000  0.4886150000000 1.0
C      1  0.4987910000000  0.5927090000000  0.4843920000000 1.0
C      1  0.5256810000000  0.4608010000000  0.4931910000000 1.0
C      1  0.4630670000000  0.4973300000000  0.4948660000000 1.0
C      1  0.5108350000000  0.5525230000000  0.4736270000000 1.0
C      1  0.5602570000000  0.5566060000000  0.4965840000000 1.0
C      1  0.5236940000000  0.4299490000000  0.4980950000000 1.0
C      1  0.4219060000000  0.5219830000000  0.4959690000000 1.0
C      1  0.5338510000000  0.4246330000000  0.4537610000000 1.0
C      1  0.4186390000000  0.5056050000000  0.4492700000000 1.0
C      1  0.5503020000000  0.5677800000000  0.4508000000000 1.0
C      1  0.5675560000000  0.4841700000000  0.5146470000000 1.0
C      1  0.4519400000000  0.4513590000000  0.5123040000000 1.0
C      1  0.4825790000000  0.5698960000000  0.5110660000000 1.0
C      1  0.5238940000000  0.5375740000000  0.4240110000000 1.0
C      1  0.5152590000000  0.4552050000000  0.4160470000000 1.0
C      1  0.4533680000000  0.5017410000000  0.4180830000000 1.0
C      1  0.4497930000000  0.5325240000000  0.4213820000000 1.0
C      1  0.5501550000000  0.5244270000000  0.4245340000000 1.0
C      1  0.4935820000000  0.4382060000000  0.4190360000000 1.0
C      1  0.4145010000000  0.5627430000000  0.5141740000000 1.0
C      1  0.6003910000000  0.5436630000000  0.5123210000000 1.0
C      1  0.4899650000000  0.4002770000000  0.5089070000000 1.0
C      1  0.5297120000000  0.5110750000000  0.4956400000000 1.0
C      1  0.4990920000000  0.4718240000000  0.4925480000000 1.0
C      1  0.4776490000000  0.5228030000000  0.4969610000000 1.0
C      1  0.4886600000000  0.5194720000000  0.4479160000000 1.0
C      1  0.5178410000000  0.4829360000000  0.4563810000000 1.0
C      1  0.4901440000000  0.4910540000000  0.4500090000000 1.0
C      1  0.4872800000000  0.4529230000000  0.5588770000000 1.0
C      1  0.4660370000000  0.5364200000000  0.5444430000000 1.0
C      1  0.5288710000000  0.5003660000000  0.5563100000000 1.0
C      1  0.5183360000000  0.4708950000000  0.5961600000000 1.0
C      1  0.4715580000000  0.4835790000000  0.5919980000000 1.0
C      1  0.5239740000000  0.4723590000000  0.6228570000000 1.0
C      1  0.5027860000000  0.4071630000000  0.5344800000000 1.0
C      1  0.4158990000000  0.5447100000000  0.5370330000000 1.0
C      1  0.5856470000000  0.5546000000000  0.5359090000000 1.0
C      1  0.3943590000000  0.5652990000000  0.4684370000000 1.0
C      1  0.6127120000000  0.5543180000000  0.4648590000000 1.0
C      1  0.4896590000000  0.3749820000000  0.4658190000000 1.0
C      1  0.4857250000000  0.3780360000000  0.4923440000000 1.0
C      1  0.3940710000000  0.5707500000000  0.4956360000000 1.0
C      1  0.6179220000000  0.5542970000000  0.4920470000000 1.0
C      1  0.5280460000000  0.5691720000000  0.5257850000000 1.0
C      1  0.5503160000000  0.4433770000000  0.5322390000000 1.0
C      1  0.4227060000000  0.4896140000000  0.5302270000000 1.0
C      1  0.4180600000000  0.5558900000000  0.4550430000000 1.0
C      1  0.5912550000000  0.5396830000000  0.4527900000000 1.0
C      1  0.4990260000000  0.3883040000000  0.4444270000000 1.0
C      1  0.4637000000000  0.5444090000000  0.5132320000000 1.0
C      1  0.5563130000000  0.5119290000000  0.5109370000000 1.0
C      1  0.4842260000000  0.4509350000000  0.5100380000000 1.0
C      1  0.4455780000000  0.4293120000000  0.5323080000000 1.0
C      1  0.4697950000000  0.5873330000000  0.5320180000000 1.0
C      1  0.5864890000000  0.4896480000000  0.5381130000000 1.0
C      1  0.5591200000000  0.4659770000000  0.4390930000000 1.0
C      1  0.4392710000000  0.4572560000000  0.4340050000000 1.0
C      1  0.4941740000000  0.5764290000000  0.4343160000000 1.0
C      1  0.5494630000000  0.5761810000000  0.4790010000000 1.0
C      1  0.5470010000000  0.4222010000000  0.4815470000000 1.0
C      1  0.4156130000000  0.5010290000000  0.4779500000000 1.0
C      1  0.4876090000000  0.4200960000000  0.5600100000000 1.0
C      1  0.4404260000000  0.5516620000000  0.5555680000000 1.0
C      1  0.5842460000000  0.5385490000000  0.5603860000000 1.0
C      1  0.5902490000000  0.5104840000000  0.5558790000000 1.0
C      1  0.4583470000000  0.4155800000000  0.5523170000000 1.0
C      1  0.4504620000000  0.5801990000000  0.5507830000000 1.0
C      1  0.5298130000000  0.4763370000000  0.4049570000000 1.0
C      1  0.4759380000000  0.4834930000000  0.4237570000000 1.0
C      1  0.4967800000000  0.5298760000000  0.4226690000000 1.0
C      1  0.5642730000000  0.4997140000000  0.4658060000000 1.0
C      1  0.4698080000000  0.4534420000000  0.4651320000000 1.0
C      1  0.4662200000000  0.5627330000000  0.4657060000000 1.0
C      1  0.5253790000000  0.4555400000000  0.4521380000000 1.0
C      1  0.4306250000000  0.4858910000000  0.4310330000000 1.0
C      1  0.5214250000000  0.5615530000000  0.4440010000000 1.0
C      1  0.5066130000000  0.5233710000000  0.5082230000000 1.0
C      1  0.5192290000000  0.4809950000000  0.5344860000000 1.0
C      1  0.4668230000000  0.4830990000000  0.5448600000000 1.0
C      1  0.4141170000000  0.4764160000000  0.4927620000000 1.0
C      1  0.5272230000000  0.5907060000000  0.4917140000000 1.0
C      1  0.5677510000000  0.4359780000000  0.4979140000000 1.0
C      1  0.4830010000000  0.5378080000000  0.4698990000000 1.0
C      1  0.5355580000000  0.5010820000000  0.4696810000000 1.0
C      1  0.4767490000000  0.4804610000000  0.4748290000000 1.0
C      1  0.5819090000000  0.5200850000000  0.4710870000000 1.0
C      1  0.4924650000000  0.4382690000000  0.4659990000000 1.0
C      1  0.4399490000000  0.5612030000000  0.4722090000000 1.0
C      1  0.5112160000000  0.4122940000000  0.4368860000000 1.0
C      1  0.4247040000000  0.5332870000000  0.4387330000000 1.0
C      1  0.5674800000000  0.5465630000000  0.4378510000000 1.0
C      1  0.5017010000000  0.4559010000000  0.5350200000000 1.0
C      1  0.4672580000000  0.5083540000000  0.5547920000000 1.0
C      1  0.5464930000000  0.5237200000000  0.5364570000000 1.0
C      1  0.4833330000000  0.5852610000000  0.4605340000000 1.0
C      1  0.5730970000000  0.4726450000000  0.4630560000000 1.0
C      1  0.4420340000000  0.4490680000000  0.4620010000000 1.0
C      1  0.4169550000000  0.5151980000000  0.5794640000000 1.0
C      1  0.5406260000000  0.5628160000000  0.5736510000000 1.0
C      1  0.5360150000000  0.4270760000000  0.5782030000000 1.0
C      1  0.5106320000000  0.4163510000000  0.5804340000000 1.0
C      1  0.4301540000000  0.5392130000000  0.5807190000000 1.0
C      1  0.5642100000000  0.5494730000000  0.5779240000000 1.0
END
