TITL C-3623283-6828-852 2465.18481994724 125000 -318.546863906777 0 0 54 (C1) n - 1
REM
REM in /home/nfs/bkarasulu/CARBON/AIRSS/Generating-Clusters/LCBOP/Higher-Symm/SD-CG/FIRE-CG
REM
REM
REM
REM
REM
REM ./C.cell (b20cbc046b6831c77cfcea5457e17084)
REM AIRSS Version 0.9.1 bugfix July 2018 build 013d7b7c2542+ Fri, 06 Jul 2018 19:26:36 +0100
REM compiler GCC version 9.2.1 20190827 (Red Hat 9.2.1-1)
REM options -cpp -mtune=generic -march=x86-64 -g -O0 -fpre-include=/usr/include/finclude/math-vector-fortran.h
REM seed 1346706537 -1648090054 -152102990 210969237 -644905490 1157709972 -194733869 836247068 1668797085 291002829 1806351247 -1158199964 460745088 -562628748 218238365 1915785354 -302519077 -1802025768 516889504 -257655843 -70943673 -1973593087 -607828904 1922962534 1212802934 206174470 -429463774 2146689415 -1919755205 -958822415 -2044421159 -1225629429 -870263944
REM
CELL 1.54180   50.00000   50.00000   50.00000   90.00000   90.00000   90.00000
LATT -1
SFAC C  
C      1  0.4784470000000  0.5282550000000  0.5622670000000 1.0
C      1  0.4514690000000  0.5143570000000  0.5601960000000 1.0
C      1  0.4646520000000  0.4808310000000  0.5654010000000 1.0
C      1  0.5473410000000  0.4749260000000  0.5616870000000 1.0
C      1  0.5537770000000  0.5018960000000  0.5615240000000 1.0
C      1  0.5239820000000  0.5049150000000  0.4344450000000 1.0
C      1  0.5029050000000  0.5253660000000  0.4367090000000 1.0
C      1  0.4770890000000  0.5114390000000  0.4361840000000 1.0
C      1  0.4817250000000  0.4824520000000  0.4367570000000 1.0
C      1  0.5107960000000  0.4774510000000  0.4365140000000 1.0
C      1  0.5145840000000  0.5145370000000  0.5172990000000 1.0
C      1  0.4850980000000  0.5212930000000  0.5088510000000 1.0
C      1  0.4729530000000  0.4946360000000  0.5111460000000 1.0
C      1  0.4924700000000  0.4778150000000  0.5245520000000 1.0
C      1  0.5392700000000  0.4757800000000  0.4935250000000 1.0
C      1  0.4458750000000  0.4896640000000  0.5208180000000 1.0
C      1  0.4911630000000  0.4522660000000  0.5367780000000 1.0
C      1  0.5557790000000  0.4750530000000  0.5161370000000 1.0
C      1  0.5320530000000  0.5350760000000  0.5303270000000 1.0
C      1  0.4695790000000  0.5430780000000  0.5199050000000 1.0
C      1  0.4466570000000  0.4601440000000  0.5222460000000 1.0
C      1  0.5180750000000  0.4422580000000  0.5288200000000 1.0
C      1  0.5663710000000  0.5031830000000  0.5154320000000 1.0
C      1  0.5131600000000  0.5574100000000  0.5287060000000 1.0
C      1  0.4420040000000  0.5354500000000  0.5164360000000 1.0
C      1  0.5489410000000  0.5106120000000  0.4472950000000 1.0
C      1  0.5072740000000  0.5469240000000  0.4548090000000 1.0
C      1  0.4555290000000  0.5219720000000  0.4504360000000 1.0
C      1  0.4657700000000  0.4665010000000  0.4535390000000 1.0
C      1  0.5215420000000  0.4577610000000  0.4555980000000 1.0
C      1  0.5159900000000  0.4335560000000  0.5006360000000 1.0
C      1  0.5671960000000  0.5143700000000  0.4884450000000 1.0
C      1  0.5110140000000  0.5645130000000  0.4999290000000 1.0
C      1  0.4366480000000  0.5313950000000  0.4890040000000 1.0
C      1  0.4529810000000  0.4535850000000  0.4941540000000 1.0
C      1  0.4872150000000  0.5585210000000  0.4724970000000 1.0
C      1  0.4378780000000  0.5086160000000  0.4704440000000 1.0
C      1  0.4751170000000  0.4478160000000  0.4752250000000 1.0
C      1  0.5464600000000  0.4672570000000  0.4675840000000 1.0
C      1  0.5513010000000  0.5298790000000  0.4703130000000 1.0
C      1  0.4864380000000  0.5502280000000  0.5428870000000 1.0
C      1  0.4375530000000  0.5130940000000  0.5351250000000 1.0
C      1  0.4635650000000  0.4554920000000  0.5479730000000 1.0
C      1  0.5425870000000  0.4594730000000  0.5375760000000 1.0
C      1  0.5554080000000  0.5188780000000  0.5379940000000 1.0
C      1  0.4397900000000  0.4805970000000  0.4721250000000 1.0
C      1  0.5038540000000  0.4430370000000  0.4756540000000 1.0
C      1  0.5629300000000  0.4881770000000  0.4576200000000 1.0
C      1  0.5302240000000  0.5486690000000  0.4734430000000 1.0
C      1  0.4607820000000  0.5508740000000  0.4695650000000 1.0
C      1  0.5209040000000  0.4971420000000  0.4941790000000 1.0
C      1  0.5015860000000  0.4982040000000  0.4751880000000 1.0
C      1  0.4943830000000  0.5039070000000  0.5633390000000 1.0
C      1  0.5074360000000  0.4963430000000  0.5400800000000 1.0
END
