TITL C-3623286-7563-717 -5.91465257065632e-07 125000 -303.587873925994 0 0 50 (C3) n - 1
REM
REM in /home/nfs/bkarasulu/CARBON/AIRSS/Generating-Clusters/LCBOP/Higher-Symm/SD-CG/FIRE-CG
REM
REM
REM
REM
REM
REM ./C.cell (b20cbc046b6831c77cfcea5457e17084)
REM AIRSS Version 0.9.1 bugfix July 2018 build 013d7b7c2542+ Fri, 06 Jul 2018 19:26:36 +0100
REM compiler GCC version 9.2.1 20190827 (Red Hat 9.2.1-1)
REM options -cpp -mtune=generic -march=x86-64 -g -O0 -fpre-include=/usr/include/finclude/math-vector-fortran.h
REM seed 184244270 1990754824 -1667724474 -1159946572 -2140081916 -1180759931 1083122606 176492897 1838712477 -723386855 -1732697526 -1918455010 510358067 -661799523 915824466 385954733 -989757051 -2039320689 -744445213 55742069 -1216198720 -782962616 1112715084 404322111 2144069197 -392913618 235616139 1075721529 1945843667 1404273210 1354905255 -632251026 1756151262
REM
CELL 1.54180   50.00000   50.00000   50.00000   90.00000   90.00000   90.00000
LATT -1
SFAC C  
C      1  0.5483600000000  0.5121240000000  0.5209900000000 1.0
C      1  0.4880850000000  0.4510190000000  0.5210470000000 1.0
C      1  0.4653040000000  0.5337710000000  0.5210220000000 1.0
C      1  0.5278240000000  0.4920740000000  0.4551450000000 1.0
C      1  0.4809640000000  0.4787570000000  0.4551740000000 1.0
C      1  0.4928610000000  0.5259970000000  0.4551480000000 1.0
C      1  0.5713270000000  0.5048450000000  0.5057390000000 1.0
C      1  0.4702920000000  0.4347520000000  0.5058200000000 1.0
C      1  0.4601080000000  0.5572970000000  0.5057720000000 1.0
C      1  0.4567320000000  0.5325460000000  0.5478130000000 1.0
C      1  0.5515960000000  0.5201890000000  0.5477710000000 1.0
C      1  0.4934620000000  0.4442130000000  0.5478320000000 1.0
C      1  0.4898490000000  0.5906350000000  0.4935690000000 1.0
C      1  0.5853230000000  0.4624050000000  0.4935760000000 1.0
C      1  0.4265360000000  0.4438370000000  0.4936640000000 1.0
C      1  0.4342640000000  0.5242230000000  0.5600410000000 1.0
C      1  0.5556270000000  0.5438220000000  0.5599710000000 1.0
C      1  0.5119180000000  0.4289190000000  0.5600430000000 1.0
C      1  0.5263180000000  0.4572990000000  0.4921230000000 1.0
C      1  0.4516150000000  0.4974890000000  0.4921440000000 1.0
C      1  0.5237730000000  0.5420880000000  0.4920880000000 1.0
C      1  0.4255390000000  0.4993830000000  0.5029020000000 1.0
C      1  0.5384550000000  0.5637360000000  0.5028180000000 1.0
C      1  0.5377280000000  0.4337710000000  0.5028740000000 1.0
C      1  0.4550990000000  0.4807750000000  0.4693900000000 1.0
C      1  0.5075480000000  0.5474040000000  0.4693350000000 1.0
C      1  0.5390250000000  0.4686680000000  0.4693530000000 1.0
C      1  0.4695400000000  0.4375530000000  0.4762230000000 1.0
C      1  0.4628980000000  0.5565160000000  0.4761750000000 1.0
C      1  0.5692440000000  0.5027870000000  0.4761440000000 1.0
C      1  0.5233920000000  0.5173080000000  0.5072260000000 1.0
C      1  0.5050530000000  0.4700350000000  0.5072560000000 1.0
C      1  0.4732830000000  0.5095530000000  0.5072550000000 1.0
C      1  0.5485180000000  0.5759700000000  0.5243820000000 1.0
C      1  0.5433000000000  0.4189630000000  0.5244520000000 1.0
C      1  0.4099360000000  0.5019850000000  0.5244830000000 1.0
C      1  0.4721290000000  0.5826960000000  0.5133210000000 1.0
C      1  0.5873160000000  0.4817430000000  0.5133070000000 1.0
C      1  0.4422940000000  0.4324650000000  0.5134010000000 1.0
C      1  0.5550880000000  0.5686010000000  0.5493950000000 1.0
C      1  0.5336430000000  0.4169840000000  0.5494710000000 1.0
C      1  0.4130610000000  0.5113650000000  0.5494910000000 1.0
C      1  0.4900360000000  0.5708330000000  0.4725250000000 1.0
C      1  0.5680720000000  0.4721220000000  0.4725280000000 1.0
C      1  0.4435680000000  0.4538960000000  0.4725990000000 1.0
C      1  0.5491270000000  0.5116940000000  0.4576330000000 1.0
C      1  0.4873060000000  0.4505010000000  0.4576900000000 1.0
C      1  0.4652220000000  0.5346360000000  0.4576650000000 1.0
C      1  0.5005490000000  0.4989420000000  0.4522100000000 1.0
C      1  0.5005770000000  0.4989660000000  0.5080350000000 1.0
END
