TITL C-3623289-7120-409 16315.1683519858 125000 -781.472789574311 0 0 128 (C1) n - 1
REM
REM in /home/nfs/bkarasulu/CARBON/AIRSS/Generating-Clusters/LCBOP/Higher-Symm/SD-CG/FIRE-CG
REM
REM
REM
REM
REM
REM ./C.cell (b20cbc046b6831c77cfcea5457e17084)
REM AIRSS Version 0.9.1 bugfix July 2018 build 013d7b7c2542+ Fri, 06 Jul 2018 19:26:36 +0100
REM compiler GCC version 9.2.1 20190827 (Red Hat 9.2.1-1)
REM options -cpp -mtune=generic -march=x86-64 -g -O0 -fpre-include=/usr/include/finclude/math-vector-fortran.h
REM seed -526841916 897047582 2089758156 -524928765 1276678945 -994121132 -1783908646 -635702557 -1754453927 2100232608 -1538153034 -53297178 -1043848071 1220635310 173105729 -1522216319 -28638994 1841504110 1391561323 -909057356 -491301382 -224102616 401904693 2125993412 -175694247 -1376002504 1583005806 1853987776 1313561688 298311135 -1696636370 1161170892 -1123112567
REM
CELL 1.54180   50.00000   50.00000   50.00000   90.00000   90.00000   90.00000
LATT -1
SFAC C  
C      1  0.6138750000000  0.5127520000000  0.4686390000000 1.0
C      1  0.4782210000000  0.5178490000000  0.6046510000000 1.0
C      1  0.4309350000000  0.5260930000000  0.4299160000000 1.0
C      1  0.5367940000000  0.4455550000000  0.5801880000000 1.0
C      1  0.4121240000000  0.4473860000000  0.4948800000000 1.0
C      1  0.5515840000000  0.4326380000000  0.4294400000000 1.0
C      1  0.4807560000000  0.6033540000000  0.3919640000000 1.0
C      1  0.5454230000000  0.6128010000000  0.5261140000000 1.0
C      1  0.4557200000000  0.5857400000000  0.5724030000000 1.0
C      1  0.5323260000000  0.5467830000000  0.4005510000000 1.0
C      1  0.5664100000000  0.5464580000000  0.5596060000000 1.0
C      1  0.4025210000000  0.5518790000000  0.5321090000000 1.0
C      1  0.4108300000000  0.5432980000000  0.4287100000000 1.0
C      1  0.6194220000000  0.5329080000000  0.4523670000000 1.0
C      1  0.4913190000000  0.5270470000000  0.6257710000000 1.0
C      1  0.4880500000000  0.4845800000000  0.4020080000000 1.0
C      1  0.6030800000000  0.4790290000000  0.5332490000000 1.0
C      1  0.4175200000000  0.4897550000000  0.5701370000000 1.0
C      1  0.5125660000000  0.5623480000000  0.4679860000000 1.0
C      1  0.5129900000000  0.5297110000000  0.5257510000000 1.0
C      1  0.4722400000000  0.5471290000000  0.4915940000000 1.0
C      1  0.5004750000000  0.5127600000000  0.4568740000000 1.0
C      1  0.5483470000000  0.5109710000000  0.4918910000000 1.0
C      1  0.4905370000000  0.5125050000000  0.5212670000000 1.0
C      1  0.5524930000000  0.5564520000000  0.4180720000000 1.0
C      1  0.5458270000000  0.5418770000000  0.5787250000000 1.0
C      1  0.4021980000000  0.5555390000000  0.5041150000000 1.0
C      1  0.6045940000000  0.4924280000000  0.4855230000000 1.0
C      1  0.4638030000000  0.5045360000000  0.5844570000000 1.0
C      1  0.4513270000000  0.5067770000000  0.4299360000000 1.0
C      1  0.4556510000000  0.4493540000000  0.3979070000000 1.0
C      1  0.6164770000000  0.4349490000000  0.5182100000000 1.0
C      1  0.4295450000000  0.4505590000000  0.5961610000000 1.0
C      1  0.4622540000000  0.6171140000000  0.3789160000000 1.0
C      1  0.5493780000000  0.6370590000000  0.5162260000000 1.0
C      1  0.4472540000000  0.5753750000000  0.5957470000000 1.0
C      1  0.6179310000000  0.4877670000000  0.5102240000000 1.0
C      1  0.4354590000000  0.5066550000000  0.5849670000000 1.0
C      1  0.4652660000000  0.5019380000000  0.4053740000000 1.0
C      1  0.5401200000000  0.5867940000000  0.5345270000000 1.0
C      1  0.4469150000000  0.5806570000000  0.5461990000000 1.0
C      1  0.4998190000000  0.5884680000000  0.4056600000000 1.0
C      1  0.5911040000000  0.4996230000000  0.5483030000000 1.0
C      1  0.3994780000000  0.5037110000000  0.5537110000000 1.0
C      1  0.5128950000000  0.4971970000000  0.3984700000000 1.0
C      1  0.5530350000000  0.4186400000000  0.5165610000000 1.0
C      1  0.4606580000000  0.4223750000000  0.5437540000000 1.0
C      1  0.4837860000000  0.4239590000000  0.4502060000000 1.0
C      1  0.5076410000000  0.5948140000000  0.4321710000000 1.0
C      1  0.5132810000000  0.5762190000000  0.5342600000000 1.0
C      1  0.4626620000000  0.5799330000000  0.5223730000000 1.0
C      1  0.4186740000000  0.4611860000000  0.5722560000000 1.0
C      1  0.4830660000000  0.4564870000000  0.3995820000000 1.0
C      1  0.6019050000000  0.4505400000000  0.5370290000000 1.0
C      1  0.5172710000000  0.4763170000000  0.5434750000000 1.0
C      1  0.4460160000000  0.4774770000000  0.5095570000000 1.0
C      1  0.5378610000000  0.4716050000000  0.4602760000000 1.0
C      1  0.5007780000000  0.4357350000000  0.4073480000000 1.0
C      1  0.5821260000000  0.4359000000000  0.5508850000000 1.0
C      1  0.4171640000000  0.4427000000000  0.5506440000000 1.0
C      1  0.5046090000000  0.4258480000000  0.5293930000000 1.0
C      1  0.4749820000000  0.4310400000000  0.4948310000000 1.0
C      1  0.5189250000000  0.4241950000000  0.4858350000000 1.0
C      1  0.5807960000000  0.4517210000000  0.4650710000000 1.0
C      1  0.4914560000000  0.4650310000000  0.5806360000000 1.0
C      1  0.4400470000000  0.4711420000000  0.4617270000000 1.0
C      1  0.4285440000000  0.4255640000000  0.5043560000000 1.0
C      1  0.5322540000000  0.4151380000000  0.4412230000000 1.0
C      1  0.5359790000000  0.4218620000000  0.5639510000000 1.0
C      1  0.5124690000000  0.5659520000000  0.3940690000000 1.0
C      1  0.5613090000000  0.5695310000000  0.5434840000000 1.0
C      1  0.4206550000000  0.5692940000000  0.5450710000000 1.0
C      1  0.5082100000000  0.4161140000000  0.5559500000000 1.0
C      1  0.4502250000000  0.4207300000000  0.4852320000000 1.0
C      1  0.5385190000000  0.4112280000000  0.4698510000000 1.0
C      1  0.5855740000000  0.4275430000000  0.4795150000000 1.0
C      1  0.4775040000000  0.4408100000000  0.5864880000000 1.0
C      1  0.4404570000000  0.4472590000000  0.4452420000000 1.0
C      1  0.6449990000000  0.4916160000000  0.5123560000000 1.0
C      1  0.4258590000000  0.5292920000000  0.5989750000000 1.0
C      1  0.4562760000000  0.5148530000000  0.3827190000000 1.0
C      1  0.5186570000000  0.4648730000000  0.5705520000000 1.0
C      1  0.4290740000000  0.4695860000000  0.4881870000000 1.0
C      1  0.5576340000000  0.4535030000000  0.4473140000000 1.0
C      1  0.4777930000000  0.4375790000000  0.5229650000000 1.0
C      1  0.4960150000000  0.4382610000000  0.4742710000000 1.0
C      1  0.5271470000000  0.4343110000000  0.5126240000000 1.0
C      1  0.4760070000000  0.5189440000000  0.4963940000000 1.0
C      1  0.5139360000000  0.5357940000000  0.4580670000000 1.0
C      1  0.5358120000000  0.5249800000000  0.5104850000000 1.0
C      1  0.5295680000000  0.4632460000000  0.5212970000000 1.0
C      1  0.4659700000000  0.4652270000000  0.5229030000000 1.0
C      1  0.5105920000000  0.4637670000000  0.4651910000000 1.0
C      1  0.5521450000000  0.4484750000000  0.6024370000000 1.0
C      1  0.3850760000000  0.4468500000000  0.4924400000000 1.0
C      1  0.5629640000000  0.4290850000000  0.4050370000000 1.0
C      1  0.4787010000000  0.4878800000000  0.5675960000000 1.0
C      1  0.4563840000000  0.4936110000000  0.4549280000000 1.0
C      1  0.5818880000000  0.4778200000000  0.4777100000000 1.0
C      1  0.5832330000000  0.5247270000000  0.5535040000000 1.0
C      1  0.3940410000000  0.5276470000000  0.5431760000000 1.0
C      1  0.5275910000000  0.5194310000000  0.3966570000000 1.0
C      1  0.4247410000000  0.5623070000000  0.4910210000000 1.0
C      1  0.5495740000000  0.5730920000000  0.4393350000000 1.0
C      1  0.5197990000000  0.5445060000000  0.5717960000000 1.0
C      1  0.4371450000000  0.4477050000000  0.4173750000000 1.0
C      1  0.6093640000000  0.4249230000000  0.4942760000000 1.0
C      1  0.4542220000000  0.4417330000000  0.6021360000000 1.0
C      1  0.5530780000000  0.6608110000000  0.5061390000000 1.0
C      1  0.4328590000000  0.5545530000000  0.6045610000000 1.0
C      1  0.4440080000000  0.6305860000000  0.3660610000000 1.0
C      1  0.4774190000000  0.5045630000000  0.4712230000000 1.0
C      1  0.5550190000000  0.4888520000000  0.4767370000000 1.0
C      1  0.4917940000000  0.4923390000000  0.5417050000000 1.0
C      1  0.4331920000000  0.4256390000000  0.5340790000000 1.0
C      1  0.5047150000000  0.4200360000000  0.4308710000000 1.0
C      1  0.5588840000000  0.4204940000000  0.5449420000000 1.0
C      1  0.5621700000000  0.4130560000000  0.4882480000000 1.0
C      1  0.4804360000000  0.4200550000000  0.5665870000000 1.0
C      1  0.4544480000000  0.4245930000000  0.4562630000000 1.0
C      1  0.6240170000000  0.5529210000000  0.4363040000000 1.0
C      1  0.5044930000000  0.5368610000000  0.6460110000000 1.0
C      1  0.3909810000000  0.5601540000000  0.4275310000000 1.0
C      1  0.4508130000000  0.5635360000000  0.5007220000000 1.0
C      1  0.5245210000000  0.5812010000000  0.4504180000000 1.0
C      1  0.5116250000000  0.5499240000000  0.5454340000000 1.0
C      1  0.4952170000000  0.5658610000000  0.4900030000000 1.0
C      1  0.4921190000000  0.5810940000000  0.5155250000000 1.0
END
