TITL C-3623287-7182-565 -18008.9681359981 125000 -749.800089540848 0 0 124 (C1) n - 1
REM
REM in /home/nfs/bkarasulu/CARBON/AIRSS/Generating-Clusters/LCBOP/Higher-Symm/SD-CG/FIRE-CG
REM
REM
REM
REM
REM
REM ./C.cell (b20cbc046b6831c77cfcea5457e17084)
REM AIRSS Version 0.9.1 bugfix July 2018 build 013d7b7c2542+ Fri, 06 Jul 2018 19:26:36 +0100
REM compiler GCC version 9.2.1 20190827 (Red Hat 9.2.1-1)
REM options -cpp -mtune=generic -march=x86-64 -g -O0 -fpre-include=/usr/include/finclude/math-vector-fortran.h
REM seed 1325879582 1803382130 -2132741756 485521075 1236827973 2077760606 1429668679 -1638797823 601823164 1268690714 438300351 -134200074 -1669690996 1951531966 1688919702 -571298310 214913145 -860572526 1353690266 -1864636714 -1679883857 -436526283 2053514583 2051144388 -1813707285 117310024 -545110983 849146862 -1224577044 1359244904 1127166986 -2123550822 -973015137
REM
CELL 1.54180   50.00000   50.00000   50.00000   90.00000   90.00000   90.00000
LATT -1
SFAC C  
C      1  0.4688400000000  0.5816490000000  0.5441680000000 1.0
C      1  0.4131180000000  0.4957470000000  0.5438790000000 1.0
C      1  0.4771480000000  0.4158110000000  0.5435710000000 1.0
C      1  0.5741040000000  0.4519820000000  0.5444940000000 1.0
C      1  0.5685280000000  0.5553750000000  0.5446750000000 1.0
C      1  0.6103580000000  0.5118170000000  0.5364090000000 1.0
C      1  0.5230350000000  0.6082480000000  0.5364940000000 1.0
C      1  0.4044840000000  0.5552930000000  0.5365640000000 1.0
C      1  0.4178330000000  0.4263320000000  0.5364680000000 1.0
C      1  0.5449360000000  0.3991560000000  0.5350380000000 1.0
C      1  0.5337540000000  0.5351050000000  0.4946030000000 1.0
C      1  0.4766880000000  0.5416460000000  0.4945020000000 1.0
C      1  0.4525070000000  0.4889050000000  0.4961000000000 1.0
C      1  0.4946910000000  0.4523290000000  0.4952370000000 1.0
C      1  0.5445240000000  0.4794230000000  0.4949920000000 1.0
C      1  0.5084940000000  0.4755700000000  0.5348260000000 1.0
C      1  0.5266230000000  0.4998980000000  0.5345210000000 1.0
C      1  0.5087020000000  0.5245530000000  0.5341610000000 1.0
C      1  0.4796710000000  0.5152730000000  0.5344290000000 1.0
C      1  0.4796850000000  0.4850460000000  0.5353550000000 1.0
C      1  0.4089760000000  0.4964700000000  0.5141460000000 1.0
C      1  0.4742210000000  0.4131450000000  0.5138370000000 1.0
C      1  0.5767020000000  0.4482690000000  0.5149110000000 1.0
C      1  0.5729740000000  0.5565810000000  0.5151740000000 1.0
C      1  0.4687610000000  0.5859430000000  0.5145900000000 1.0
C      1  0.5479820000000  0.4658160000000  0.4674770000000 1.0
C      1  0.5484840000000  0.5343350000000  0.4673660000000 1.0
C      1  0.4822900000000  0.5552250000000  0.4671360000000 1.0
C      1  0.4511020000000  0.4925170000000  0.4660180000000 1.0
C      1  0.4831150000000  0.4520640000000  0.4657180000000 1.0
C      1  0.5869630000000  0.4863560000000  0.4519040000000 1.0
C      1  0.5404390000000  0.5777870000000  0.4520930000000 1.0
C      1  0.4388330000000  0.5608200000000  0.4514950000000 1.0
C      1  0.4205510000000  0.4600490000000  0.4500180000000 1.0
C      1  0.5126740000000  0.4151130000000  0.4514950000000 1.0
C      1  0.4563990000000  0.5606500000000  0.5069310000000 1.0
C      1  0.4282600000000  0.4759470000000  0.5071410000000 1.0
C      1  0.4996220000000  0.4251880000000  0.5065030000000 1.0
C      1  0.5721310000000  0.4759800000000  0.5072010000000 1.0
C      1  0.5451490000000  0.5603930000000  0.5071590000000 1.0
C      1  0.4818440000000  0.4542800000000  0.5743200000000 1.0
C      1  0.5381910000000  0.4681550000000  0.5743020000000 1.0
C      1  0.5420850000000  0.5260230000000  0.5740930000000 1.0
C      1  0.4886720000000  0.5478160000000  0.5741910000000 1.0
C      1  0.4510410000000  0.5041150000000  0.5747450000000 1.0
C      1  0.4532470000000  0.4854360000000  0.4164000000000 1.0
C      1  0.4995760000000  0.4523950000000  0.4179080000000 1.0
C      1  0.5442730000000  0.4839220000000  0.4217730000000 1.0
C      1  0.5274230000000  0.5375230000000  0.4225800000000 1.0
C      1  0.4734600000000  0.5382400000000  0.4210880000000 1.0
C      1  0.5841130000000  0.5580060000000  0.4869780000000 1.0
C      1  0.4707770000000  0.5965990000000  0.4862860000000 1.0
C      1  0.4010210000000  0.5020980000000  0.4856060000000 1.0
C      1  0.4659770000000  0.4076090000000  0.4852000000000 1.0
C      1  0.5810700000000  0.4383510000000  0.4864930000000 1.0
C      1  0.5351530000000  0.4189390000000  0.5526420000000 1.0
C      1  0.5882670000000  0.5083200000000  0.5535900000000 1.0
C      1  0.5195090000000  0.5861470000000  0.5536230000000 1.0
C      1  0.4244610000000  0.5450720000000  0.5535980000000 1.0
C      1  0.4340620000000  0.4420920000000  0.5533320000000 1.0
C      1  0.5066590000000  0.4234460000000  0.5507710000000 1.0
C      1  0.5754520000000  0.4824750000000  0.5515400000000 1.0
C      1  0.5399090000000  0.5658740000000  0.5514780000000 1.0
C      1  0.4501580000000  0.5577260000000  0.5512840000000 1.0
C      1  0.4299500000000  0.4704860000000  0.5513970000000 1.0
C      1  0.5598430000000  0.4795200000000  0.4450850000000 1.0
C      1  0.5391200000000  0.5498510000000  0.4451460000000 1.0
C      1  0.4647140000000  0.5510970000000  0.4448880000000 1.0
C      1  0.4385500000000  0.4804910000000  0.4411880000000 1.0
C      1  0.4984120000000  0.4384100000000  0.4430040000000 1.0
C      1  0.5192300000000  0.4826320000000  0.5912290000000 1.0
C      1  0.5227350000000  0.5125380000000  0.5912010000000 1.0
C      1  0.4954620000000  0.5252260000000  0.5913870000000 1.0
C      1  0.4749410000000  0.5032220000000  0.5916390000000 1.0
C      1  0.4896370000000  0.4767760000000  0.5913310000000 1.0
C      1  0.5006570000000  0.5456270000000  0.4142070000000 1.0
C      1  0.4591260000000  0.5143010000000  0.4114690000000 1.0
C      1  0.4735790000000  0.4643770000000  0.4086920000000 1.0
C      1  0.5267030000000  0.4620310000000  0.4122230000000 1.0
C      1  0.5317460000000  0.5095460000000  0.4161150000000 1.0
C      1  0.4076510000000  0.5651520000000  0.5116440000000 1.0
C      1  0.4086570000000  0.4318510000000  0.5116490000000 1.0
C      1  0.5355390000000  0.3924810000000  0.5105860000000 1.0
C      1  0.6139400000000  0.5012390000000  0.5118260000000 1.0
C      1  0.5340380000000  0.6081710000000  0.5118520000000 1.0
C      1  0.5254910000000  0.5406880000000  0.5537680000000 1.0
C      1  0.4697350000000  0.5363620000000  0.5539210000000 1.0
C      1  0.4562640000000  0.4824460000000  0.5547920000000 1.0
C      1  0.5040390000000  0.4522500000000  0.5541190000000 1.0
C      1  0.5470870000000  0.4885760000000  0.5541020000000 1.0
C      1  0.5061080000000  0.5383620000000  0.5056510000000 1.0
C      1  0.4647920000000  0.5165220000000  0.5062520000000 1.0
C      1  0.4725660000000  0.4705950000000  0.5087100000000 1.0
C      1  0.5189580000000  0.4653330000000  0.5066830000000 1.0
C      1  0.5396140000000  0.5066140000000  0.5062510000000 1.0
C      1  0.5146990000000  0.5901950000000  0.4563590000000 1.0
C      1  0.4203770000000  0.5394010000000  0.4553290000000 1.0
C      1  0.4347790000000  0.4353770000000  0.4544820000000 1.0
C      1  0.5409830000000  0.4191120000000  0.4560820000000 1.0
C      1  0.5915030000000  0.5145260000000  0.4563330000000 1.0
C      1  0.5449430000000  0.5874730000000  0.4967990000000 1.0
C      1  0.4306110000000  0.5686580000000  0.4963390000000 1.0
C      1  0.4122790000000  0.4546140000000  0.4959770000000 1.0
C      1  0.5145650000000  0.4030710000000  0.4956200000000 1.0
C      1  0.5977310000000  0.4844400000000  0.4966700000000 1.0
C      1  0.4992910000000  0.3989500000000  0.4716040000000 1.0
C      1  0.5982720000000  0.4686230000000  0.4727130000000 1.0
C      1  0.5605020000000  0.5834060000000  0.4730270000000 1.0
C      1  0.4393120000000  0.5815200000000  0.4723740000000 1.0
C      1  0.4032550000000  0.4674670000000  0.4720630000000 1.0
C      1  0.4585620000000  0.4302490000000  0.4689380000000 1.0
C      1  0.5572660000000  0.4378920000000  0.4697640000000 1.0
C      1  0.5778390000000  0.5352360000000  0.4700980000000 1.0
C      1  0.4905930000000  0.5834540000000  0.4697250000000 1.0
C      1  0.4191620000000  0.5157080000000  0.4691330000000 1.0
C      1  0.5704200000000  0.5302420000000  0.5618090000000 1.0
C      1  0.4931560000000  0.5759960000000  0.5616860000000 1.0
C      1  0.4257850000000  0.5169450000000  0.5617610000000 1.0
C      1  0.4612830000000  0.4345830000000  0.5614680000000 1.0
C      1  0.5506680000000  0.4424240000000  0.5615090000000 1.0
C      1  0.4912740000000  0.4936110000000  0.4349680000000 1.0
C      1  0.5045610000000  0.5009160000000  0.4130240000000 1.0
C      1  0.4809010000000  0.4838530000000  0.4603470000000 1.0
C      1  0.4997530000000  0.4985420000000  0.4788130000000 1.0
END
