TITL C-3623288-6813-1969 -2.95833471649886e-07 125000 -140.931739392728 0 0 26 (S4) n - 1
REM
REM in /home/nfs/bkarasulu/CARBON/AIRSS/Generating-Clusters/LCBOP/Higher-Symm/SD-CG/FIRE-CG
REM
REM
REM
REM
REM
REM ./C.cell (b20cbc046b6831c77cfcea5457e17084)
REM AIRSS Version 0.9.1 bugfix July 2018 build 013d7b7c2542+ Fri, 06 Jul 2018 19:26:36 +0100
REM compiler GCC version 9.2.1 20190827 (Red Hat 9.2.1-1)
REM options -cpp -mtune=generic -march=x86-64 -g -O0 -fpre-include=/usr/include/finclude/math-vector-fortran.h
REM seed -602336098 789585466 1047168440 484205608 -1834880522 1950489437 1856121824 -340989931 -1317145299 30125113 699012831 -1379074091 -660296320 -2001190701 -1066211315 2032710018 87240590 -404695312 -1773849007 -1738399633 1796074242 409137395 -1048033694 613667695 -1020557836 -220040828 622859238 -1372071507 -1577023483 812740213 1725782393 1913835582 -1607255907
REM
CELL 1.54180   50.00000   50.00000   50.00000   90.00000   90.00000   90.00000
LATT -1
SFAC C  
C      1  0.5100750000000  0.4884360000000  0.5586030000000 1.0
C      1  0.5100850000000  0.5101770000000  0.4413970000000 1.0
C      1  0.4883430000000  0.5101860000000  0.5586030000000 1.0
C      1  0.4883340000000  0.4884450000000  0.4413970000000 1.0
C      1  0.5413720000000  0.4723990000000  0.4964840000000 1.0
C      1  0.5261210000000  0.5414730000000  0.5035160000000 1.0
C      1  0.4570470000000  0.5262230000000  0.4964840000000 1.0
C      1  0.4722980000000  0.4571490000000  0.5035160000000 1.0
C      1  0.4730550000000  0.5201760000000  0.4729950000000 1.0
C      1  0.4783440000000  0.4731560000000  0.5270050000000 1.0
C      1  0.5253640000000  0.4784460000000  0.4729950000000 1.0
C      1  0.5200750000000  0.5254660000000  0.5270050000000 1.0
C      1  0.4960690000000  0.4654760000000  0.4580980000000 1.0
C      1  0.5330450000000  0.4961710000000  0.5419020000000 1.0
C      1  0.5023500000000  0.5331460000000  0.4580980000000 1.0
C      1  0.4653740000000  0.5024520000000  0.5419020000000 1.0
C      1  0.4649140000000  0.5024020000000  0.4511170000000 1.0
C      1  0.4961180000000  0.4650160000000  0.5488830000000 1.0
C      1  0.5335050000000  0.4962200000000  0.4511170000000 1.0
C      1  0.5023000000000  0.5336070000000  0.5488830000000 1.0
C      1  0.4799520000000  0.4532410000000  0.4777190000000 1.0
C      1  0.5452790000000  0.4800540000000  0.5222810000000 1.0
C      1  0.5184670000000  0.5453810000000  0.4777190000000 1.0
C      1  0.4531400000000  0.5185680000000  0.5222810000000 1.0
C      1  0.4992090000000  0.4993110000000  0.5121410000000 1.0
C      1  0.4992090000000  0.4993110000000  0.4878590000000 1.0
END
