TITL C-3623283-6828-1118 -1.413604104667e-07 125000 -16.3255200186645 0 0 4 (D3h) n - 1
REM
REM in /home/nfs/bkarasulu/CARBON/AIRSS/Generating-Clusters/LCBOP/Higher-Symm/SD-CG/FIRE-CG
REM
REM
REM
REM
REM
REM ./C.cell (b20cbc046b6831c77cfcea5457e17084)
REM AIRSS Version 0.9.1 bugfix July 2018 build 013d7b7c2542+ Fri, 06 Jul 2018 19:26:36 +0100
REM compiler GCC version 9.2.1 20190827 (Red Hat 9.2.1-1)
REM options -cpp -mtune=generic -march=x86-64 -g -O0 -fpre-include=/usr/include/finclude/math-vector-fortran.h
REM seed 252639406 2113159855 -308256310 -1013949128 -812772160 413472086 131149064 893398775 398442661 -156426952 1517963600 1650024065 -559229889 -1233399152 -1058491845 242710330 -305603966 -432917919 1103193171 -769229431 1766386002 -931004176 1654763443 591592841 -825143452 -557218904 70349642 -372988347 -307457774 735452272 -1665937369 1563389981 -957905160
REM
CELL 1.54180   50.00000   50.00000   50.00000   90.00000   90.00000   90.00000
LATT -1
SFAC C  
C      1  0.4756070000000  0.4985930000000  0.5006360000000 1.0
C      1  0.5167250000000  0.4748540000000  0.5006360000000 1.0
C      1  0.5167250000000  0.5223320000000  0.5006360000000 1.0
C      1  0.5030190000000  0.4985930000000  0.5006360000000 1.0
END
