TITL C-3623287-7182-22 -4478.16786444179 125000 -1193.80066492393 0 0 195 (C1) n - 1
REM
REM in /home/nfs/bkarasulu/CARBON/AIRSS/Generating-Clusters/LCBOP/Higher-Symm/SD-CG/FIRE-CG
REM
REM
REM
REM
REM
REM ./C.cell (b20cbc046b6831c77cfcea5457e17084)
REM AIRSS Version 0.9.1 bugfix July 2018 build 013d7b7c2542+ Fri, 06 Jul 2018 19:26:36 +0100
REM compiler GCC version 9.2.1 20190827 (Red Hat 9.2.1-1)
REM options -cpp -mtune=generic -march=x86-64 -g -O0 -fpre-include=/usr/include/finclude/math-vector-fortran.h
REM seed -1919909221 -278994505 2098764247 2103261728 927806635 1148775963 1546743496 -817522106 -1879395800 857846568 -1330847178 798011167 1884865770 1539777334 -439042662 -1143623712 -1774809743 174427117 1669475583 123442081 348639857 1387124707 -376580590 439239865 -788394919 -464431048 -777171978 1640430700 1815808595 549707387 -244368494 1212760602 -159701813
REM
CELL 1.54180   50.00000   50.00000   50.00000   90.00000   90.00000   90.00000
LATT -1
SFAC C  
C      1  0.5989930000000  0.5488030000000  0.4926990000000 1.0
C      1  0.5954450000000  0.4625110000000  0.4586640000000 1.0
C      1  0.5903450000000  0.4690830000000  0.5429430000000 1.0
C      1  0.3932200000000  0.5608600000000  0.5081070000000 1.0
C      1  0.4092400000000  0.4778820000000  0.4536780000000 1.0
C      1  0.4113480000000  0.4712970000000  0.5414080000000 1.0
C      1  0.5981040000000  0.4501680000000  0.4934010000000 1.0
C      1  0.5960670000000  0.5361600000000  0.4581880000000 1.0
C      1  0.5908660000000  0.5297390000000  0.5423540000000 1.0
C      1  0.3973440000000  0.4395160000000  0.5071360000000 1.0
C      1  0.4072580000000  0.5230710000000  0.4531900000000 1.0
C      1  0.4096110000000  0.5292350000000  0.5414060000000 1.0
C      1  0.4857780000000  0.4114030000000  0.5867960000000 1.0
C      1  0.4801730000000  0.6147920000000  0.5280250000000 1.0
C      1  0.4815020000000  0.4700860000000  0.3822830000000 1.0
C      1  0.5171050000000  0.4101480000000  0.5856050000000 1.0
C      1  0.5106760000000  0.6117520000000  0.5257460000000 1.0
C      1  0.5160500000000  0.4683250000000  0.3870390000000 1.0
C      1  0.4862950000000  0.5809200000000  0.5817340000000 1.0
C      1  0.4823650000000  0.3811170000000  0.5313020000000 1.0
C      1  0.4814790000000  0.5307020000000  0.3819410000000 1.0
C      1  0.5175590000000  0.5859620000000  0.5839070000000 1.0
C      1  0.5133220000000  0.3835220000000  0.5273320000000 1.0
C      1  0.5160570000000  0.5312750000000  0.3873260000000 1.0
C      1  0.6127570000000  0.5151530000000  0.5295290000000 1.0
C      1  0.6346780000000  0.5127100000000  0.4867810000000 1.0
C      1  0.6176890000000  0.4699090000000  0.5041540000000 1.0
C      1  0.3873990000000  0.5147240000000  0.5263540000000 1.0
C      1  0.3859970000000  0.5156990000000  0.4746690000000 1.0
C      1  0.3870570000000  0.4679870000000  0.5008560000000 1.0
C      1  0.6121840000000  0.4837730000000  0.5297520000000 1.0
C      1  0.6343380000000  0.4854790000000  0.4870270000000 1.0
C      1  0.6184290000000  0.5288330000000  0.5038110000000 1.0
C      1  0.3883660000000  0.4845200000000  0.5262130000000 1.0
C      1  0.3874760000000  0.4838980000000  0.4748220000000 1.0
C      1  0.3845790000000  0.5315250000000  0.5011030000000 1.0
C      1  0.4446050000000  0.5549500000000  0.4036040000000 1.0
C      1  0.4436960000000  0.3935480000000  0.5018960000000 1.0
C      1  0.4479180000000  0.5529520000000  0.5928520000000 1.0
C      1  0.5539880000000  0.5534480000000  0.4084900000000 1.0
C      1  0.5511230000000  0.3898640000000  0.4974880000000 1.0
C      1  0.5579920000000  0.5561240000000  0.5917540000000 1.0
C      1  0.4454940000000  0.4477940000000  0.4064570000000 1.0
C      1  0.4389010000000  0.6101370000000  0.4996800000000 1.0
C      1  0.4501260000000  0.4444420000000  0.5943550000000 1.0
C      1  0.5535560000000  0.4453850000000  0.4084530000000 1.0
C      1  0.5489450000000  0.6083090000000  0.4966200000000 1.0
C      1  0.5554750000000  0.4419140000000  0.5930260000000 1.0
C      1  0.5607210000000  0.4051820000000  0.4769680000000 1.0
C      1  0.5644220000000  0.5283740000000  0.5925910000000 1.0
C      1  0.5631760000000  0.5650420000000  0.4317180000000 1.0
C      1  0.4374610000000  0.4096120000000  0.4799830000000 1.0
C      1  0.4381580000000  0.5272310000000  0.5919770000000 1.0
C      1  0.4375840000000  0.5699810000000  0.4259040000000 1.0
C      1  0.5597380000000  0.5936780000000  0.4762930000000 1.0
C      1  0.5620840000000  0.4694700000000  0.5938700000000 1.0
C      1  0.5626620000000  0.4335420000000  0.4315760000000 1.0
C      1  0.4288130000000  0.5984270000000  0.4757790000000 1.0
C      1  0.4444420000000  0.4717050000000  0.5935510000000 1.0
C      1  0.4392590000000  0.4361830000000  0.4308240000000 1.0
C      1  0.5417510000000  0.5138540000000  0.3877410000000 1.0
C      1  0.5393510000000  0.3914470000000  0.5418830000000 1.0
C      1  0.5408380000000  0.5932450000000  0.5657420000000 1.0
C      1  0.4561260000000  0.5143850000000  0.3829760000000 1.0
C      1  0.4594480000000  0.3898690000000  0.5478420000000 1.0
C      1  0.4598180000000  0.5900020000000  0.5678600000000 1.0
C      1  0.5417470000000  0.4852390000000  0.3876990000000 1.0
C      1  0.5375390000000  0.6054550000000  0.5406250000000 1.0
C      1  0.5412170000000  0.4036700000000  0.5673120000000 1.0
C      1  0.4560540000000  0.4866010000000  0.3829210000000 1.0
C      1  0.4565360000000  0.6059050000000  0.5446070000000 1.0
C      1  0.4618860000000  0.4074060000000  0.5687230000000 1.0
C      1  0.4592250000000  0.4759990000000  0.5428150000000 1.0
C      1  0.4422210000000  0.5559250000000  0.4961790000000 1.0
C      1  0.4599300000000  0.4777700000000  0.4573200000000 1.0
C      1  0.5414820000000  0.4748240000000  0.5453720000000 1.0
C      1  0.5402740000000  0.5497800000000  0.5020480000000 1.0
C      1  0.5429450000000  0.4737170000000  0.4586690000000 1.0
C      1  0.4579110000000  0.5281210000000  0.5424300000000 1.0
C      1  0.4614290000000  0.4530730000000  0.5002170000000 1.0
C      1  0.4577370000000  0.5288820000000  0.4575500000000 1.0
C      1  0.5424520000000  0.5221040000000  0.5449060000000 1.0
C      1  0.5386070000000  0.4486850000000  0.5009580000000 1.0
C      1  0.5441460000000  0.5247740000000  0.4585660000000 1.0
C      1  0.4736390000000  0.4313530000000  0.6052930000000 1.0
C      1  0.4679390000000  0.6111050000000  0.5010920000000 1.0
C      1  0.4734140000000  0.4502270000000  0.4018020000000 1.0
C      1  0.5264690000000  0.4367650000000  0.5951210000000 1.0
C      1  0.5200370000000  0.6076720000000  0.4969860000000 1.0
C      1  0.5247030000000  0.4449740000000  0.4058740000000 1.0
C      1  0.4768980000000  0.5535190000000  0.5927880000000 1.0
C      1  0.4716750000000  0.3896550000000  0.5051810000000 1.0
C      1  0.4729000000000  0.5520910000000  0.3998480000000 1.0
C      1  0.5291680000000  0.5610920000000  0.5955140000000 1.0
C      1  0.5222390000000  0.3885860000000  0.4980430000000 1.0
C      1  0.5252800000000  0.5543620000000  0.4055330000000 1.0
C      1  0.4795350000000  0.4889670000000  0.5255380000000 1.0
C      1  0.4881310000000  0.5295650000000  0.5023250000000 1.0
C      1  0.4781970000000  0.4903180000000  0.4775200000000 1.0
C      1  0.5213310000000  0.4851530000000  0.5252850000000 1.0
C      1  0.5172200000000  0.5291980000000  0.4998320000000 1.0
C      1  0.5196920000000  0.4851180000000  0.4745280000000 1.0
C      1  0.4796230000000  0.5163680000000  0.5262140000000 1.0
C      1  0.4842100000000  0.4736970000000  0.5001340000000 1.0
C      1  0.4764140000000  0.5192160000000  0.4792260000000 1.0
C      1  0.5235890000000  0.5121680000000  0.5243040000000 1.0
C      1  0.5145020000000  0.4697760000000  0.4995610000000 1.0
C      1  0.5208390000000  0.5141220000000  0.4746620000000 1.0
C      1  0.4344030000000  0.4853240000000  0.5268140000000 1.0
C      1  0.4335820000000  0.5287450000000  0.4978690000000 1.0
C      1  0.4340570000000  0.4862840000000  0.4705210000000 1.0
C      1  0.5667280000000  0.4828730000000  0.5297310000000 1.0
C      1  0.5638520000000  0.5278010000000  0.5025110000000 1.0
C      1  0.5643240000000  0.4849370000000  0.4779390000000 1.0
C      1  0.4336470000000  0.5171280000000  0.5257940000000 1.0
C      1  0.4378260000000  0.4738030000000  0.4992540000000 1.0
C      1  0.4324130000000  0.5163660000000  0.4700000000000 1.0
C      1  0.5676790000000  0.5149860000000  0.5297470000000 1.0
C      1  0.5622640000000  0.4704250000000  0.5025270000000 1.0
C      1  0.5652190000000  0.5132000000000  0.4777700000000 1.0
C      1  0.5786150000000  0.5882720000000  0.4335050000000 1.0
C      1  0.5775510000000  0.3965340000000  0.4564310000000 1.0
C      1  0.5777870000000  0.5124620000000  0.6117630000000 1.0
C      1  0.4258970000000  0.5956640000000  0.4277470000000 1.0
C      1  0.4211040000000  0.4017630000000  0.4586290000000 1.0
C      1  0.4260680000000  0.5120090000000  0.6119690000000 1.0
C      1  0.5784870000000  0.4106040000000  0.4335210000000 1.0
C      1  0.5767060000000  0.6027450000000  0.4561010000000 1.0
C      1  0.5765240000000  0.4852390000000  0.6123600000000 1.0
C      1  0.4222390000000  0.4143490000000  0.4348670000000 1.0
C      1  0.4217670000000  0.6095380000000  0.4508130000000 1.0
C      1  0.4300730000000  0.4853950000000  0.6134530000000 1.0
C      1  0.5603130000000  0.5995710000000  0.5215020000000 1.0
C      1  0.5642880000000  0.4719270000000  0.4040670000000 1.0
C      1  0.5651180000000  0.4256610000000  0.5693870000000 1.0
C      1  0.4306600000000  0.6000630000000  0.5266330000000 1.0
C      1  0.4338440000000  0.4740270000000  0.4012080000000 1.0
C      1  0.4402770000000  0.4296990000000  0.5709280000000 1.0
C      1  0.5618600000000  0.3987460000000  0.5226240000000 1.0
C      1  0.5645240000000  0.5268950000000  0.4039260000000 1.0
C      1  0.5657270000000  0.5724200000000  0.5675800000000 1.0
C      1  0.4320150000000  0.4002670000000  0.5267590000000 1.0
C      1  0.4336330000000  0.5277380000000  0.4007240000000 1.0
C      1  0.4370400000000  0.5701620000000  0.5721020000000 1.0
C      1  0.4454960000000  0.5578580000000  0.4505980000000 1.0
C      1  0.4518330000000  0.4345190000000  0.4781210000000 1.0
C      1  0.4500450000000  0.5148220000000  0.5692370000000 1.0
C      1  0.5520110000000  0.5527310000000  0.4549320000000 1.0
C      1  0.5495560000000  0.4313280000000  0.4783740000000 1.0
C      1  0.5510190000000  0.5127470000000  0.5724580000000 1.0
C      1  0.4527620000000  0.4480100000000  0.4533040000000 1.0
C      1  0.4354730000000  0.5706420000000  0.4736430000000 1.0
C      1  0.4514710000000  0.4865330000000  0.5698500000000 1.0
C      1  0.5513680000000  0.4457290000000  0.4547370000000 1.0
C      1  0.5500890000000  0.5670070000000  0.4785880000000 1.0
C      1  0.5497420000000  0.4847090000000  0.5729070000000 1.0
C      1  0.4757020000000  0.4870740000000  0.4332430000000 1.0
C      1  0.4741670000000  0.4510880000000  0.5465310000000 1.0
C      1  0.4656730000000  0.5650640000000  0.5090670000000 1.0
C      1  0.5371140000000  0.4862180000000  0.4333080000000 1.0
C      1  0.5287940000000  0.4488480000000  0.5500970000000 1.0
C      1  0.5315160000000  0.5623650000000  0.5279020000000 1.0
C      1  0.4746070000000  0.5182370000000  0.4339090000000 1.0
C      1  0.4648070000000  0.5567630000000  0.5364330000000 1.0
C      1  0.4746850000000  0.4351890000000  0.5210990000000 1.0
C      1  0.5375370000000  0.5125610000000  0.4333070000000 1.0
C      1  0.5276660000000  0.5466680000000  0.5512460000000 1.0
C      1  0.5308550000000  0.4345880000000  0.5261750000000 1.0
C      1  0.4857120000000  0.4149090000000  0.5023710000000 1.0
C      1  0.4935320000000  0.5292230000000  0.5860340000000 1.0
C      1  0.4858060000000  0.5436540000000  0.4241610000000 1.0
C      1  0.5065450000000  0.4096390000000  0.4827130000000 1.0
C      1  0.5171940000000  0.5422220000000  0.5771550000000 1.0
C      1  0.5083220000000  0.5603100000000  0.4294020000000 1.0
C      1  0.4795760000000  0.5853750000000  0.4935550000000 1.0
C      1  0.4942770000000  0.4704690000000  0.5732880000000 1.0
C      1  0.4871320000000  0.4606800000000  0.4253490000000 1.0
C      1  0.5040520000000  0.5895080000000  0.4792570000000 1.0
C      1  0.5149100000000  0.4530120000000  0.5746870000000 1.0
C      1  0.5079690000000  0.4411820000000  0.4309000000000 1.0
C      1  0.4143540000000  0.4243170000000  0.5277100000000 1.0
C      1  0.4168780000000  0.5583870000000  0.5514660000000 1.0
C      1  0.4158740000000  0.5159860000000  0.4230430000000 1.0
C      1  0.5838130000000  0.4269030000000  0.5191130000000 1.0
C      1  0.5834720000000  0.5590970000000  0.5451160000000 1.0
C      1  0.5860310000000  0.5162560000000  0.4302510000000 1.0
C      1  0.4111000000000  0.5765190000000  0.5283170000000 1.0
C      1  0.4202580000000  0.4422830000000  0.5507150000000 1.0
C      1  0.4164120000000  0.4856720000000  0.4233750000000 1.0
C      1  0.5837200000000  0.5719800000000  0.5180840000000 1.0
C      1  0.5831780000000  0.4396540000000  0.5466170000000 1.0
C      1  0.5858020000000  0.4823090000000  0.4304770000000 1.0
C      1  0.5070350000000  0.4229190000000  0.4552600000000 1.0
C      1  0.5078750000000  0.5779230000000  0.4526760000000 1.0
C      1  0.4933220000000  0.4990670000000  0.5826150000000 1.0
END
