TITL C-3623287-7182-1522 0.00176088314612069 125000 -88.4494441606137 0 0 16 (Ci) n - 1
REM
REM in /home/nfs/bkarasulu/CARBON/AIRSS/Generating-Clusters/LCBOP/Higher-Symm/SD-CG/FIRE-CG
REM
REM
REM
REM
REM
REM ./C.cell (b20cbc046b6831c77cfcea5457e17084)
REM AIRSS Version 0.9.1 bugfix July 2018 build 013d7b7c2542+ Fri, 06 Jul 2018 19:26:36 +0100
REM compiler GCC version 9.2.1 20190827 (Red Hat 9.2.1-1)
REM options -cpp -mtune=generic -march=x86-64 -g -O0 -fpre-include=/usr/include/finclude/math-vector-fortran.h
REM seed 542919684 -634305342 822759850 -70450653 -1951252766 188671834 -1675417495 -1692145559 -1194517284 -1908652462 1926445094 -2091023644 -143824715 1220741264 -1380705890 624614397 1600549756 -1185099496 -1553478031 317406285 -32031405 648531194 -2088239059 -171602131 -1905360233 -1950895029 364955795 -475847992 -1499455934 955158135 1187862855 352992082 1828440647
REM
CELL 1.54180   50.00000   50.00000   50.00000   90.00000   90.00000   90.00000
LATT -1
SFAC C  
C      1  0.5156530000000  0.4818610000000  0.5300230000000 1.0
C      1  0.4843470000000  0.5181390000000  0.4699770000000 1.0
C      1  0.5171660000000  0.5020170000000  0.5494220000000 1.0
C      1  0.4828340000000  0.4979830000000  0.4505780000000 1.0
C      1  0.5206180000000  0.5501820000000  0.5578400000000 1.0
C      1  0.4793820000000  0.4498180000000  0.4421600000000 1.0
C      1  0.4716910000000  0.4300940000000  0.4269590000000 1.0
C      1  0.5283090000000  0.5699060000000  0.5730410000000 1.0
C      1  0.5124090000000  0.5290180000000  0.5415730000000 1.0
C      1  0.4875910000000  0.4709820000000  0.4584270000000 1.0
C      1  0.5003070000000  0.4657600000000  0.4828070000000 1.0
C      1  0.4996930000000  0.5342400000000  0.5171930000000 1.0
C      1  0.5097970000000  0.4694890000000  0.5072980000000 1.0
C      1  0.4902030000000  0.5305110000000  0.4927020000000 1.0
C      1  0.4771880000000  0.5042630000000  0.4245520000000 1.0
C      1  0.5228120000000  0.4957370000000  0.5754480000000 1.0
END
