TITL C-3623282-6910-1691 -9.79884707670087e-07 125000 -982.832790483165 0 0 161 (C1) n - 1
REM
REM in /home/nfs/bkarasulu/CARBON/AIRSS/Generating-Clusters/LCBOP/Higher-Symm/SD-CG/FIRE-CG
REM
REM
REM
REM
REM
REM ./C.cell (b20cbc046b6831c77cfcea5457e17084)
REM AIRSS Version 0.9.1 bugfix July 2018 build 013d7b7c2542+ Fri, 06 Jul 2018 19:26:36 +0100
REM compiler GCC version 9.2.1 20190827 (Red Hat 9.2.1-1)
REM options -cpp -mtune=generic -march=x86-64 -g -O0 -fpre-include=/usr/include/finclude/math-vector-fortran.h
REM seed 110248032 1710579532 -1418427002 -607808312 -1936913496 723106172 630511918 -1986568193 -1286372680 1252049632 -565058342 -737557282 1949573069 -808105567 -703815253 -609378649 -413755282 1716237484 -935578278 145552890 -755887556 342662999 -1183891844 -774362053 -502665933 526937862 648478799 146447139 -1018324375 -1850791564 1903564827 897132958 1541131020
REM
CELL 1.54180   50.00000   50.00000   50.00000   90.00000   90.00000   90.00000
LATT -1
SFAC C  
C      1  0.5011900000000  0.5831330000000  0.4222360000000 1.0
C      1  0.3969860000000  0.5246700000000  0.5217160000000 1.0
C      1  0.6088650000000  0.5454070000000  0.4754220000000 1.0
C      1  0.4309480000000  0.4680230000000  0.4616280000000 1.0
C      1  0.4407930000000  0.5817980000000  0.4127810000000 1.0
C      1  0.5538050000000  0.4545950000000  0.5118580000000 1.0
C      1  0.5480740000000  0.5388360000000  0.5850910000000 1.0
C      1  0.5906460000000  0.4177830000000  0.5238580000000 1.0
C      1  0.4456810000000  0.3788350000000  0.4831320000000 1.0
C      1  0.5186430000000  0.4762650000000  0.5886440000000 1.0
C      1  0.5758980000000  0.4496550000000  0.4956160000000 1.0
C      1  0.5766140000000  0.4957110000000  0.5182170000000 1.0
C      1  0.4729960000000  0.4941660000000  0.5560910000000 1.0
C      1  0.5700210000000  0.4512770000000  0.4036330000000 1.0
C      1  0.5034190000000  0.5574440000000  0.5887900000000 1.0
C      1  0.4614160000000  0.5493540000000  0.5260030000000 1.0
C      1  0.4721360000000  0.4772450000000  0.5341120000000 1.0
C      1  0.4667170000000  0.5279260000000  0.5967050000000 1.0
C      1  0.4972780000000  0.4903600000000  0.4128850000000 1.0
C      1  0.5879710000000  0.5812070000000  0.5015850000000 1.0
C      1  0.4568080000000  0.4825650000000  0.5109350000000 1.0
C      1  0.5653150000000  0.5268310000000  0.6544500000000 1.0
C      1  0.4534400000000  0.5555240000000  0.5001170000000 1.0
C      1  0.4957430000000  0.4877520000000  0.4859740000000 1.0
C      1  0.4599970000000  0.5005810000000  0.4409170000000 1.0
C      1  0.5522230000000  0.4808920000000  0.5239370000000 1.0
C      1  0.3981140000000  0.5312860000000  0.4930330000000 1.0
C      1  0.5797040000000  0.5698170000000  0.4406110000000 1.0
C      1  0.5586980000000  0.4772880000000  0.3982710000000 1.0
C      1  0.4120850000000  0.5027660000000  0.5329510000000 1.0
C      1  0.5628950000000  0.5838900000000  0.4890090000000 1.0
C      1  0.5606230000000  0.5765920000000  0.4611000000000 1.0
C      1  0.4657310000000  0.4306050000000  0.5293720000000 1.0
C      1  0.5140740000000  0.4265390000000  0.4600740000000 1.0
C      1  0.4492440000000  0.4567120000000  0.5802500000000 1.0
C      1  0.4836310000000  0.4493630000000  0.3555020000000 1.0
C      1  0.4808250000000  0.6067880000000  0.4903470000000 1.0
C      1  0.4876690000000  0.3956280000000  0.4950610000000 1.0
C      1  0.3703430000000  0.5858850000000  0.5577010000000 1.0
C      1  0.4387110000000  0.5575980000000  0.4013510000000 1.0
C      1  0.4056950000000  0.5095210000000  0.5815610000000 1.0
C      1  0.5328880000000  0.5168020000000  0.4404630000000 1.0
C      1  0.4224670000000  0.4374910000000  0.4968240000000 1.0
C      1  0.6038820000000  0.4609230000000  0.5422560000000 1.0
C      1  0.5023570000000  0.5143700000000  0.4890170000000 1.0
C      1  0.5376570000000  0.5856310000000  0.5701060000000 1.0
C      1  0.5481340000000  0.5455020000000  0.4060070000000 1.0
C      1  0.3907320000000  0.5681820000000  0.5537460000000 1.0
C      1  0.5986340000000  0.4859140000000  0.5333660000000 1.0
C      1  0.4843800000000  0.5384580000000  0.4301500000000 1.0
C      1  0.4993880000000  0.5564680000000  0.4137100000000 1.0
C      1  0.4920840000000  0.3932400000000  0.5417910000000 1.0
C      1  0.6071500000000  0.5626370000000  0.4976370000000 1.0
C      1  0.4697910000000  0.5057030000000  0.5797510000000 1.0
C      1  0.5723850000000  0.4381090000000  0.5712200000000 1.0
C      1  0.5246730000000  0.5999730000000  0.5204910000000 1.0
C      1  0.4319240000000  0.4932030000000  0.5157120000000 1.0
C      1  0.5459620000000  0.3997080000000  0.4894400000000 1.0
C      1  0.4372810000000  0.5288970000000  0.3998880000000 1.0
C      1  0.5011940000000  0.6125750000000  0.5093930000000 1.0
C      1  0.4855310000000  0.5818220000000  0.4776110000000 1.0
C      1  0.5757900000000  0.4332480000000  0.4235540000000 1.0
C      1  0.4627780000000  0.5617510000000  0.5530840000000 1.0
C      1  0.5104790000000  0.4044650000000  0.5965890000000 1.0
C      1  0.4283330000000  0.4693990000000  0.5683500000000 1.0
C      1  0.3974610000000  0.5106290000000  0.4722990000000 1.0
C      1  0.3942830000000  0.4834040000000  0.4823090000000 1.0
C      1  0.4601370000000  0.4013300000000  0.4918710000000 1.0
C      1  0.4456630000000  0.6022450000000  0.4294720000000 1.0
C      1  0.5197640000000  0.4276300000000  0.5851360000000 1.0
C      1  0.6035450000000  0.5581650000000  0.4502780000000 1.0
C      1  0.5060070000000  0.4765880000000  0.3900170000000 1.0
C      1  0.5285260000000  0.5397750000000  0.4579770000000 1.0
C      1  0.4163590000000  0.5727370000000  0.5643420000000 1.0
C      1  0.4181730000000  0.5177620000000  0.4197000000000 1.0
C      1  0.5788250000000  0.4571990000000  0.5926040000000 1.0
C      1  0.4186340000000  0.3891700000000  0.5325200000000 1.0
C      1  0.5669300000000  0.5320760000000  0.6054940000000 1.0
C      1  0.6040480000000  0.5175410000000  0.4766930000000 1.0
C      1  0.5090910000000  0.4431220000000  0.4805590000000 1.0
C      1  0.4085100000000  0.4130500000000  0.4881800000000 1.0
C      1  0.5674400000000  0.4112810000000  0.4737150000000 1.0
C      1  0.5296470000000  0.4882740000000  0.4451450000000 1.0
C      1  0.5327930000000  0.4363660000000  0.5202370000000 1.0
C      1  0.4159850000000  0.4088920000000  0.4605940000000 1.0
C      1  0.5820340000000  0.5036930000000  0.4910590000000 1.0
C      1  0.4516440000000  0.6159440000000  0.4518600000000 1.0
C      1  0.5300840000000  0.4091920000000  0.5114360000000 1.0
C      1  0.3870120000000  0.5446510000000  0.5388350000000 1.0
C      1  0.5056580000000  0.3958180000000  0.5168070000000 1.0
C      1  0.4023080000000  0.5589140000000  0.4872960000000 1.0
C      1  0.6059300000000  0.5005580000000  0.5945890000000 1.0
C      1  0.4848680000000  0.5327230000000  0.5259700000000 1.0
C      1  0.5206010000000  0.5478470000000  0.3959650000000 1.0
C      1  0.5281350000000  0.5544690000000  0.5032850000000 1.0
C      1  0.4834720000000  0.4701070000000  0.3732060000000 1.0
C      1  0.4579150000000  0.5156180000000  0.3821840000000 1.0
C      1  0.5552050000000  0.5219760000000  0.6296190000000 1.0
C      1  0.4822500000000  0.5291420000000  0.3729470000000 1.0
C      1  0.6065600000000  0.5035660000000  0.4511730000000 1.0
C      1  0.5611590000000  0.4243400000000  0.4468550000000 1.0
C      1  0.5294980000000  0.5091450000000  0.3683180000000 1.0
C      1  0.5389540000000  0.5806070000000  0.5046750000000 1.0
C      1  0.4823450000000  0.5093740000000  0.4257700000000 1.0
C      1  0.5315050000000  0.5997960000000  0.5480170000000 1.0
C      1  0.4386620000000  0.4177880000000  0.4477920000000 1.0
C      1  0.4605260000000  0.4874290000000  0.3767500000000 1.0
C      1  0.5459110000000  0.4277290000000  0.5735280000000 1.0
C      1  0.4181420000000  0.5278120000000  0.5968530000000 1.0
C      1  0.4669030000000  0.5440510000000  0.4539210000000 1.0
C      1  0.4130430000000  0.4924780000000  0.5602240000000 1.0
C      1  0.5347290000000  0.5678930000000  0.4535700000000 1.0
C      1  0.5929350000000  0.5235770000000  0.5990430000000 1.0
C      1  0.5268940000000  0.4915310000000  0.5657060000000 1.0
C      1  0.5285780000000  0.4784170000000  0.5408660000000 1.0
C      1  0.4581820000000  0.4609840000000  0.4650060000000 1.0
C      1  0.5036950000000  0.4517370000000  0.5871530000000 1.0
C      1  0.4902300000000  0.5585730000000  0.5636760000000 1.0
C      1  0.5814340000000  0.4918320000000  0.4430000000000 1.0
C      1  0.5075090000000  0.5214960000000  0.6231240000000 1.0
C      1  0.5390550000000  0.5168110000000  0.5694240000000 1.0
C      1  0.5897980000000  0.4363110000000  0.5471870000000 1.0
C      1  0.5682180000000  0.4976390000000  0.4173910000000 1.0
C      1  0.5672480000000  0.4895290000000  0.4698370000000 1.0
C      1  0.4699510000000  0.4767870000000  0.4862310000000 1.0
C      1  0.5851930000000  0.4227180000000  0.4949030000000 1.0
C      1  0.5199170000000  0.5352250000000  0.4846500000000 1.0
C      1  0.5133720000000  0.4532840000000  0.5342820000000 1.0
C      1  0.5336290000000  0.4839880000000  0.3825580000000 1.0
C      1  0.4384810000000  0.3548150000000  0.4758960000000 1.0
C      1  0.4411010000000  0.5616480000000  0.5713190000000 1.0
C      1  0.4915840000000  0.5382820000000  0.6067590000000 1.0
C      1  0.4047190000000  0.3951090000000  0.5099260000000 1.0
C      1  0.4847040000000  0.4518920000000  0.5337700000000 1.0
C      1  0.4130710000000  0.4616830000000  0.4827880000000 1.0
C      1  0.4512330000000  0.5202970000000  0.4574880000000 1.0
C      1  0.4750120000000  0.4514380000000  0.5871400000000 1.0
C      1  0.4421510000000  0.5421250000000  0.5925560000000 1.0
C      1  0.5315560000000  0.5064180000000  0.6250790000000 1.0
C      1  0.4306330000000  0.6034280000000  0.4925770000000 1.0
C      1  0.5291560000000  0.4618560000000  0.4325720000000 1.0
C      1  0.5171470000000  0.4698700000000  0.4838780000000 1.0
C      1  0.5317060000000  0.5624430000000  0.5853730000000 1.0
C      1  0.5340610000000  0.4350980000000  0.4425070000000 1.0
C      1  0.5515040000000  0.5206610000000  0.4192420000000 1.0
C      1  0.4122650000000  0.5836930000000  0.4908530000000 1.0
C      1  0.5585950000000  0.4652400000000  0.6113640000000 1.0
C      1  0.5112070000000  0.5303780000000  0.3751530000000 1.0
C      1  0.5349300000000  0.4810380000000  0.6117720000000 1.0
C      1  0.4415890000000  0.3926310000000  0.5465400000000 1.0
C      1  0.5400960000000  0.4815150000000  0.4714190000000 1.0
C      1  0.5677820000000  0.5646110000000  0.4147050000000 1.0
C      1  0.5183790000000  0.5877920000000  0.4422840000000 1.0
C      1  0.5028060000000  0.5411350000000  0.5444390000000 1.0
C      1  0.4500040000000  0.4265150000000  0.5049980000000 1.0
C      1  0.4594740000000  0.4353920000000  0.4516450000000 1.0
C      1  0.4666900000000  0.4060090000000  0.5448120000000 1.0
C      1  0.6012920000000  0.4742340000000  0.5922630000000 1.0
C      1  0.4048060000000  0.5151080000000  0.4439340000000 1.0
C      1  0.4679030000000  0.5605210000000  0.4762120000000 1.0
C      1  0.4541160000000  0.6142000000000  0.4803680000000 1.0
END
