TITL C-3623285-6872-332 964.700166786073 125000 -1099.59315142466 0 0 177 (C1) n - 1
REM
REM in /home/nfs/bkarasulu/CARBON/AIRSS/Generating-Clusters/LCBOP/Higher-Symm/SD-CG/FIRE-CG
REM
REM
REM
REM
REM
REM ./C.cell (b20cbc046b6831c77cfcea5457e17084)
REM AIRSS Version 0.9.1 bugfix July 2018 build 013d7b7c2542+ Fri, 06 Jul 2018 19:26:36 +0100
REM compiler GCC version 9.2.1 20190827 (Red Hat 9.2.1-1)
REM options -cpp -mtune=generic -march=x86-64 -g -O0 -fpre-include=/usr/include/finclude/math-vector-fortran.h
REM seed -1698941339 1183350714 1424251036 1005434261 -645337730 -1849667572 1255167282 919820915 -1300771717 105005842 -1521775455 -1758253628 -1983433191 1267472174 -576987511 -171775295 20643190 27934289 839886923 33281978 -1057701311 1129881029 324487437 -1192440968 1078371257 217764005 -1080752695 838124720 -959247432 675082984 789609774 699498390 -23484881
REM
CELL 1.54180   50.00000   50.00000   50.00000   90.00000   90.00000   90.00000
LATT -1
SFAC C  
C      1  0.4598640000000  0.3905140000000  0.4891240000000 1.0
C      1  0.3616260000000  0.5056310000000  0.5438220000000 1.0
C      1  0.4586730000000  0.6110060000000  0.4943140000000 1.0
C      1  0.6001540000000  0.5679590000000  0.5081830000000 1.0
C      1  0.5928370000000  0.4328210000000  0.5182680000000 1.0
C      1  0.4398980000000  0.4746810000000  0.5844680000000 1.0
C      1  0.4719290000000  0.5622140000000  0.5755350000000 1.0
C      1  0.5419940000000  0.5747780000000  0.5773720000000 1.0
C      1  0.5406390000000  0.4792370000000  0.5830800000000 1.0
C      1  0.5114170000000  0.3745880000000  0.5696010000000 1.0
C      1  0.6168770000000  0.5232750000000  0.4620100000000 1.0
C      1  0.5646500000000  0.4048850000000  0.4492540000000 1.0
C      1  0.4225460000000  0.4343470000000  0.4399890000000 1.0
C      1  0.3901820000000  0.5243710000000  0.4684820000000 1.0
C      1  0.5170810000000  0.6143250000000  0.4398380000000 1.0
C      1  0.6298880000000  0.5134810000000  0.5102480000000 1.0
C      1  0.5523700000000  0.3799690000000  0.4904290000000 1.0
C      1  0.3998220000000  0.4264630000000  0.4872400000000 1.0
C      1  0.3916590000000  0.5615070000000  0.5013540000000 1.0
C      1  0.5338040000000  0.6298980000000  0.4841420000000 1.0
C      1  0.5055400000000  0.6352950000000  0.5247080000000 1.0
C      1  0.6202800000000  0.5338260000000  0.5542630000000 1.0
C      1  0.5641170000000  0.3883150000000  0.5392150000000 1.0
C      1  0.4179810000000  0.4037700000000  0.5274360000000 1.0
C      1  0.3914930000000  0.5512380000000  0.5506200000000 1.0
C      1  0.5948570000000  0.4345040000000  0.4912390000000 1.0
C      1  0.4668380000000  0.3918500000000  0.4632020000000 1.0
C      1  0.3475240000000  0.4984450000000  0.5222340000000 1.0
C      1  0.4580440000000  0.6047180000000  0.4679350000000 1.0
C      1  0.5998290000000  0.5703740000000  0.4813110000000 1.0
C      1  0.3399610000000  0.4831940000000  0.4748230000000 1.0
C      1  0.4537960000000  0.5758120000000  0.4251210000000 1.0
C      1  0.5814850000000  0.5728620000000  0.4328510000000 1.0
C      1  0.5959060000000  0.4599410000000  0.4449400000000 1.0
C      1  0.4947940000000  0.4051440000000  0.4230170000000 1.0
C      1  0.5270850000000  0.5192220000000  0.4368200000000 1.0
C      1  0.5251350000000  0.4910120000000  0.4460110000000 1.0
C      1  0.4988270000000  0.4813800000000  0.4419430000000 1.0
C      1  0.4817660000000  0.5027420000000  0.4284410000000 1.0
C      1  0.4974730000000  0.5264370000000  0.4380160000000 1.0
C      1  0.4080540000000  0.5085380000000  0.4536940000000 1.0
C      1  0.5136550000000  0.5868880000000  0.4363240000000 1.0
C      1  0.5913060000000  0.5196860000000  0.4508090000000 1.0
C      1  0.5513220000000  0.4286690000000  0.4430400000000 1.0
C      1  0.4476350000000  0.4455420000000  0.4342640000000 1.0
C      1  0.4922250000000  0.6109280000000  0.5284540000000 1.0
C      1  0.5938030000000  0.5432670000000  0.5510890000000 1.0
C      1  0.5593870000000  0.4150300000000  0.5469130000000 1.0
C      1  0.4454030000000  0.4104730000000  0.5315920000000 1.0
C      1  0.4045310000000  0.5263490000000  0.5553590000000 1.0
C      1  0.5230760000000  0.6433180000000  0.5061360000000 1.0
C      1  0.6366890000000  0.5247230000000  0.5349310000000 1.0
C      1  0.5624930000000  0.3748870000000  0.5160260000000 1.0
C      1  0.4025260000000  0.4049790000000  0.5052870000000 1.0
C      1  0.3846540000000  0.5645930000000  0.5283180000000 1.0
C      1  0.5276440000000  0.5503200000000  0.5718010000000 1.0
C      1  0.5157950000000  0.4671260000000  0.5718830000000 1.0
C      1  0.4859080000000  0.4693330000000  0.5691570000000 1.0
C      1  0.4626160000000  0.4877440000000  0.5726170000000 1.0
C      1  0.4987110000000  0.5542740000000  0.5670090000000 1.0
C      1  0.4519220000000  0.4367490000000  0.5425990000000 1.0
C      1  0.4330590000000  0.5263070000000  0.5501230000000 1.0
C      1  0.5068250000000  0.5871940000000  0.5336670000000 1.0
C      1  0.5714370000000  0.5257080000000  0.5560480000000 1.0
C      1  0.5328470000000  0.4259190000000  0.5456900000000 1.0
C      1  0.4621280000000  0.3926060000000  0.5171740000000 1.0
C      1  0.3866260000000  0.5042440000000  0.5566690000000 1.0
C      1  0.4649450000000  0.6084150000000  0.5218870000000 1.0
C      1  0.5921730000000  0.5670880000000  0.5353500000000 1.0
C      1  0.5806250000000  0.4333310000000  0.5439300000000 1.0
C      1  0.5074790000000  0.5611860000000  0.4835180000000 1.0
C      1  0.5606430000000  0.5165190000000  0.4924600000000 1.0
C      1  0.5364100000000  0.4491570000000  0.4888040000000 1.0
C      1  0.4623080000000  0.4521650000000  0.4846030000000 1.0
C      1  0.4487440000000  0.5161000000000  0.4822620000000 1.0
C      1  0.5771900000000  0.4980510000000  0.5506440000000 1.0
C      1  0.5153090000000  0.4075250000000  0.5329590000000 1.0
C      1  0.4285960000000  0.4540400000000  0.5411340000000 1.0
C      1  0.4414230000000  0.5507970000000  0.5370020000000 1.0
C      1  0.5349070000000  0.5902480000000  0.5314140000000 1.0
C      1  0.5700490000000  0.6033000000000  0.4680500000000 1.0
C      1  0.6155060000000  0.4746500000000  0.4877490000000 1.0
C      1  0.5126460000000  0.3835490000000  0.4629730000000 1.0
C      1  0.3733730000000  0.4640700000000  0.5027240000000 1.0
C      1  0.4236290000000  0.5739190000000  0.4658260000000 1.0
C      1  0.3956580000000  0.4797130000000  0.5662290000000 1.0
C      1  0.4504810000000  0.5966550000000  0.5431560000000 1.0
C      1  0.5790880000000  0.5884180000000  0.5480700000000 1.0
C      1  0.5805520000000  0.4531770000000  0.5639040000000 1.0
C      1  0.4796100000000  0.3770990000000  0.5325060000000 1.0
C      1  0.4536420000000  0.5042460000000  0.4357250000000 1.0
C      1  0.4866460000000  0.5498930000000  0.4465640000000 1.0
C      1  0.5458550000000  0.5347000000000  0.4525120000000 1.0
C      1  0.5462460000000  0.4751460000000  0.4530020000000 1.0
C      1  0.4906630000000  0.4562850000000  0.4487820000000 1.0
C      1  0.5695130000000  0.5587440000000  0.4128720000000 1.0
C      1  0.5820730000000  0.4675310000000  0.4223040000000 1.0
C      1  0.4986280000000  0.4254170000000  0.4055100000000 1.0
C      1  0.3478400000000  0.4805130000000  0.4493230000000 1.0
C      1  0.4691210000000  0.5628340000000  0.4060030000000 1.0
C      1  0.5866980000000  0.4914230000000  0.5235700000000 1.0
C      1  0.5151290000000  0.4090730000000  0.5044670000000 1.0
C      1  0.4215210000000  0.4602810000000  0.5138550000000 1.0
C      1  0.4394010000000  0.5551900000000  0.5081280000000 1.0
C      1  0.5434910000000  0.5851570000000  0.5048310000000 1.0
C      1  0.4649760000000  0.4489360000000  0.4567860000000 1.0
C      1  0.4363370000000  0.5102020000000  0.4571090000000 1.0
C      1  0.5028230000000  0.5704010000000  0.4570620000000 1.0
C      1  0.5679150000000  0.5244040000000  0.4666630000000 1.0
C      1  0.5463710000000  0.4489030000000  0.4626810000000 1.0
C      1  0.3517050000000  0.4816250000000  0.5002310000000 1.0
C      1  0.4449370000000  0.5856780000000  0.4510060000000 1.0
C      1  0.5860440000000  0.5820290000000  0.4593900000000 1.0
C      1  0.6025810000000  0.4547520000000  0.4724960000000 1.0
C      1  0.4906330000000  0.3924180000000  0.4479410000000 1.0
C      1  0.5427330000000  0.5313320000000  0.5549760000000 1.0
C      1  0.5262490000000  0.4541020000000  0.5479170000000 1.0
C      1  0.4764110000000  0.4527100000000  0.5461610000000 1.0
C      1  0.4545850000000  0.5065090000000  0.5512570000000 1.0
C      1  0.4982560000000  0.5600380000000  0.5388960000000 1.0
C      1  0.4663210000000  0.5023400000000  0.5259100000000 1.0
C      1  0.4925260000000  0.5382710000000  0.5219660000000 1.0
C      1  0.5317310000000  0.5222000000000  0.5302880000000 1.0
C      1  0.5288970000000  0.4740840000000  0.5280620000000 1.0
C      1  0.4871160000000  0.4644570000000  0.5226960000000 1.0
C      1  0.5478300000000  0.4379000000000  0.4162170000000 1.0
C      1  0.4605240000000  0.4529120000000  0.4091970000000 1.0
C      1  0.3952870000000  0.4904270000000  0.4362380000000 1.0
C      1  0.5149080000000  0.5743120000000  0.4105580000000 1.0
C      1  0.5852980000000  0.5163570000000  0.4229370000000 1.0
C      1  0.5252780000000  0.3885510000000  0.4875400000000 1.0
C      1  0.3979340000000  0.4515410000000  0.5008180000000 1.0
C      1  0.4182000000000  0.5672820000000  0.4931340000000 1.0
C      1  0.5503240000000  0.6068560000000  0.4875150000000 1.0
C      1  0.6125090000000  0.4909030000000  0.5107290000000 1.0
C      1  0.5516850000000  0.5885420000000  0.5540740000000 1.0
C      1  0.5665400000000  0.4775510000000  0.5679720000000 1.0
C      1  0.5025960000000  0.3858580000000  0.5458090000000 1.0
C      1  0.4201620000000  0.4665590000000  0.5652390000000 1.0
C      1  0.4531540000000  0.5705920000000  0.5541540000000 1.0
C      1  0.5320920000000  0.3563840000000  0.6143600000000 1.0
C      1  0.4352380000000  0.4667360000000  0.6374880000000 1.0
C      1  0.4566510000000  0.5590900000000  0.6271070000000 1.0
C      1  0.5491750000000  0.5922200000000  0.6277900000000 1.0
C      1  0.5384760000000  0.5068760000000  0.6293960000000 1.0
C      1  0.4518780000000  0.4960940000000  0.5022050000000 1.0
C      1  0.4857410000000  0.5465340000000  0.4962620000000 1.0
C      1  0.5426080000000  0.5339030000000  0.5065240000000 1.0
C      1  0.5452840000000  0.4706120000000  0.5060920000000 1.0
C      1  0.4873080000000  0.4496750000000  0.4991510000000 1.0
C      1  0.5681600000000  0.3859360000000  0.4679190000000 1.0
C      1  0.4064670000000  0.4262800000000  0.4599270000000 1.0
C      1  0.3793680000000  0.5425340000000  0.4847630000000 1.0
C      1  0.5231620000000  0.6326950000000  0.4582900000000 1.0
C      1  0.6320600000000  0.5245670000000  0.4842990000000 1.0
C      1  0.5653610000000  0.4909310000000  0.5041270000000 1.0
C      1  0.5117510000000  0.4353850000000  0.4943090000000 1.0
C      1  0.4432120000000  0.4694060000000  0.4976150000000 1.0
C      1  0.4582230000000  0.5415810000000  0.4910630000000 1.0
C      1  0.5335360000000  0.5596270000000  0.4957780000000 1.0
C      1  0.4373960000000  0.4704030000000  0.6117790000000 1.0
C      1  0.4641730000000  0.5615380000000  0.6022780000000 1.0
C      1  0.5459200000000  0.5841410000000  0.6032290000000 1.0
C      1  0.5397910000000  0.4923180000000  0.6078220000000 1.0
C      1  0.5215300000000  0.3652410000000  0.5922330000000 1.0
C      1  0.4912810000000  0.5020290000000  0.3988740000000 1.0
C      1  0.5078110000000  0.5272310000000  0.3934420000000 1.0
C      1  0.5363230000000  0.5175490000000  0.4064890000000 1.0
C      1  0.5353630000000  0.4834150000000  0.3994760000000 1.0
C      1  0.5054660000000  0.4759580000000  0.3946070000000 1.0
C      1  0.4967660000000  0.5548740000000  0.3991030000000 1.0
C      1  0.5645990000000  0.5306570000000  0.4082380000000 1.0
C      1  0.5560880000000  0.4645840000000  0.4083450000000 1.0
C      1  0.4885110000000  0.4516160000000  0.3997800000000 1.0
C      1  0.3701240000000  0.4811750000000  0.4344310000000 1.0
C      1  0.5048030000000  0.5002360000000  0.4927660000000 1.0
C      1  0.5024320000000  0.5003860000000  0.5221610000000 1.0
END
