TITL C-3623284-6838-601 -8.49224428328881e-05 125000 -654.254676906303 0 0 110 (C1) n - 1
REM
REM in /home/nfs/bkarasulu/CARBON/AIRSS/Generating-Clusters/LCBOP/Higher-Symm/SD-CG/FIRE-CG
REM
REM
REM
REM
REM
REM ./C.cell (b20cbc046b6831c77cfcea5457e17084)
REM AIRSS Version 0.9.1 bugfix July 2018 build 013d7b7c2542+ Fri, 06 Jul 2018 19:26:36 +0100
REM compiler GCC version 9.2.1 20190827 (Red Hat 9.2.1-1)
REM options -cpp -mtune=generic -march=x86-64 -g -O0 -fpre-include=/usr/include/finclude/math-vector-fortran.h
REM seed 667713389 589173438 -1893829505 -1454720355 -1689917118 -155167617 -449252313 2087301658 -1195451125 -769534400 -720805420 -1118707823 948279358 -1749427513 1034753851 -859614161 -1290814845 -978287093 1038612427 1874630309 -1781202613 -1048899520 1199390675 555531934 1839609482 -362039424 -1412298524 65108004 103452638 235767527 -555939764 -43660324 1301853757
REM
CELL 1.54180   50.00000   50.00000   50.00000   90.00000   90.00000   90.00000
LATT -1
SFAC C  
C      1  0.5360070000000  0.4978450000000  0.4301270000000 1.0
C      1  0.4697950000000  0.5216280000000  0.5453060000000 1.0
C      1  0.5653230000000  0.5476250000000  0.5268140000000 1.0
C      1  0.4557330000000  0.5384870000000  0.4306560000000 1.0
C      1  0.5883830000000  0.5442980000000  0.5085250000000 1.0
C      1  0.5666570000000  0.4438710000000  0.4495690000000 1.0
C      1  0.5410870000000  0.5009180000000  0.5757560000000 1.0
C      1  0.5935700000000  0.4786590000000  0.4765840000000 1.0
C      1  0.4243010000000  0.5446540000000  0.5419730000000 1.0
C      1  0.4168510000000  0.5574460000000  0.4467830000000 1.0
C      1  0.4437250000000  0.4902150000000  0.4264980000000 1.0
C      1  0.5735910000000  0.4295680000000  0.4251590000000 1.0
C      1  0.4832340000000  0.4589530000000  0.5822540000000 1.0
C      1  0.5838660000000  0.3181660000000  0.5286600000000 1.0
C      1  0.5026210000000  0.5623380000000  0.4551520000000 1.0
C      1  0.5967240000000  0.4864440000000  0.5017810000000 1.0
C      1  0.6144740000000  0.4616850000000  0.5389560000000 1.0
C      1  0.5427120000000  0.4419010000000  0.4632850000000 1.0
C      1  0.4977210000000  0.4569630000000  0.4551570000000 1.0
C      1  0.4443840000000  0.4859490000000  0.3985260000000 1.0
C      1  0.4698760000000  0.5035210000000  0.5692400000000 1.0
C      1  0.6082330000000  0.4574940000000  0.4329330000000 1.0
C      1  0.4083590000000  0.5306810000000  0.4947350000000 1.0
C      1  0.5896110000000  0.4619650000000  0.4548640000000 1.0
C      1  0.4751720000000  0.4949270000000  0.4978100000000 1.0
C      1  0.5405900000000  0.5356230000000  0.5134140000000 1.0
C      1  0.4051390000000  0.4852490000000  0.4808510000000 1.0
C      1  0.4651550000000  0.5671400000000  0.3933890000000 1.0
C      1  0.5290600000000  0.3972380000000  0.5084040000000 1.0
C      1  0.4874010000000  0.5306510000000  0.5245420000000 1.0
C      1  0.5961550000000  0.4806950000000  0.5291720000000 1.0
C      1  0.4305140000000  0.4941350000000  0.5438850000000 1.0
C      1  0.4617800000000  0.5648660000000  0.4209410000000 1.0
C      1  0.4498230000000  0.5003770000000  0.3765700000000 1.0
C      1  0.4560030000000  0.6027770000000  0.5687430000000 1.0
C      1  0.5455260000000  0.4374380000000  0.5342880000000 1.0
C      1  0.5234790000000  0.6102750000000  0.5122480000000 1.0
C      1  0.4330150000000  0.4783560000000  0.4823770000000 1.0
C      1  0.4902320000000  0.5386160000000  0.4674730000000 1.0
C      1  0.5167170000000  0.4462850000000  0.4730420000000 1.0
C      1  0.5521910000000  0.5788810000000  0.6141920000000 1.0
C      1  0.5445670000000  0.5984150000000  0.5233430000000 1.0
C      1  0.5631640000000  0.5512550000000  0.5758160000000 1.0
C      1  0.4728420000000  0.4749360000000  0.5178800000000 1.0
C      1  0.5946240000000  0.3893410000000  0.5336170000000 1.0
C      1  0.5016520000000  0.4991080000000  0.4889930000000 1.0
C      1  0.4596870000000  0.5815510000000  0.4443940000000 1.0
C      1  0.3943040000000  0.4871230000000  0.5072170000000 1.0
C      1  0.5005540000000  0.6087980000000  0.4987490000000 1.0
C      1  0.5136360000000  0.4859990000000  0.4206580000000 1.0
C      1  0.6180810000000  0.4354190000000  0.5418740000000 1.0
C      1  0.4967490000000  0.5775590000000  0.5661920000000 1.0
C      1  0.4017220000000  0.4904540000000  0.5349800000000 1.0
C      1  0.4901850000000  0.4862500000000  0.5791660000000 1.0
C      1  0.5555020000000  0.5618880000000  0.4481310000000 1.0
C      1  0.4419630000000  0.4931870000000  0.5730150000000 1.0
C      1  0.5982440000000  0.4381440000000  0.4157300000000 1.0
C      1  0.5589090000000  0.5895160000000  0.6370170000000 1.0
C      1  0.4388780000000  0.4453470000000  0.5339300000000 1.0
C      1  0.4651620000000  0.5773880000000  0.5290450000000 1.0
C      1  0.4627580000000  0.5498860000000  0.3729300000000 1.0
C      1  0.4486260000000  0.4317930000000  0.5565060000000 1.0
C      1  0.3817740000000  0.4902960000000  0.5546740000000 1.0
C      1  0.4676340000000  0.4107680000000  0.4669940000000 1.0
C      1  0.5785360000000  0.5560650000000  0.4601900000000 1.0
C      1  0.5408450000000  0.5038150000000  0.4559620000000 1.0
C      1  0.4448090000000  0.5587150000000  0.4857810000000 1.0
C      1  0.5746990000000  0.3713000000000  0.5257090000000 1.0
C      1  0.4377340000000  0.4496380000000  0.4843680000000 1.0
C      1  0.4690230000000  0.5693090000000  0.5008670000000 1.0
C      1  0.4825910000000  0.5917590000000  0.4857950000000 1.0
C      1  0.4697890000000  0.4949590000000  0.4393390000000 1.0
C      1  0.5674560000000  0.5341610000000  0.5536770000000 1.0
C      1  0.5916770000000  0.5488490000000  0.4822760000000 1.0
C      1  0.5077140000000  0.3886430000000  0.4920500000000 1.0
C      1  0.5449780000000  0.5675050000000  0.5897530000000 1.0
C      1  0.4917740000000  0.4772680000000  0.4365730000000 1.0
C      1  0.4846730000000  0.5848470000000  0.4582610000000 1.0
C      1  0.4916170000000  0.4544010000000  0.5156080000000 1.0
C      1  0.4724690000000  0.5859420000000  0.5547920000000 1.0
C      1  0.4865710000000  0.5436340000000  0.4982330000000 1.0
C      1  0.6100330000000  0.4101770000000  0.5394580000000 1.0
C      1  0.4063180000000  0.5621920000000  0.5489690000000 1.0
C      1  0.4358250000000  0.5306460000000  0.4894450000000 1.0
C      1  0.5500540000000  0.3806650000000  0.5162790000000 1.0
C      1  0.4494060000000  0.5028700000000  0.4876890000000 1.0
C      1  0.3639420000000  0.4909200000000  0.5736650000000 1.0
C      1  0.5794480000000  0.3438120000000  0.5272410000000 1.0
C      1  0.5194770000000  0.5722370000000  0.5789280000000 1.0
C      1  0.4270600000000  0.5335910000000  0.4348720000000 1.0
C      1  0.5561940000000  0.4598280000000  0.5439540000000 1.0
C      1  0.5117090000000  0.4418550000000  0.5008020000000 1.0
C      1  0.4409270000000  0.5225600000000  0.5381800000000 1.0
C      1  0.5294000000000  0.4248350000000  0.5152540000000 1.0
C      1  0.5618780000000  0.5062890000000  0.5574030000000 1.0
C      1  0.4673400000000  0.4387000000000  0.5746490000000 1.0
C      1  0.5290050000000  0.5637090000000  0.4465250000000 1.0
C      1  0.5591520000000  0.5770120000000  0.5293990000000 1.0
C      1  0.4863690000000  0.3945200000000  0.4770140000000 1.0
C      1  0.4295150000000  0.4369260000000  0.5088730000000 1.0
C      1  0.4519130000000  0.4324880000000  0.4672430000000 1.0
C      1  0.4568070000000  0.5244260000000  0.3671350000000 1.0
C      1  0.4740790000000  0.5229150000000  0.4472310000000 1.0
C      1  0.5717620000000  0.4834890000000  0.5435110000000 1.0
C      1  0.5259120000000  0.5021340000000  0.4781640000000 1.0
C      1  0.4210360000000  0.5058000000000  0.4366800000000 1.0
C      1  0.4369710000000  0.5723220000000  0.4613370000000 1.0
C      1  0.4482250000000  0.4723830000000  0.5319220000000 1.0
C      1  0.4009940000000  0.4956750000000  0.4545280000000 1.0
C      1  0.5162880000000  0.4949930000000  0.5829300000000 1.0
END
