TITL C-3623282-6910-671 18974.4299126735 125000 -831.285671685219 0 0 136 (C1) n - 1
REM
REM in /home/nfs/bkarasulu/CARBON/AIRSS/Generating-Clusters/LCBOP/Higher-Symm/SD-CG/FIRE-CG
REM
REM
REM
REM
REM
REM ./C.cell (b20cbc046b6831c77cfcea5457e17084)
REM AIRSS Version 0.9.1 bugfix July 2018 build 013d7b7c2542+ Fri, 06 Jul 2018 19:26:36 +0100
REM compiler GCC version 9.2.1 20190827 (Red Hat 9.2.1-1)
REM options -cpp -mtune=generic -march=x86-64 -g -O0 -fpre-include=/usr/include/finclude/math-vector-fortran.h
REM seed 156088666 -316857187 -622589818 -110689318 -830766853 1097845350 -790419439 939519490 420436138 -111617024 45605744 263899337 277405911 -598016125 643679511 -252312318 -842532593 -873155678 430423674 -1548433327 367270221 199414861 538769413 797036131 1197779735 498913140 -1317923353 -1609228997 1993498689 -905970002 1902743210 1899253641 -1671233110
REM
CELL 1.54180   50.00000   50.00000   50.00000   90.00000   90.00000   90.00000
LATT -1
SFAC C  
C      1  0.5979760000000  0.5257100000000  0.5209300000000 1.0
C      1  0.4281030000000  0.5722280000000  0.5205970000000 1.0
C      1  0.4736980000000  0.4020730000000  0.5220310000000 1.0
C      1  0.4026310000000  0.5259550000000  0.4777320000000 1.0
C      1  0.5713690000000  0.5718110000000  0.4791870000000 1.0
C      1  0.5262600000000  0.4022490000000  0.4773470000000 1.0
C      1  0.4947240000000  0.4251930000000  0.4101350000000 1.0
C      1  0.5717390000000  0.5370600000000  0.4105830000000 1.0
C      1  0.4340620000000  0.5426190000000  0.4094700000000 1.0
C      1  0.5048200000000  0.4227200000000  0.5895710000000 1.0
C      1  0.4318580000000  0.5345640000000  0.5886170000000 1.0
C      1  0.5678430000000  0.5431250000000  0.5895210000000 1.0
C      1  0.4545630000000  0.5175980000000  0.4855270000000 1.0
C      1  0.5065360000000  0.4520090000000  0.4882740000000 1.0
C      1  0.5385030000000  0.5291360000000  0.4873370000000 1.0
C      1  0.5447530000000  0.5188790000000  0.5126330000000 1.0
C      1  0.4924360000000  0.4512270000000  0.5122170000000 1.0
C      1  0.4616530000000  0.5286300000000  0.5100850000000 1.0
C      1  0.5503120000000  0.4128880000000  0.4889820000000 1.0
C      1  0.5489860000000  0.5865390000000  0.4896530000000 1.0
C      1  0.4005090000000  0.4993260000000  0.4887270000000 1.0
C      1  0.4494050000000  0.4127890000000  0.5109170000000 1.0
C      1  0.4493990000000  0.5876390000000  0.5090310000000 1.0
C      1  0.5995320000000  0.4990150000000  0.5102620000000 1.0
C      1  0.5605900000000  0.4796570000000  0.5812840000000 1.0
C      1  0.4855160000000  0.5602850000000  0.5765540000000 1.0
C      1  0.4549130000000  0.4595380000000  0.5798070000000 1.0
C      1  0.4398670000000  0.4797890000000  0.4184310000000 1.0
C      1  0.5130540000000  0.5624800000000  0.4181100000000 1.0
C      1  0.5434000000000  0.4593380000000  0.4226810000000 1.0
C      1  0.4337790000000  0.5534670000000  0.5416100000000 1.0
C      1  0.4872580000000  0.4159200000000  0.5433910000000 1.0
C      1  0.5799080000000  0.5319140000000  0.5424130000000 1.0
C      1  0.5676860000000  0.5530830000000  0.4577130000000 1.0
C      1  0.5128070000000  0.4166480000000  0.4563400000000 1.0
C      1  0.4209090000000  0.5321910000000  0.4562200000000 1.0
C      1  0.5953440000000  0.5684460000000  0.4935160000000 1.0
C      1  0.3932730000000  0.5482510000000  0.4921400000000 1.0
C      1  0.5106290000000  0.3836380000000  0.4914880000000 1.0
C      1  0.4039750000000  0.5679400000000  0.5068200000000 1.0
C      1  0.6070610000000  0.5481880000000  0.5066400000000 1.0
C      1  0.4891790000000  0.3836490000000  0.5074930000000 1.0
C      1  0.4859460000000  0.5764710000000  0.4796950000000 1.0
C      1  0.4393610000000  0.4489100000000  0.4803890000000 1.0
C      1  0.5708100000000  0.4732670000000  0.4805140000000 1.0
C      1  0.5118240000000  0.5748950000000  0.5188320000000 1.0
C      1  0.5592910000000  0.4493980000000  0.5192770000000 1.0
C      1  0.4279230000000  0.4727930000000  0.5192280000000 1.0
C      1  0.4111040000000  0.5154790000000  0.5866740000000 1.0
C      1  0.5317120000000  0.4144280000000  0.5872390000000 1.0
C      1  0.5596690000000  0.5700860000000  0.5874990000000 1.0
C      1  0.5911960000000  0.5166950000000  0.4125070000000 1.0
C      1  0.4680500000000  0.4161120000000  0.4125960000000 1.0
C      1  0.4413460000000  0.5698660000000  0.4110460000000 1.0
C      1  0.4876740000000  0.4095020000000  0.5708220000000 1.0
C      1  0.5868250000000  0.5358560000000  0.5694300000000 1.0
C      1  0.4289520000000  0.5558440000000  0.5694230000000 1.0
C      1  0.5123940000000  0.4117580000000  0.4284770000000 1.0
C      1  0.4144630000000  0.5354900000000  0.4290260000000 1.0
C      1  0.5747230000000  0.5570910000000  0.4307400000000 1.0
C      1  0.6050580000000  0.5003590000000  0.4595650000000 1.0
C      1  0.4454000000000  0.5910180000000  0.4580750000000 1.0
C      1  0.4487860000000  0.4066000000000  0.4597940000000 1.0
C      1  0.3948330000000  0.5013610000000  0.5396380000000 1.0
C      1  0.5523790000000  0.5903360000000  0.5404220000000 1.0
C      1  0.5510060000000  0.4067280000000  0.5398710000000 1.0
C      1  0.5279000000000  0.4832250000000  0.5466450000000 1.0
C      1  0.5040360000000  0.5291640000000  0.5479380000000 1.0
C      1  0.4719510000000  0.4877020000000  0.5457560000000 1.0
C      1  0.4719040000000  0.4830320000000  0.4533650000000 1.0
C      1  0.4992460000000  0.5325390000000  0.4528150000000 1.0
C      1  0.5258900000000  0.4897750000000  0.4526660000000 1.0
C      1  0.4600690000000  0.5013110000000  0.4249440000000 1.0
C      1  0.5145920000000  0.4683470000000  0.4297690000000 1.0
C      1  0.5223750000000  0.5349170000000  0.4240960000000 1.0
C      1  0.5413630000000  0.5016760000000  0.5754420000000 1.0
C      1  0.4833040000000  0.4666090000000  0.5729120000000 1.0
C      1  0.4793020000000  0.5307520000000  0.5699950000000 1.0
C      1  0.4269740000000  0.4510780000000  0.5382960000000 1.0
C      1  0.5793050000000  0.4593540000000  0.5381720000000 1.0
C      1  0.4932690000000  0.5882370000000  0.5364480000000 1.0
C      1  0.5724850000000  0.4510950000000  0.4621510000000 1.0
C      1  0.4200140000000  0.4592630000000  0.4610970000000 1.0
C      1  0.5049100000000  0.5888170000000  0.4611500000000 1.0
C      1  0.5467040000000  0.4064780000000  0.5663310000000 1.0
C      1  0.5562300000000  0.5868410000000  0.5667080000000 1.0
C      1  0.3967750000000  0.5058840000000  0.5659910000000 1.0
C      1  0.4534110000000  0.4071310000000  0.4333640000000 1.0
C      1  0.4428540000000  0.5871470000000  0.4316620000000 1.0
C      1  0.6040980000000  0.5054400000000  0.4332770000000 1.0
C      1  0.5923760000000  0.4921250000000  0.4832490000000 1.0
C      1  0.4587160000000  0.5849060000000  0.4820460000000 1.0
C      1  0.4463300000000  0.4213430000000  0.4836030000000 1.0
C      1  0.4070090000000  0.4922980000000  0.5159820000000 1.0
C      1  0.5391070000000  0.5837790000000  0.5165310000000 1.0
C      1  0.5527230000000  0.4217340000000  0.5161950000000 1.0
C      1  0.5017760000000  0.4530880000000  0.4050000000000 1.0
C      1  0.5444110000000  0.5323410000000  0.4031480000000 1.0
C      1  0.4523590000000  0.5213190000000  0.4034720000000 1.0
C      1  0.4968670000000  0.4498570000000  0.5954600000000 1.0
C      1  0.4595550000000  0.5273420000000  0.5944250000000 1.0
C      1  0.5501660000000  0.5216670000000  0.5967720000000 1.0
C      1  0.4469750000000  0.5293810000000  0.5338750000000 1.0
C      1  0.5009590000000  0.4400880000000  0.5362510000000 1.0
C      1  0.5518330000000  0.5328840000000  0.5362630000000 1.0
C      1  0.5542970000000  0.5284170000000  0.4637580000000 1.0
C      1  0.4986920000000  0.4401670000000  0.4643980000000 1.0
C      1  0.4490280000000  0.5328190000000  0.4626540000000 1.0
C      1  0.5095590000000  0.4627700000000  0.5524470000000 1.0
C      1  0.5301330000000  0.5273570000000  0.5539320000000 1.0
C      1  0.4617650000000  0.5122760000000  0.5518170000000 1.0
C      1  0.4897180000000  0.4620790000000  0.4477120000000 1.0
C      1  0.4723970000000  0.5285950000000  0.4466390000000 1.0
C      1  0.5383950000000  0.5126660000000  0.4460950000000 1.0
C      1  0.5212670000000  0.4778430000000  0.4843070000000 1.0
C      1  0.5130910000000  0.5390810000000  0.4772560000000 1.0
C      1  0.4588510000000  0.4906890000000  0.4774990000000 1.0
C      1  0.4764210000000  0.4758420000000  0.5168510000000 1.0
C      1  0.4913060000000  0.5297600000000  0.5158530000000 1.0
C      1  0.5411750000000  0.4917840000000  0.5225170000000 1.0
C      1  0.4936640000000  0.5821680000000  0.5637430000000 1.0
C      1  0.4326450000000  0.4554850000000  0.5654400000000 1.0
C      1  0.5735220000000  0.4619370000000  0.5656560000000 1.0
C      1  0.5044380000000  0.5827200000000  0.4336340000000 1.0
C      1  0.5665880000000  0.4551980000000  0.4351210000000 1.0
C      1  0.4264340000000  0.4621760000000  0.4337690000000 1.0
C      1  0.4003530000000  0.4770740000000  0.4711520000000 1.0
C      1  0.5693710000000  0.4248060000000  0.4718330000000 1.0
C      1  0.5298100000000  0.5972700000000  0.4717360000000 1.0
C      1  0.5991650000000  0.4768320000000  0.5279210000000 1.0
C      1  0.4308300000000  0.4248160000000  0.5285940000000 1.0
C      1  0.4690490000000  0.5984260000000  0.5262630000000 1.0
C      1  0.4995110000000  0.5551190000000  0.4986670000000 1.0
C      1  0.5477320000000  0.4721710000000  0.5007960000000 1.0
C      1  0.4510560000000  0.4712930000000  0.4989440000000 1.0
C      1  0.4993010000000  0.4984980000000  0.5035790000000 1.0
END
