TITL C-3623285-6872-1079 0.0087679903905346 125000 -54.5616250482495 0 0 11 (Cs) n - 1
REM
REM in /home/nfs/bkarasulu/CARBON/AIRSS/Generating-Clusters/LCBOP/Higher-Symm/SD-CG/FIRE-CG
REM
REM
REM
REM
REM
REM ./C.cell (b20cbc046b6831c77cfcea5457e17084)
REM AIRSS Version 0.9.1 bugfix July 2018 build 013d7b7c2542+ Fri, 06 Jul 2018 19:26:36 +0100
REM compiler GCC version 9.2.1 20190827 (Red Hat 9.2.1-1)
REM options -cpp -mtune=generic -march=x86-64 -g -O0 -fpre-include=/usr/include/finclude/math-vector-fortran.h
REM seed 1052713677 1419152087 -1015573186 782540721 -2087788564 -998128920 1584693398 -1993659287 1082347766 464600336 1240819825 -273428942 845527353 -436873311 191379038 353671983 -814308788 1972220193 2016541825 -1139434720 -1922968828 -1512140341 -793600225 -2086107285 861895488 80508837 1103835310 1033449961 -1678503672 2013599677 560072425 -1591058783 395959170
REM
CELL 1.54180   50.00000   50.00000   50.00000   90.00000   90.00000   90.00000
LATT -1
SFAC C  
C      1  0.4672430000000  0.4446860000000  0.4883660000000 1.0
C      1  0.4764600000000  0.4683890000000  0.4826720000000 1.0
C      1  0.4865210000000  0.4938140000000  0.4769480000000 1.0
C      1  0.5422530000000  0.4879870000000  0.5432380000000 1.0
C      1  0.5168690000000  0.5190240000000  0.5164120000000 1.0
C      1  0.4763960000000  0.5168250000000  0.4291620000000 1.0
C      1  0.5206750000000  0.5046610000000  0.5406780000000 1.0
C      1  0.5278110000000  0.5438990000000  0.5132410000000 1.0
C      1  0.5026720000000  0.5076760000000  0.5610990000000 1.0
C      1  0.5018320000000  0.5073440000000  0.4959660000000 1.0
C      1  0.4812670000000  0.5056940000000  0.4522190000000 1.0
END
