TITL C-3623287-7182-734 -4.03220667640904e-07 125000 -468.836266452305 0 0 77 (C1) n - 1
REM
REM in /home/nfs/bkarasulu/CARBON/AIRSS/Generating-Clusters/LCBOP/Higher-Symm/SD-CG/FIRE-CG
REM
REM
REM
REM
REM
REM ./C.cell (b20cbc046b6831c77cfcea5457e17084)
REM AIRSS Version 0.9.1 bugfix July 2018 build 013d7b7c2542+ Fri, 06 Jul 2018 19:26:36 +0100
REM compiler GCC version 9.2.1 20190827 (Red Hat 9.2.1-1)
REM options -cpp -mtune=generic -march=x86-64 -g -O0 -fpre-include=/usr/include/finclude/math-vector-fortran.h
REM seed -1723661293 -233263436 -565004070 1243814600 -1479298796 -1746196389 -1158840667 1911150829 -1221069847 791082432 73458602 1190503033 1110124243 899719962 472077364 -260009710 1613276744 11149630 -884097357 -1719694669 -832842701 1209246874 -543192470 -521675318 347846585 811838320 2067883252 -1664163836 174289113 707795881 321000906 234955066 763042904
REM
CELL 1.54180   50.00000   50.00000   50.00000   90.00000   90.00000   90.00000
LATT -1
SFAC C  
C      1  0.4299830000000  0.5142080000000  0.5394230000000 1.0
C      1  0.5703240000000  0.5176570000000  0.5352850000000 1.0
C      1  0.4943160000000  0.5244840000000  0.4192930000000 1.0
C      1  0.4302770000000  0.4657700000000  0.5537420000000 1.0
C      1  0.5773220000000  0.4679560000000  0.5274760000000 1.0
C      1  0.4812560000000  0.4761040000000  0.4193300000000 1.0
C      1  0.5198580000000  0.4597440000000  0.4423780000000 1.0
C      1  0.4311890000000  0.4465050000000  0.5096350000000 1.0
C      1  0.5371360000000  0.4550440000000  0.5505070000000 1.0
C      1  0.5303830000000  0.5561450000000  0.4413950000000 1.0
C      1  0.4340930000000  0.5479650000000  0.4980960000000 1.0
C      1  0.5342150000000  0.5506820000000  0.5559500000000 1.0
C      1  0.4481740000000  0.4504180000000  0.4399480000000 1.0
C      1  0.4655730000000  0.4422600000000  0.5732200000000 1.0
C      1  0.5754690000000  0.4384970000000  0.4911720000000 1.0
C      1  0.4597630000000  0.5530970000000  0.4330610000000 1.0
C      1  0.4583500000000  0.5425160000000  0.5641490000000 1.0
C      1  0.5758620000000  0.5464410000000  0.4985850000000 1.0
C      1  0.5496890000000  0.4345660000000  0.5049300000000 1.0
C      1  0.4730380000000  0.4415880000000  0.4531020000000 1.0
C      1  0.4660110000000  0.4339520000000  0.5449100000000 1.0
C      1  0.5494020000000  0.5530720000000  0.5089100000000 1.0
C      1  0.4818770000000  0.5590240000000  0.4511630000000 1.0
C      1  0.4652550000000  0.5483120000000  0.5364650000000 1.0
C      1  0.5008980000000  0.5090230000000  0.4737040000000 1.0
C      1  0.5139740000000  0.5016410000000  0.5188660000000 1.0
C      1  0.5213770000000  0.5031230000000  0.4918970000000 1.0
C      1  0.4698650000000  0.4813150000000  0.5084090000000 1.0
C      1  0.4841950000000  0.4976700000000  0.5886430000000 1.0
C      1  0.5905700000000  0.4913640000000  0.4608350000000 1.0
C      1  0.5121160000000  0.4435610000000  0.5471700000000 1.0
C      1  0.5288630000000  0.4456680000000  0.4644050000000 1.0
C      1  0.4471150000000  0.4326650000000  0.4913500000000 1.0
C      1  0.5100130000000  0.5622890000000  0.5477130000000 1.0
C      1  0.5344130000000  0.5684260000000  0.4662640000000 1.0
C      1  0.4520520000000  0.5667610000000  0.4874640000000 1.0
C      1  0.4381800000000  0.5235710000000  0.5658690000000 1.0
C      1  0.5878680000000  0.5265230000000  0.5137200000000 1.0
C      1  0.4669270000000  0.5335560000000  0.4146970000000 1.0
C      1  0.4454200000000  0.4609660000000  0.5777730000000 1.0
C      1  0.5907150000000  0.4581110000000  0.5039480000000 1.0
C      1  0.4531060000000  0.4704430000000  0.4212350000000 1.0
C      1  0.5550930000000  0.4477970000000  0.5300170000000 1.0
C      1  0.4928550000000  0.4541860000000  0.4363370000000 1.0
C      1  0.4396310000000  0.4428930000000  0.5364200000000 1.0
C      1  0.5497190000000  0.5394280000000  0.5351750000000 1.0
C      1  0.5044780000000  0.5459110000000  0.4373470000000 1.0
C      1  0.4426650000000  0.5352270000000  0.5219590000000 1.0
C      1  0.5405570000000  0.5435440000000  0.5823920000000 1.0
C      1  0.5508050000000  0.5469680000000  0.4245570000000 1.0
C      1  0.4144680000000  0.5358380000000  0.4821170000000 1.0
C      1  0.5473110000000  0.4800750000000  0.5615260000000 1.0
C      1  0.5263790000000  0.4851570000000  0.4297460000000 1.0
C      1  0.4205880000000  0.4738490000000  0.5082460000000 1.0
C      1  0.5316340000000  0.4959400000000  0.5786880000000 1.0
C      1  0.5508560000000  0.4984720000000  0.4340110000000 1.0
C      1  0.4291210000000  0.4895660000000  0.4861980000000 1.0
C      1  0.5416030000000  0.5184550000000  0.5923530000000 1.0
C      1  0.5579150000000  0.5215220000000  0.4195110000000 1.0
C      1  0.4130970000000  0.5098060000000  0.4753990000000 1.0
C      1  0.4747460000000  0.5054020000000  0.4692860000000 1.0
C      1  0.5016860000000  0.5007780000000  0.5425790000000 1.0
C      1  0.5469240000000  0.4978780000000  0.4818100000000 1.0
C      1  0.4574320000000  0.4917990000000  0.4861640000000 1.0
C      1  0.5043400000000  0.4977700000000  0.5704010000000 1.0
C      1  0.5635870000000  0.4950820000000  0.4593490000000 1.0
C      1  0.4736350000000  0.4341080000000  0.4808420000000 1.0
C      1  0.4907770000000  0.4352710000000  0.5301530000000 1.0
C      1  0.5246940000000  0.4361520000000  0.4908350000000 1.0
C      1  0.4789940000000  0.5649820000000  0.4788590000000 1.0
C      1  0.4902990000000  0.5588600000000  0.5275680000000 1.0
C      1  0.5276930000000  0.5628690000000  0.4932610000000 1.0
C      1  0.5685780000000  0.4905830000000  0.5437700000000 1.0
C      1  0.4225460000000  0.4868850000000  0.5351150000000 1.0
C      1  0.5015510000000  0.4970610000000  0.4186850000000 1.0
C      1  0.4964320000000  0.4338200000000  0.5005670000000 1.0
C      1  0.4991480000000  0.5627970000000  0.4999310000000 1.0
END
