TITL C-3623288-6813-144 -6.06408735888462e-05 125000 -927.731187941665 0 0 152 (C1) n - 1
REM
REM in /home/nfs/bkarasulu/CARBON/AIRSS/Generating-Clusters/LCBOP/Higher-Symm/SD-CG/FIRE-CG
REM
REM
REM
REM
REM
REM ./C.cell (b20cbc046b6831c77cfcea5457e17084)
REM AIRSS Version 0.9.1 bugfix July 2018 build 013d7b7c2542+ Fri, 06 Jul 2018 19:26:36 +0100
REM compiler GCC version 9.2.1 20190827 (Red Hat 9.2.1-1)
REM options -cpp -mtune=generic -march=x86-64 -g -O0 -fpre-include=/usr/include/finclude/math-vector-fortran.h
REM seed 2093861557 -1064250898 1507680224 1540735708 -1397753074 2005505281 -177607772 1459870283 1215749065 -235615758 1470514367 233215858 -2062973444 -1896985470 -172694836 2096240178 1110247680 1108053872 -1358257169 961140473 -176247502 877187880 192856778 -180144835 647010927 -658809140 322818727 910329725 -1058500505 1538305784 -1873476214 -557292930 755870975
REM
CELL 1.54180   50.00000   50.00000   50.00000   90.00000   90.00000   90.00000
LATT -1
SFAC C  
C      1  0.5266180000000  0.5234250000000  0.5823790000000 1.0
C      1  0.4754340000000  0.5238750000000  0.4173530000000 1.0
C      1  0.5256740000000  0.4730270000000  0.4192790000000 1.0
C      1  0.4763970000000  0.4722200000000  0.5836070000000 1.0
C      1  0.4505380000000  0.5708460000000  0.4589210000000 1.0
C      1  0.5475690000000  0.5750900000000  0.5389040000000 1.0
C      1  0.4480140000000  0.4346490000000  0.5370190000000 1.0
C      1  0.5555140000000  0.4310940000000  0.4685910000000 1.0
C      1  0.5272780000000  0.4293580000000  0.4711680000000 1.0
C      1  0.4755540000000  0.4306450000000  0.5304350000000 1.0
C      1  0.5191120000000  0.5749370000000  0.5351240000000 1.0
C      1  0.4783470000000  0.5741770000000  0.4647380000000 1.0
C      1  0.4423170000000  0.4416510000000  0.4544280000000 1.0
C      1  0.5618290000000  0.4415240000000  0.5513130000000 1.0
C      1  0.4444710000000  0.5555270000000  0.5505040000000 1.0
C      1  0.5621160000000  0.5570950000000  0.4438100000000 1.0
C      1  0.5409740000000  0.5379170000000  0.4485480000000 1.0
C      1  0.4622560000000  0.5330120000000  0.5473500000000 1.0
C      1  0.5408020000000  0.4612130000000  0.5485440000000 1.0
C      1  0.4614000000000  0.4642410000000  0.4571370000000 1.0
C      1  0.5489370000000  0.4859860000000  0.5614290000000 1.0
C      1  0.4531130000000  0.4875620000000  0.4420960000000 1.0
C      1  0.5484170000000  0.5120300000000  0.4374100000000 1.0
C      1  0.4533270000000  0.5095330000000  0.5616600000000 1.0
C      1  0.5177940000000  0.6018480000000  0.4683700000000 1.0
C      1  0.4765710000000  0.5922590000000  0.5536190000000 1.0
C      1  0.5130910000000  0.4000640000000  0.5286830000000 1.0
C      1  0.4854510000000  0.4225240000000  0.4508740000000 1.0
C      1  0.5674420000000  0.4203430000000  0.4455840000000 1.0
C      1  0.4371430000000  0.4232020000000  0.5601340000000 1.0
C      1  0.5579780000000  0.5847880000000  0.5630700000000 1.0
C      1  0.4400200000000  0.5800220000000  0.4346470000000 1.0
C      1  0.5574850000000  0.5730290000000  0.4209150000000 1.0
C      1  0.4571450000000  0.5760620000000  0.5659700000000 1.0
C      1  0.5575430000000  0.4237290000000  0.5728600000000 1.0
C      1  0.4584690000000  0.4222910000000  0.4396940000000 1.0
C      1  0.4677830000000  0.5466430000000  0.6352920000000 1.0
C      1  0.5283310000000  0.5423560000000  0.3594760000000 1.0
C      1  0.4646850000000  0.4479010000000  0.3688510000000 1.0
C      1  0.5319900000000  0.4503970000000  0.6376310000000 1.0
C      1  0.5595120000000  0.5334370000000  0.5111160000000 1.0
C      1  0.4442170000000  0.5291810000000  0.4868580000000 1.0
C      1  0.5609730000000  0.4760770000000  0.4924120000000 1.0
C      1  0.4441190000000  0.4780770000000  0.5120460000000 1.0
C      1  0.5372530000000  0.4907100000000  0.4967210000000 1.0
C      1  0.4684960000000  0.4905630000000  0.5056320000000 1.0
C      1  0.5367610000000  0.5180170000000  0.5047280000000 1.0
C      1  0.4684050000000  0.5162930000000  0.4933930000000 1.0
C      1  0.5942930000000  0.5188530000000  0.4401550000000 1.0
C      1  0.4086990000000  0.5216450000000  0.5602520000000 1.0
C      1  0.5946020000000  0.4792040000000  0.5574200000000 1.0
C      1  0.4078780000000  0.4762260000000  0.4438700000000 1.0
C      1  0.4607070000000  0.5309880000000  0.3937160000000 1.0
C      1  0.5409480000000  0.5334540000000  0.6050710000000 1.0
C      1  0.4618480000000  0.4636430000000  0.6068420000000 1.0
C      1  0.5406500000000  0.4618710000000  0.3975570000000 1.0
C      1  0.5318040000000  0.5433710000000  0.3865620000000 1.0
C      1  0.4694200000000  0.5462480000000  0.6080230000000 1.0
C      1  0.5339060000000  0.4509280000000  0.6103850000000 1.0
C      1  0.4669290000000  0.4491730000000  0.3960840000000 1.0
C      1  0.5123740000000  0.5324870000000  0.5076260000000 1.0
C      1  0.4918270000000  0.5318200000000  0.4885210000000 1.0
C      1  0.5136220000000  0.4751570000000  0.4927790000000 1.0
C      1  0.4917890000000  0.4748070000000  0.5106980000000 1.0
C      1  0.5015200000000  0.4621270000000  0.4270780000000 1.0
C      1  0.5008360000000  0.4608510000000  0.5765310000000 1.0
C      1  0.5021710000000  0.5339820000000  0.5749310000000 1.0
C      1  0.5000600000000  0.5359790000000  0.4222620000000 1.0
C      1  0.4905970000000  0.5997420000000  0.4654230000000 1.0
C      1  0.5021630000000  0.5968740000000  0.5424530000000 1.0
C      1  0.4860290000000  0.4043770000000  0.5279170000000 1.0
C      1  0.5094100000000  0.4094710000000  0.4599940000000 1.0
C      1  0.4352280000000  0.4556030000000  0.5234740000000 1.0
C      1  0.5679430000000  0.4518870000000  0.4830350000000 1.0
C      1  0.4368940000000  0.5516710000000  0.4743010000000 1.0
C      1  0.5627380000000  0.5573230000000  0.5230440000000 1.0
C      1  0.4879180000000  0.4970820000000  0.6324960000000 1.0
C      1  0.5146320000000  0.4923370000000  0.3688890000000 1.0
C      1  0.4862580000000  0.4962000000000  0.3693580000000 1.0
C      1  0.5162770000000  0.5008370000000  0.6323040000000 1.0
C      1  0.5126770000000  0.4543120000000  0.4739120000000 1.0
C      1  0.4929490000000  0.4534400000000  0.5297440000000 1.0
C      1  0.5073810000000  0.5494570000000  0.5296650000000 1.0
C      1  0.4944160000000  0.5506580000000  0.4674540000000 1.0
C      1  0.5882650000000  0.5460200000000  0.4474210000000 1.0
C      1  0.4170900000000  0.5479640000000  0.5521390000000 1.0
C      1  0.5880430000000  0.4527120000000  0.5482910000000 1.0
C      1  0.4153310000000  0.4497850000000  0.4523240000000 1.0
C      1  0.5667340000000  0.5005650000000  0.3937380000000 1.0
C      1  0.4359370000000  0.5032020000000  0.6068780000000 1.0
C      1  0.5678840000000  0.4949300000000  0.6055240000000 1.0
C      1  0.4348800000000  0.4917740000000  0.3966600000000 1.0
C      1  0.5197290000000  0.5248670000000  0.4047610000000 1.0
C      1  0.4818730000000  0.5252070000000  0.5930000000000 1.0
C      1  0.5212390000000  0.4706530000000  0.5940030000000 1.0
C      1  0.4802430000000  0.4705990000000  0.4101860000000 1.0
C      1  0.3907910000000  0.4922370000000  0.4606510000000 1.0
C      1  0.6110100000000  0.4960980000000  0.5409850000000 1.0
C      1  0.3910830000000  0.5066360000000  0.5430920000000 1.0
C      1  0.6107030000000  0.5029550000000  0.4575410000000 1.0
C      1  0.5067480000000  0.6484730000000  0.5307740000000 1.0
C      1  0.4720650000000  0.6482900000000  0.4725010000000 1.0
C      1  0.5058680000000  0.3569160000000  0.4612020000000 1.0
C      1  0.4640390000000  0.3585280000000  0.5137170000000 1.0
C      1  0.4906570000000  0.4536680000000  0.4536510000000 1.0
C      1  0.5119320000000  0.4558350000000  0.5504800000000 1.0
C      1  0.4907810000000  0.5387400000000  0.5493470000000 1.0
C      1  0.5123230000000  0.5440300000000  0.4468580000000 1.0
C      1  0.4732130000000  0.5001310000000  0.5795840000000 1.0
C      1  0.5283940000000  0.5012920000000  0.4205020000000 1.0
C      1  0.4725850000000  0.4961780000000  0.4233260000000 1.0
C      1  0.5294830000000  0.4952830000000  0.5797520000000 1.0
C      1  0.6086680000000  0.5029940000000  0.4860410000000 1.0
C      1  0.3945090000000  0.5034820000000  0.5148330000000 1.0
C      1  0.6086040000000  0.4981360000000  0.5125930000000 1.0
C      1  0.3945650000000  0.4964080000000  0.4887240000000 1.0
C      1  0.5744200000000  0.4889820000000  0.5762380000000 1.0
C      1  0.4280780000000  0.4875270000000  0.4261130000000 1.0
C      1  0.5736370000000  0.5080810000000  0.4224640000000 1.0
C      1  0.4285480000000  0.5092430000000  0.5778640000000 1.0
C      1  0.3489640000000  0.4819630000000  0.5663750000000 1.0
C      1  0.6463800000000  0.4695770000000  0.4344210000000 1.0
C      1  0.3488610000000  0.5167800000000  0.4368820000000 1.0
C      1  0.6480660000000  0.5265950000000  0.5658770000000 1.0
C      1  0.4604530000000  0.5688180000000  0.5932080000000 1.0
C      1  0.5459730000000  0.5651410000000  0.3978760000000 1.0
C      1  0.4580000000000  0.4268750000000  0.4116190000000 1.0
C      1  0.5471060000000  0.4297720000000  0.5969430000000 1.0
C      1  0.4894010000000  0.3406670000000  0.4744940000000 1.0
C      1  0.4721500000000  0.3414360000000  0.4948840000000 1.0
C      1  0.4946120000000  0.6651440000000  0.5138840000000 1.0
C      1  0.4801220000000  0.6652820000000  0.4914550000000 1.0
C      1  0.6297490000000  0.4861170000000  0.4457780000000 1.0
C      1  0.3690150000000  0.4941050000000  0.5549880000000 1.0
C      1  0.6305650000000  0.5116560000000  0.5536410000000 1.0
C      1  0.3688410000000  0.5047510000000  0.4485130000000 1.0
C      1  0.4468320000000  0.4403120000000  0.6062640000000 1.0
C      1  0.5555910000000  0.4386610000000  0.4000870000000 1.0
C      1  0.4472040000000  0.5551120000000  0.3917300000000 1.0
C      1  0.5526550000000  0.5585290000000  0.6056560000000 1.0
C      1  0.5102870000000  0.6234270000000  0.5389800000000 1.0
C      1  0.4754790000000  0.6233040000000  0.4638850000000 1.0
C      1  0.5135380000000  0.3821550000000  0.4577120000000 1.0
C      1  0.4690230000000  0.3823290000000  0.5245690000000 1.0
C      1  0.4389570000000  0.5741760000000  0.4085960000000 1.0
C      1  0.5594740000000  0.5782280000000  0.5889340000000 1.0
C      1  0.4368930000000  0.4248240000000  0.5868040000000 1.0
C      1  0.5665380000000  0.4232670000000  0.4190100000000 1.0
C      1  0.4597230000000  0.4891160000000  0.6219570000000 1.0
C      1  0.5430140000000  0.4855390000000  0.3798780000000 1.0
C      1  0.4583090000000  0.5047300000000  0.3802150000000 1.0
C      1  0.5442130000000  0.5086600000000  0.6209800000000 1.0
END
