TITL C-3623283-6828-1285 0.00582733343643884 125000 -998.851571527956 0 0 162 (C1) n - 1
REM
REM in /home/nfs/bkarasulu/CARBON/AIRSS/Generating-Clusters/LCBOP/Higher-Symm/SD-CG/FIRE-CG
REM
REM
REM
REM
REM
REM ./C.cell (b20cbc046b6831c77cfcea5457e17084)
REM AIRSS Version 0.9.1 bugfix July 2018 build 013d7b7c2542+ Fri, 06 Jul 2018 19:26:36 +0100
REM compiler GCC version 9.2.1 20190827 (Red Hat 9.2.1-1)
REM options -cpp -mtune=generic -march=x86-64 -g -O0 -fpre-include=/usr/include/finclude/math-vector-fortran.h
REM seed 2109822468 536986227 1841760499 893501385 164122720 1037891487 2138801707 -887751067 -187838980 -1364191409 -807195454 -2082556371 -1819247470 2046294179 -160335003 158180227 -512112141 252394386 -1491978312 -815226937 -138899275 -867995169 1212845576 13653398 67886134 -840007846 917400122 -42153889 246254668 1664809590 1066801732 -133417917 -1733025854
REM
CELL 1.54180   50.00000   50.00000   50.00000   90.00000   90.00000   90.00000
LATT -1
SFAC C  
C      1  0.4976020000000  0.5360410000000  0.3671490000000 1.0
C      1  0.5444290000000  0.4384380000000  0.5224330000000 1.0
C      1  0.4882130000000  0.4088100000000  0.5418720000000 1.0
C      1  0.5056920000000  0.4478600000000  0.6123530000000 1.0
C      1  0.4287940000000  0.5191770000000  0.5442910000000 1.0
C      1  0.5167160000000  0.5476600000000  0.4411080000000 1.0
C      1  0.4180290000000  0.4633860000000  0.5660950000000 1.0
C      1  0.4976710000000  0.4656730000000  0.3784670000000 1.0
C      1  0.6028790000000  0.5007610000000  0.4909250000000 1.0
C      1  0.5294240000000  0.3759980000000  0.4574400000000 1.0
C      1  0.4232200000000  0.5748050000000  0.4704590000000 1.0
C      1  0.5361130000000  0.6161930000000  0.5214350000000 1.0
C      1  0.4671360000000  0.5576920000000  0.5855410000000 1.0
C      1  0.5950590000000  0.6014060000000  0.5548280000000 1.0
C      1  0.5489400000000  0.4673910000000  0.5206510000000 1.0
C      1  0.5227820000000  0.5917730000000  0.4807540000000 1.0
C      1  0.4382110000000  0.5486300000000  0.5111370000000 1.0
C      1  0.5929420000000  0.5229630000000  0.4275220000000 1.0
C      1  0.4707700000000  0.5997840000000  0.5520920000000 1.0
C      1  0.5567470000000  0.3731680000000  0.4611030000000 1.0
C      1  0.5199140000000  0.5443720000000  0.4690780000000 1.0
C      1  0.5261360000000  0.4252620000000  0.3985180000000 1.0
C      1  0.5902690000000  0.5489620000000  0.4336760000000 1.0
C      1  0.5169200000000  0.4715280000000  0.5573260000000 1.0
C      1  0.4830130000000  0.4145950000000  0.4246220000000 1.0
C      1  0.4023840000000  0.5271830000000  0.4667830000000 1.0
C      1  0.5711070000000  0.5967110000000  0.4890700000000 1.0
C      1  0.4360900000000  0.5160180000000  0.3905960000000 1.0
C      1  0.4241480000000  0.4238430000000  0.5047170000000 1.0
C      1  0.4496950000000  0.4644100000000  0.4665880000000 1.0
C      1  0.6135790000000  0.4820720000000  0.5109290000000 1.0
C      1  0.4564770000000  0.5127690000000  0.4418200000000 1.0
C      1  0.4610260000000  0.5652330000000  0.5146970000000 1.0
C      1  0.4374160000000  0.5325410000000  0.4345220000000 1.0
C      1  0.5486400000000  0.5523680000000  0.5033360000000 1.0
C      1  0.5033910000000  0.4423330000000  0.6408230000000 1.0
C      1  0.5766340000000  0.4360620000000  0.5857450000000 1.0
C      1  0.6006620000000  0.5540880000000  0.4940070000000 1.0
C      1  0.3837080000000  0.4905140000000  0.5463810000000 1.0
C      1  0.4477440000000  0.5268960000000  0.4945550000000 1.0
C      1  0.4231260000000  0.4103940000000  0.4549920000000 1.0
C      1  0.4059300000000  0.4419030000000  0.5167160000000 1.0
C      1  0.5818750000000  0.4747170000000  0.4205630000000 1.0
C      1  0.4689460000000  0.4077180000000  0.5210460000000 1.0
C      1  0.5187620000000  0.5179180000000  0.4822190000000 1.0
C      1  0.5586630000000  0.5906940000000  0.5883370000000 1.0
C      1  0.3803850000000  0.4817780000000  0.5207620000000 1.0
C      1  0.4935620000000  0.4692640000000  0.5984140000000 1.0
C      1  0.5452430000000  0.5062010000000  0.5591730000000 1.0
C      1  0.4732660000000  0.4542690000000  0.3792140000000 1.0
C      1  0.4288030000000  0.5798050000000  0.5657190000000 1.0
C      1  0.4354980000000  0.5016230000000  0.4923030000000 1.0
C      1  0.5686650000000  0.6003320000000  0.5628470000000 1.0
C      1  0.5487090000000  0.4928030000000  0.4575030000000 1.0
C      1  0.5164660000000  0.4187120000000  0.6470530000000 1.0
C      1  0.4571340000000  0.5809960000000  0.5702620000000 1.0
C      1  0.4779460000000  0.5252740000000  0.4567520000000 1.0
C      1  0.5689880000000  0.3979410000000  0.4586080000000 1.0
C      1  0.5455520000000  0.6080010000000  0.5475300000000 1.0
C      1  0.5122080000000  0.5724320000000  0.4289690000000 1.0
C      1  0.6081620000000  0.4179440000000  0.5164210000000 1.0
C      1  0.4787890000000  0.4699190000000  0.4310570000000 1.0
C      1  0.4616960000000  0.5761190000000  0.4361600000000 1.0
C      1  0.5885910000000  0.5757830000000  0.4786760000000 1.0
C      1  0.4509370000000  0.4288210000000  0.5133820000000 1.0
C      1  0.4012760000000  0.4869120000000  0.5687770000000 1.0
C      1  0.5194510000000  0.4959090000000  0.4100610000000 1.0
C      1  0.5205770000000  0.4724130000000  0.3940000000000 1.0
C      1  0.5581080000000  0.4254610000000  0.5664970000000 1.0
C      1  0.5624080000000  0.5278910000000  0.4950750000000 1.0
C      1  0.5918380000000  0.4365950000000  0.5282130000000 1.0
C      1  0.5078040000000  0.5345580000000  0.5758290000000 1.0
C      1  0.4938230000000  0.5120830000000  0.4114760000000 1.0
C      1  0.4327690000000  0.4308940000000  0.4381140000000 1.0
C      1  0.4013250000000  0.4742550000000  0.4759760000000 1.0
C      1  0.4681730000000  0.5998350000000  0.4786570000000 1.0
C      1  0.5025980000000  0.4990710000000  0.4972670000000 1.0
C      1  0.4929970000000  0.4387380000000  0.4651140000000 1.0
C      1  0.5325910000000  0.5645510000000  0.4827080000000 1.0
C      1  0.4190540000000  0.4090580000000  0.4815030000000 1.0
C      1  0.4557230000000  0.6073350000000  0.5280700000000 1.0
C      1  0.4842730000000  0.4620950000000  0.5203540000000 1.0
C      1  0.5945300000000  0.4958440000000  0.4359130000000 1.0
C      1  0.4281090000000  0.5233650000000  0.5969180000000 1.0
C      1  0.5558990000000  0.4669480000000  0.4670720000000 1.0
C      1  0.4741350000000  0.5344290000000  0.4834160000000 1.0
C      1  0.5383210000000  0.4509060000000  0.4020980000000 1.0
C      1  0.4972350000000  0.5361040000000  0.5496830000000 1.0
C      1  0.4957850000000  0.4588260000000  0.5449980000000 1.0
C      1  0.5984500000000  0.4734640000000  0.5575180000000 1.0
C      1  0.4095380000000  0.5019200000000  0.4788870000000 1.0
C      1  0.5605400000000  0.4690640000000  0.4948200000000 1.0
C      1  0.4207920000000  0.5435170000000  0.5324010000000 1.0
C      1  0.5021940000000  0.4131730000000  0.4031210000000 1.0
C      1  0.4133540000000  0.5648550000000  0.5493120000000 1.0
C      1  0.4973530000000  0.5290280000000  0.4354600000000 1.0
C      1  0.5908050000000  0.5269780000000  0.4959530000000 1.0
C      1  0.4423850000000  0.4619040000000  0.5804660000000 1.0
C      1  0.5108740000000  0.4850240000000  0.5822610000000 1.0
C      1  0.5890530000000  0.4606020000000  0.5792230000000 1.0
C      1  0.5883720000000  0.5696010000000  0.4508320000000 1.0
C      1  0.3929520000000  0.4634010000000  0.5020990000000 1.0
C      1  0.4892420000000  0.6319500000000  0.5072610000000 1.0
C      1  0.5019020000000  0.4704300000000  0.4989470000000 1.0
C      1  0.5239600000000  0.5113800000000  0.5794970000000 1.0
C      1  0.4536630000000  0.5188720000000  0.5578160000000 1.0
C      1  0.4689630000000  0.3626050000000  0.4911410000000 1.0
C      1  0.4682420000000  0.3840490000000  0.5059330000000 1.0
C      1  0.5297820000000  0.5908800000000  0.5897540000000 1.0
C      1  0.4951050000000  0.5540890000000  0.5924290000000 1.0
C      1  0.4514240000000  0.5327720000000  0.5832800000000 1.0
C      1  0.4559390000000  0.5378270000000  0.3941930000000 1.0
C      1  0.4103740000000  0.4459770000000  0.5449090000000 1.0
C      1  0.4505300000000  0.5536920000000  0.4192520000000 1.0
C      1  0.4743810000000  0.4573910000000  0.4553240000000 1.0
C      1  0.4665810000000  0.6152250000000  0.5027000000000 1.0
C      1  0.5461440000000  0.5106500000000  0.4792640000000 1.0
C      1  0.4559210000000  0.4262990000000  0.4194030000000 1.0
C      1  0.5836200000000  0.4222750000000  0.6082620000000 1.0
C      1  0.4774780000000  0.5172760000000  0.5430300000000 1.0
C      1  0.4084970000000  0.5062540000000  0.5885530000000 1.0
C      1  0.5228580000000  0.4038370000000  0.4524320000000 1.0
C      1  0.4582110000000  0.4567250000000  0.5123250000000 1.0
C      1  0.4957470000000  0.5962370000000  0.4674250000000 1.0
C      1  0.4977560000000  0.6098050000000  0.5510680000000 1.0
C      1  0.5602890000000  0.4553040000000  0.4209190000000 1.0
C      1  0.5440590000000  0.6063180000000  0.4956550000000 1.0
C      1  0.5553150000000  0.4457450000000  0.4479840000000 1.0
C      1  0.5654910000000  0.4286340000000  0.5387050000000 1.0
C      1  0.4201930000000  0.4775800000000  0.4245520000000 1.0
C      1  0.4102890000000  0.5287460000000  0.4395290000000 1.0
C      1  0.5265690000000  0.4296080000000  0.5024870000000 1.0
C      1  0.4249900000000  0.4602850000000  0.4497830000000 1.0
C      1  0.4841200000000  0.5065780000000  0.5181300000000 1.0
C      1  0.5492220000000  0.4186980000000  0.4528610000000 1.0
C      1  0.5276780000000  0.4081060000000  0.6240090000000 1.0
C      1  0.4057400000000  0.5544860000000  0.4761860000000 1.0
C      1  0.4484210000000  0.5852470000000  0.4618970000000 1.0
C      1  0.5222270000000  0.4253390000000  0.6010030000000 1.0
C      1  0.5079380000000  0.6231070000000  0.5262400000000 1.0
C      1  0.4831160000000  0.5292780000000  0.3892150000000 1.0
C      1  0.6033570000000  0.4926660000000  0.4631290000000 1.0
C      1  0.4710560000000  0.4952580000000  0.4228610000000 1.0
C      1  0.5059260000000  0.5507420000000  0.5271780000000 1.0
C      1  0.5117420000000  0.5741500000000  0.6028430000000 1.0
C      1  0.6413390000000  0.4807630000000  0.5114130000000 1.0
C      1  0.4657700000000  0.4676430000000  0.5924380000000 1.0
C      1  0.4974110000000  0.4158700000000  0.4495470000000 1.0
C      1  0.4900900000000  0.5862160000000  0.4397740000000 1.0
C      1  0.6004700000000  0.4646470000000  0.5305510000000 1.0
C      1  0.5106310000000  0.4100520000000  0.5566730000000 1.0
C      1  0.4857700000000  0.5529510000000  0.5055320000000 1.0
C      1  0.4557860000000  0.4401390000000  0.3942050000000 1.0
C      1  0.6195070000000  0.6020090000000  0.5458230000000 1.0
C      1  0.5096630000000  0.4461250000000  0.4864390000000 1.0
C      1  0.5306750000000  0.4195810000000  0.5744840000000 1.0
C      1  0.4246440000000  0.4943960000000  0.4033430000000 1.0
C      1  0.5338220000000  0.5546620000000  0.5268490000000 1.0
C      1  0.5216740000000  0.6034790000000  0.5651960000000 1.0
C      1  0.5400930000000  0.4824000000000  0.5431770000000 1.0
C      1  0.5373840000000  0.4981930000000  0.4321640000000 1.0
C      1  0.4475200000000  0.4751660000000  0.4927620000000 1.0
END
