TITL C-3623287-7182-993 -281863.762963143 125000 -616.056383669618 0 0 104 (C1) n - 1
REM
REM in /home/nfs/bkarasulu/CARBON/AIRSS/Generating-Clusters/LCBOP/Higher-Symm/SD-CG/FIRE-CG
REM
REM
REM
REM
REM
REM ./C.cell (b20cbc046b6831c77cfcea5457e17084)
REM AIRSS Version 0.9.1 bugfix July 2018 build 013d7b7c2542+ Fri, 06 Jul 2018 19:26:36 +0100
REM compiler GCC version 9.2.1 20190827 (Red Hat 9.2.1-1)
REM options -cpp -mtune=generic -march=x86-64 -g -O0 -fpre-include=/usr/include/finclude/math-vector-fortran.h
REM seed 1169340906 867063834 509213569 -1582127723 -1876758204 1027713370 -233664623 1386499042 -730566251 204780650 1426017105 604436818 1388891965 110818028 982108675 -1066920881 2022424668 1662237842 -1266205859 -80443407 -34766558 691108831 -1744092774 -2000157911 -819970914 -1488721568 -612248144 -1333929498 -1828069119 1215155363 1141524098 44649181 1899842215
REM
CELL 1.54180   50.00000   50.00000   50.00000   90.00000   90.00000   90.00000
LATT -1
SFAC C  
C      1  0.4900630000000  0.4248630000000  0.5528530000000 1.0
C      1  0.5514930000000  0.4866050000000  0.4210890000000 1.0
C      1  0.4221660000000  0.5518240000000  0.4896640000000 1.0
C      1  0.5102130000000  0.4238920000000  0.4502180000000 1.0
C      1  0.4871220000000  0.5788360000000  0.4502090000000 1.0
C      1  0.5125460000000  0.5777050000000  0.5546400000000 1.0
C      1  0.4472410000000  0.4900060000000  0.5759270000000 1.0
C      1  0.5510600000000  0.5114890000000  0.5786740000000 1.0
C      1  0.4439760000000  0.5137240000000  0.4224180000000 1.0
C      1  0.5793750000000  0.5518420000000  0.5140490000000 1.0
C      1  0.4241190000000  0.4474830000000  0.5108560000000 1.0
C      1  0.5778500000000  0.4460020000000  0.4880190000000 1.0
C      1  0.4863140000000  0.5787740000000  0.5552240000000 1.0
C      1  0.5500240000000  0.5125680000000  0.4227060000000 1.0
C      1  0.4205990000000  0.4446810000000  0.4847680000000 1.0
C      1  0.5129990000000  0.5766740000000  0.4511470000000 1.0
C      1  0.4843600000000  0.4213810000000  0.4467540000000 1.0
C      1  0.5160930000000  0.4217350000000  0.5563630000000 1.0
C      1  0.4440470000000  0.5160750000000  0.5790760000000 1.0
C      1  0.5539710000000  0.4855010000000  0.5808470000000 1.0
C      1  0.4436120000000  0.4873030000000  0.4216130000000 1.0
C      1  0.5790240000000  0.4454680000000  0.5143440000000 1.0
C      1  0.4198240000000  0.5547170000000  0.5156040000000 1.0
C      1  0.5785130000000  0.5509960000000  0.4878600000000 1.0
C      1  0.4579710000000  0.5402530000000  0.5755620000000 1.0
C      1  0.5694370000000  0.4651550000000  0.5347600000000 1.0
C      1  0.5308280000000  0.5634820000000  0.4697580000000 1.0
C      1  0.5303750000000  0.5310440000000  0.4336860000000 1.0
C      1  0.4634770000000  0.4672960000000  0.4316240000000 1.0
C      1  0.5426950000000  0.4606760000000  0.5765990000000 1.0
C      1  0.4237650000000  0.4586930000000  0.4604980000000 1.0
C      1  0.5661120000000  0.5305680000000  0.4702650000000 1.0
C      1  0.4242040000000  0.5428330000000  0.5401000000000 1.0
C      1  0.4665920000000  0.5686050000000  0.5353930000000 1.0
C      1  0.5405110000000  0.4252200000000  0.5428890000000 1.0
C      1  0.4593290000000  0.4250230000000  0.4576260000000 1.0
C      1  0.4697210000000  0.4758940000000  0.5635640000000 1.0
C      1  0.5701280000000  0.5321160000000  0.5342850000000 1.0
C      1  0.5300850000000  0.4369770000000  0.4678860000000 1.0
C      1  0.5315850000000  0.4676230000000  0.4311990000000 1.0
C      1  0.4644560000000  0.5330130000000  0.4328250000000 1.0
C      1  0.5332970000000  0.5308420000000  0.5651750000000 1.0
C      1  0.4351330000000  0.5339250000000  0.4701700000000 1.0
C      1  0.5674190000000  0.4660990000000  0.4684910000000 1.0
C      1  0.4366120000000  0.4698300000000  0.5248940000000 1.0
C      1  0.4758980000000  0.4372430000000  0.5302860000000 1.0
C      1  0.5317570000000  0.5668650000000  0.5344000000000 1.0
C      1  0.4677880000000  0.5691680000000  0.4697810000000 1.0
C      1  0.4626040000000  0.5236680000000  0.4813550000000 1.0
C      1  0.4990510000000  0.4544350000000  0.5182620000000 1.0
C      1  0.5139130000000  0.4821200000000  0.4526440000000 1.0
C      1  0.5489110000000  0.5128790000000  0.5205110000000 1.0
C      1  0.4533740000000  0.4820240000000  0.5017180000000 1.0
C      1  0.5450730000000  0.4794480000000  0.4869450000000 1.0
C      1  0.5193870000000  0.4655270000000  0.4770330000000 1.0
C      1  0.4812510000000  0.5468840000000  0.4886480000000 1.0
C      1  0.5132890000000  0.5436060000000  0.5216200000000 1.0
C      1  0.4819620000000  0.4989520000000  0.5465720000000 1.0
C      1  0.5239110000000  0.5191960000000  0.5376820000000 1.0
C      1  0.4770870000000  0.5142090000000  0.4553290000000 1.0
C      1  0.4715920000000  0.4718750000000  0.4817980000000 1.0
C      1  0.4830450000000  0.5465840000000  0.5206010000000 1.0
C      1  0.5094040000000  0.5165450000000  0.4560890000000 1.0
C      1  0.5470190000000  0.4799300000000  0.5186900000000 1.0
C      1  0.4581750000000  0.5087270000000  0.5056400000000 1.0
C      1  0.5448380000000  0.5175060000000  0.4898810000000 1.0
C      1  0.5164540000000  0.5351040000000  0.4845750000000 1.0
C      1  0.4951280000000  0.4605400000000  0.4917750000000 1.0
C      1  0.5189280000000  0.4721510000000  0.5293920000000 1.0
C      1  0.4713270000000  0.5186070000000  0.5283370000000 1.0
C      1  0.5087160000000  0.4951160000000  0.5418800000000 1.0
C      1  0.4767230000000  0.4833510000000  0.4543800000000 1.0
C      1  0.4486840000000  0.5812960000000  0.4892040000000 1.0
C      1  0.4906410000000  0.4572470000000  0.5760730000000 1.0
C      1  0.5782850000000  0.4859770000000  0.4496540000000 1.0
C      1  0.5499710000000  0.5777200000000  0.5142280000000 1.0
C      1  0.4568410000000  0.4247900000000  0.5095100000000 1.0
C      1  0.5449150000000  0.4240210000000  0.4901430000000 1.0
C      1  0.5110530000000  0.4495280000000  0.4198550000000 1.0
C      1  0.4856010000000  0.5512430000000  0.4222950000000 1.0
C      1  0.5107600000000  0.5455240000000  0.5776190000000 1.0
C      1  0.4241490000000  0.4907760000000  0.5434970000000 1.0
C      1  0.5816870000000  0.5123800000000  0.5534080000000 1.0
C      1  0.4219860000000  0.5117710000000  0.4553350000000 1.0
C      1  0.4514310000000  0.4207960000000  0.4838460000000 1.0
C      1  0.4845600000000  0.5484160000000  0.5799490000000 1.0
C      1  0.5773240000000  0.5119340000000  0.4509480000000 1.0
C      1  0.5483330000000  0.4212100000000  0.5161940000000 1.0
C      1  0.4484310000000  0.5812480000000  0.5154480000000 1.0
C      1  0.5486330000000  0.5764870000000  0.4882660000000 1.0
C      1  0.5118460000000  0.5504350000000  0.4220650000000 1.0
C      1  0.4847320000000  0.4496720000000  0.4199860000000 1.0
C      1  0.5164190000000  0.4524120000000  0.5803570000000 1.0
C      1  0.4201100000000  0.5165980000000  0.5482890000000 1.0
C      1  0.5812610000000  0.4859690000000  0.5530280000000 1.0
C      1  0.4194960000000  0.4855050000000  0.4525050000000 1.0
C      1  0.4462550000000  0.5549150000000  0.5538540000000 1.0
C      1  0.5502520000000  0.4490530000000  0.4485420000000 1.0
C      1  0.5553840000000  0.4466900000000  0.5549540000000 1.0
C      1  0.5482340000000  0.5473610000000  0.4520440000000 1.0
C      1  0.4451430000000  0.4467300000000  0.4453010000000 1.0
C      1  0.4578670000000  0.4580360000000  0.5425450000000 1.0
C      1  0.4483710000000  0.5531130000000  0.4505370000000 1.0
C      1  0.5521120000000  0.5508850000000  0.5521200000000 1.0
END
