TITL C-3623287-7182-1685 -14474.2747320494 125000 -759.786104318709 0 0 125 (C1) n - 1
REM
REM in /home/nfs/bkarasulu/CARBON/AIRSS/Generating-Clusters/LCBOP/Higher-Symm/SD-CG/FIRE-CG
REM
REM
REM
REM
REM
REM ./C.cell (b20cbc046b6831c77cfcea5457e17084)
REM AIRSS Version 0.9.1 bugfix July 2018 build 013d7b7c2542+ Fri, 06 Jul 2018 19:26:36 +0100
REM compiler GCC version 9.2.1 20190827 (Red Hat 9.2.1-1)
REM options -cpp -mtune=generic -march=x86-64 -g -O0 -fpre-include=/usr/include/finclude/math-vector-fortran.h
REM seed -1857013690 2056829275 818087377 -721517281 -608000574 -10386711 2025897172 -1694641320 -933828353 1512759487 -530464043 -436198137 -2138517667 816247672 37165986 765544307 -2099271131 1337892662 -826342640 675645833 -2144098998 -1624915059 -2049176533 -207112630 -1535557504 429280006 560496134 299115472 -66251716 1371041888 -579469843 -1328386545 2121674038
REM
CELL 1.54180   50.00000   50.00000   50.00000   90.00000   90.00000   90.00000
LATT -1
SFAC C  
C      1  0.5314380000000  0.4854370000000  0.6023760000000 1.0
C      1  0.3932000000000  0.5048160000000  0.4728280000000 1.0
C      1  0.5780180000000  0.4842840000000  0.4211520000000 1.0
C      1  0.4181740000000  0.5558310000000  0.4708430000000 1.0
C      1  0.5678750000000  0.5380280000000  0.4306970000000 1.0
C      1  0.5256870000000  0.5382310000000  0.5977540000000 1.0
C      1  0.4918850000000  0.5226620000000  0.4142550000000 1.0
C      1  0.5624570000000  0.5304990000000  0.5237100000000 1.0
C      1  0.4400150000000  0.5484460000000  0.5449530000000 1.0
C      1  0.4654520000000  0.4711820000000  0.4097820000000 1.0
C      1  0.5933610000000  0.4800160000000  0.5141640000000 1.0
C      1  0.4456790000000  0.4452080000000  0.5732070000000 1.0
C      1  0.4825050000000  0.4489260000000  0.4212020000000 1.0
C      1  0.5824830000000  0.4545890000000  0.5216120000000 1.0
C      1  0.4555370000000  0.4375790000000  0.5476900000000 1.0
C      1  0.5145690000000  0.5327030000000  0.4670170000000 1.0
C      1  0.4978490000000  0.5521350000000  0.5273830000000 1.0
C      1  0.4812540000000  0.5527400000000  0.5043900000000 1.0
C      1  0.5254760000000  0.5644030000000  0.5858540000000 1.0
C      1  0.4385970000000  0.5765510000000  0.4772420000000 1.0
C      1  0.5518640000000  0.5622830000000  0.4370190000000 1.0
C      1  0.5834880000000  0.5055170000000  0.5263460000000 1.0
C      1  0.4186020000000  0.4375750000000  0.5761990000000 1.0
C      1  0.4783250000000  0.4967040000000  0.4013020000000 1.0
C      1  0.5527350000000  0.5863880000000  0.4837260000000 1.0
C      1  0.4788740000000  0.5868450000000  0.5842740000000 1.0
C      1  0.4719300000000  0.5864260000000  0.4381610000000 1.0
C      1  0.6064960000000  0.4889020000000  0.4635160000000 1.0
C      1  0.4780710000000  0.4803600000000  0.6026040000000 1.0
C      1  0.4190660000000  0.4897270000000  0.4328310000000 1.0
C      1  0.5579810000000  0.4214140000000  0.4757390000000 1.0
C      1  0.5069160000000  0.4275400000000  0.5538350000000 1.0
C      1  0.4541760000000  0.4371360000000  0.4756330000000 1.0
C      1  0.4568710000000  0.4658130000000  0.4749280000000 1.0
C      1  0.5624290000000  0.4493200000000  0.4708010000000 1.0
C      1  0.5000570000000  0.4566790000000  0.5550830000000 1.0
C      1  0.5086350000000  0.5276250000000  0.5372020000000 1.0
C      1  0.4592920000000  0.5344300000000  0.5028590000000 1.0
C      1  0.5252360000000  0.5126110000000  0.4515030000000 1.0
C      1  0.5681410000000  0.5620280000000  0.5286390000000 1.0
C      1  0.4416950000000  0.5768090000000  0.5514840000000 1.0
C      1  0.4947470000000  0.5530030000000  0.4036470000000 1.0
C      1  0.5628030000000  0.4486280000000  0.5775120000000 1.0
C      1  0.3953710000000  0.4605370000000  0.4999680000000 1.0
C      1  0.5425440000000  0.4422280000000  0.4179580000000 1.0
C      1  0.5586810000000  0.4355060000000  0.5243750000000 1.0
C      1  0.4722740000000  0.4302370000000  0.5263670000000 1.0
C      1  0.5003300000000  0.4369300000000  0.4475370000000 1.0
C      1  0.5390080000000  0.5725690000000  0.4623570000000 1.0
C      1  0.5027810000000  0.5767590000000  0.5730350000000 1.0
C      1  0.4658240000000  0.5791260000000  0.4654220000000 1.0
C      1  0.4494960000000  0.5333750000000  0.5663290000000 1.0
C      1  0.4711820000000  0.5290670000000  0.4362960000000 1.0
C      1  0.5626810000000  0.5315400000000  0.4931860000000 1.0
C      1  0.4582980000000  0.5127830000000  0.4845280000000 1.0
C      1  0.5444760000000  0.4957990000000  0.4638050000000 1.0
C      1  0.4905630000000  0.5082190000000  0.5499450000000 1.0
C      1  0.5411410000000  0.4678850000000  0.4664470000000 1.0
C      1  0.4892280000000  0.4812080000000  0.5417670000000 1.0
C      1  0.4595230000000  0.4861240000000  0.4954840000000 1.0
C      1  0.4027050000000  0.4244190000000  0.5300820000000 1.0
C      1  0.4934420000000  0.4843570000000  0.4438250000000 1.0
C      1  0.5484620000000  0.4853080000000  0.5526550000000 1.0
C      1  0.4028330000000  0.4273710000000  0.5567730000000 1.0
C      1  0.4712510000000  0.4755300000000  0.4534520000000 1.0
C      1  0.5376240000000  0.4771370000000  0.5298200000000 1.0
C      1  0.5610990000000  0.4617180000000  0.4143730000000 1.0
C      1  0.5513460000000  0.4655250000000  0.5957180000000 1.0
C      1  0.3893010000000  0.4857530000000  0.4936260000000 1.0
C      1  0.4596160000000  0.5307530000000  0.6103340000000 1.0
C      1  0.4277970000000  0.5371460000000  0.4228360000000 1.0
C      1  0.6021770000000  0.5399380000000  0.4710990000000 1.0
C      1  0.4350440000000  0.5910340000000  0.5019660000000 1.0
C      1  0.5401060000000  0.5730360000000  0.4133590000000 1.0
C      1  0.5505120000000  0.5737500000000  0.5763020000000 1.0
C      1  0.4544490000000  0.5170060000000  0.4562310000000 1.0
C      1  0.5657980000000  0.5101890000000  0.4748510000000 1.0
C      1  0.4705970000000  0.5146310000000  0.5688330000000 1.0
C      1  0.4848300000000  0.4503760000000  0.5101340000000 1.0
C      1  0.5154170000000  0.4555710000000  0.4711430000000 1.0
C      1  0.5337110000000  0.4535660000000  0.5161430000000 1.0
C      1  0.4376650000000  0.5932530000000  0.5288800000000 1.0
C      1  0.5190620000000  0.5656880000000  0.3984530000000 1.0
C      1  0.5653360000000  0.5730450000000  0.5540180000000 1.0
C      1  0.5133990000000  0.5605870000000  0.4694810000000 1.0
C      1  0.5017280000000  0.5738570000000  0.5447340000000 1.0
C      1  0.4880650000000  0.5682950000000  0.4809220000000 1.0
C      1  0.5271750000000  0.4249440000000  0.4354220000000 1.0
C      1  0.5553460000000  0.4310410000000  0.5559410000000 1.0
C      1  0.4088910000000  0.4363780000000  0.5053040000000 1.0
C      1  0.4370660000000  0.4733730000000  0.4174140000000 1.0
C      1  0.6093960000000  0.4786930000000  0.4900280000000 1.0
C      1  0.4610320000000  0.4597740000000  0.5922690000000 1.0
C      1  0.5047060000000  0.3990470000000  0.5098860000000 1.0
C      1  0.4899260000000  0.4022360000000  0.4851980000000 1.0
C      1  0.5328890000000  0.3955250000000  0.5087560000000 1.0
C      1  0.3944450000000  0.4909360000000  0.4472730000000 1.0
C      1  0.6008350000000  0.4785170000000  0.4377120000000 1.0
C      1  0.5053210000000  0.4769590000000  0.6096380000000 1.0
C      1  0.4724590000000  0.5691500000000  0.4152740000000 1.0
C      1  0.5716210000000  0.5748960000000  0.5020680000000 1.0
C      1  0.4527480000000  0.5766110000000  0.5795820000000 1.0
C      1  0.5439490000000  0.5102690000000  0.5640640000000 1.0
C      1  0.4113620000000  0.5313240000000  0.5092900000000 1.0
C      1  0.5397920000000  0.5092050000000  0.4063210000000 1.0
C      1  0.5344940000000  0.5120060000000  0.5906020000000 1.0
C      1  0.4044820000000  0.5312010000000  0.4812790000000 1.0
C      1  0.5661950000000  0.5113390000000  0.4174780000000 1.0
C      1  0.5548050000000  0.4132280000000  0.5035340000000 1.0
C      1  0.4934540000000  0.4122440000000  0.5329500000000 1.0
C      1  0.4787480000000  0.4219000000000  0.4672150000000 1.0
C      1  0.4534600000000  0.5486080000000  0.4210710000000 1.0
C      1  0.5829140000000  0.5530960000000  0.4870710000000 1.0
C      1  0.4490150000000  0.5498200000000  0.5912390000000 1.0
C      1  0.5933860000000  0.5135240000000  0.4656810000000 1.0
C      1  0.4708480000000  0.5071700000000  0.5972380000000 1.0
C      1  0.4302750000000  0.5145650000000  0.4402760000000 1.0
C      1  0.5373030000000  0.5262610000000  0.5411260000000 1.0
C      1  0.4365700000000  0.5375500000000  0.5198020000000 1.0
C      1  0.5181090000000  0.5124510000000  0.4241380000000 1.0
C      1  0.5430420000000  0.4096030000000  0.4542220000000 1.0
C      1  0.5315180000000  0.4174040000000  0.5622520000000 1.0
C      1  0.4304760000000  0.4282300000000  0.4885890000000 1.0
C      1  0.4755830000000  0.4766030000000  0.5166860000000 1.0
C      1  0.5110130000000  0.4504050000000  0.4988250000000 1.0
END
