TITL C-3623287-7182-132 3.5562790666731e-06 125000 -250.211501357362 0 0 44 (C1) n - 1
REM
REM in /home/nfs/bkarasulu/CARBON/AIRSS/Generating-Clusters/LCBOP/Higher-Symm/SD-CG/FIRE-CG
REM
REM
REM
REM
REM
REM ./C.cell (b20cbc046b6831c77cfcea5457e17084)
REM AIRSS Version 0.9.1 bugfix July 2018 build 013d7b7c2542+ Fri, 06 Jul 2018 19:26:36 +0100
REM compiler GCC version 9.2.1 20190827 (Red Hat 9.2.1-1)
REM options -cpp -mtune=generic -march=x86-64 -g -O0 -fpre-include=/usr/include/finclude/math-vector-fortran.h
REM seed -1548251444 -748223892 -580806592 -871399441 -1858763632 -1327456803 564381749 -370334841 1147391083 2034571318 -92066964 468476841 603525087 -825847230 2127042734 1463033081 -836271513 1889481104 700764056 -596811418 -886940793 1319514959 1566700597 -1158883649 517847150 627247660 -968101509 -947654981 1106357535 1231495312 2051799515 465601062 -920190425
REM
CELL 1.54180   50.00000   50.00000   50.00000   90.00000   90.00000   90.00000
LATT -1
SFAC C  
C      1  0.5073830000000  0.4642680000000  0.4374550000000 1.0
C      1  0.5184020000000  0.5474430000000  0.4622160000000 1.0
C      1  0.4827140000000  0.5555530000000  0.5083970000000 1.0
C      1  0.4875200000000  0.5084690000000  0.5596080000000 1.0
C      1  0.5002340000000  0.4454670000000  0.5466040000000 1.0
C      1  0.4561580000000  0.5843110000000  0.4778550000000 1.0
C      1  0.4415300000000  0.5090890000000  0.5462400000000 1.0
C      1  0.4537930000000  0.4627650000000  0.5365480000000 1.0
C      1  0.4637190000000  0.4637000000000  0.4589430000000 1.0
C      1  0.4762500000000  0.5312460000000  0.4434770000000 1.0
C      1  0.5067910000000  0.4683170000000  0.5061400000000 1.0
C      1  0.5200230000000  0.4768390000000  0.4803700000000 1.0
C      1  0.5078460000000  0.5030750000000  0.4709600000000 1.0
C      1  0.4984080000000  0.5135730000000  0.4964750000000 1.0
C      1  0.4998660000000  0.4944040000000  0.5169510000000 1.0
C      1  0.4536750000000  0.4537340000000  0.5098010000000 1.0
C      1  0.4813240000000  0.4769620000000  0.4409540000000 1.0
C      1  0.4890890000000  0.5516720000000  0.4596790000000 1.0
C      1  0.4687990000000  0.5475960000000  0.5320340000000 1.0
C      1  0.4805440000000  0.4831340000000  0.5713360000000 1.0
C      1  0.5478820000000  0.4537380000000  0.5270370000000 1.0
C      1  0.5577920000000  0.4588870000000  0.4587570000000 1.0
C      1  0.5528100000000  0.5155840000000  0.4489120000000 1.0
C      1  0.5297940000000  0.5477730000000  0.4900890000000 1.0
C      1  0.5373920000000  0.5097740000000  0.5440110000000 1.0
C      1  0.5095250000000  0.5050370000000  0.5419100000000 1.0
C      1  0.5190340000000  0.4514540000000  0.5258730000000 1.0
C      1  0.5289640000000  0.4615020000000  0.4564170000000 1.0
C      1  0.5252770000000  0.5202120000000  0.4538520000000 1.0
C      1  0.5060470000000  0.5398540000000  0.5044380000000 1.0
C      1  0.5601270000000  0.5089890000000  0.5317580000000 1.0
C      1  0.5689100000000  0.4677220000000  0.5201570000000 1.0
C      1  0.5767290000000  0.4695960000000  0.4738350000000 1.0
C      1  0.5732360000000  0.5119060000000  0.4643810000000 1.0
C      1  0.5544040000000  0.5341410000000  0.4966780000000 1.0
C      1  0.4759740000000  0.5049480000000  0.4359910000000 1.0
C      1  0.4748940000000  0.5648470000000  0.4818790000000 1.0
C      1  0.4653690000000  0.5243420000000  0.5486320000000 1.0
C      1  0.4766950000000  0.4601750000000  0.5542840000000 1.0
C      1  0.4556080000000  0.4557340000000  0.4831800000000 1.0
C      1  0.5675980000000  0.4995960000000  0.4977660000000 1.0
C      1  0.4078120000000  0.4742280000000  0.5486650000000 1.0
C      1  0.4335730000000  0.4820060000000  0.5439030000000 1.0
C      1  0.5429530000000  0.4891050000000  0.4927080000000 1.0
END
