TITL C-3623282-6910-1327 7.1968632660074e-07 125000 -983.841272260181 0 0 164 (C3i) n - 1
REM
REM in /home/nfs/bkarasulu/CARBON/AIRSS/Generating-Clusters/LCBOP/Higher-Symm/SD-CG/FIRE-CG
REM
REM
REM
REM
REM
REM ./C.cell (b20cbc046b6831c77cfcea5457e17084)
REM AIRSS Version 0.9.1 bugfix July 2018 build 013d7b7c2542+ Fri, 06 Jul 2018 19:26:36 +0100
REM compiler GCC version 9.2.1 20190827 (Red Hat 9.2.1-1)
REM options -cpp -mtune=generic -march=x86-64 -g -O0 -fpre-include=/usr/include/finclude/math-vector-fortran.h
REM seed -186994651 -937516801 -541598846 -1470080398 1335005496 -1316253863 -748350931 824843138 -1630833748 235242250 -1881229723 -978273691 94753197 367607266 192624592 -2128357458 -1955120906 1765222645 -1664364787 1998526944 -1138396756 -953521426 371605043 -1040795452 120579426 -2045320698 1383096905 -1217635357 -51966514 -517746762 -1117581543 -555711267 1728412881
REM
CELL 1.54180   50.00000   50.00000   50.00000   90.00000   90.00000   90.00000
LATT -1
SFAC C  
C      1  0.4309950000000  0.5301600000000  0.4187690000000 1.0
C      1  0.4916940000000  0.5747300000000  0.5812320000000 1.0
C      1  0.5606430000000  0.5444500000000  0.4187690000000 1.0
C      1  0.5688930000000  0.4695970000000  0.5812310000000 1.0
C      1  0.5081950000000  0.4250260000000  0.4187680000000 1.0
C      1  0.4392450000000  0.4553060000000  0.5812310000000 1.0
C      1  0.5515000000000  0.4906830000000  0.5409530000000 1.0
C      1  0.5177590000000  0.4506320000000  0.4590470000000 1.0
C      1  0.4662030000000  0.4598260000000  0.5409530000000 1.0
C      1  0.4483880000000  0.5090730000000  0.4590470000000 1.0
C      1  0.4821290000000  0.5491240000000  0.5409530000000 1.0
C      1  0.5336850000000  0.5399300000000  0.4590470000000 1.0
C      1  0.5372460000000  0.5274880000000  0.4071500000000 1.0
C      1  0.5425050000000  0.4813780000000  0.5928510000000 1.0
C      1  0.5052040000000  0.4537700000000  0.4071490000000 1.0
C      1  0.4626420000000  0.4722680000000  0.5928500000000 1.0
C      1  0.4573830000000  0.5183790000000  0.4071490000000 1.0
C      1  0.4946850000000  0.5459870000000  0.5928510000000 1.0
C      1  0.4439190000000  0.4286800000000  0.5922110000000 1.0
C      1  0.4102730000000  0.5127990000000  0.4077880000000 1.0
C      1  0.4662970000000  0.5839950000000  0.5922130000000 1.0
C      1  0.5559690000000  0.5710770000000  0.4077890000000 1.0
C      1  0.5896150000000  0.4869580000000  0.5922120000000 1.0
C      1  0.5335910000000  0.4157610000000  0.4077870000000 1.0
C      1  0.4667180000000  0.5301070000000  0.5950290000000 1.0
C      1  0.5095110000000  0.5437680000000  0.4049710000000 1.0
C      1  0.5427370000000  0.5135370000000  0.5950290000000 1.0
C      1  0.5331700000000  0.4696490000000  0.4049710000000 1.0
C      1  0.4903770000000  0.4559880000000  0.5950290000000 1.0
C      1  0.4571510000000  0.4862190000000  0.4049710000000 1.0
C      1  0.4903240000000  0.5253130000000  0.5533740000000 1.0
C      1  0.5171620000000  0.5209270000000  0.4466260000000 1.0
C      1  0.5267810000000  0.4954910000000  0.5533740000000 1.0
C      1  0.5095640000000  0.4744440000000  0.4466260000000 1.0
C      1  0.4827260000000  0.4788290000000  0.5533740000000 1.0
C      1  0.4731070000000  0.5042650000000  0.4466260000000 1.0
C      1  0.4779690000000  0.4423630000000  0.5212520000000 1.0
C      1  0.4391470000000  0.4901520000000  0.4787470000000 1.0
C      1  0.4611230000000  0.5476660000000  0.5212530000000 1.0
C      1  0.5219190000000  0.5573930000000  0.4787480000000 1.0
C      1  0.5607410000000  0.5096040000000  0.5212530000000 1.0
C      1  0.5387660000000  0.4520900000000  0.4787470000000 1.0
C      1  0.5385570000000  0.5982030000000  0.4431050000000 1.0
C      1  0.6044020000000  0.5156000000000  0.5568960000000 1.0
C      1  0.5657890000000  0.4172770000000  0.4431040000000 1.0
C      1  0.4613310000000  0.4015530000000  0.5568950000000 1.0
C      1  0.3954860000000  0.4841560000000  0.4431040000000 1.0
C      1  0.4340990000000  0.5824790000000  0.5568960000000 1.0
C      1  0.5528340000000  0.4071310000000  0.4661820000000 1.0
C      1  0.4460670000000  0.4077000000000  0.5338170000000 1.0
C      1  0.3931770000000  0.5004480000000  0.4661820000000 1.0
C      1  0.4470540000000  0.5926260000000  0.5338180000000 1.0
C      1  0.5538210000000  0.5920570000000  0.4661830000000 1.0
C      1  0.6067110000000  0.4993080000000  0.5338180000000 1.0
C      1  0.5350080000000  0.3924940000000  0.5371230000000 1.0
C      1  0.4244780000000  0.4158200000000  0.4628760000000 1.0
C      1  0.3894150000000  0.5232040000000  0.5371230000000 1.0
C      1  0.4648810000000  0.6072630000000  0.4628770000000 1.0
C      1  0.5754100000000  0.5839360000000  0.5371240000000 1.0
C      1  0.6104730000000  0.4765520000000  0.4628770000000 1.0
C      1  0.4948860000000  0.4438640000000  0.4734620000000 1.0
C      1  0.4489050000000  0.4762520000000  0.5265380000000 1.0
C      1  0.4539640000000  0.5322660000000  0.4734620000000 1.0
C      1  0.5050020000000  0.5558920000000  0.5265380000000 1.0
C      1  0.5509830000000  0.5235050000000  0.4734620000000 1.0
C      1  0.5459240000000  0.4674900000000  0.5265380000000 1.0
C      1  0.4591200000000  0.4467870000000  0.4967920000000 1.0
C      1  0.4335530000000  0.5086870000000  0.5032080000000 1.0
C      1  0.4743780000000  0.5617790000000  0.4967930000000 1.0
C      1  0.5407680000000  0.5529700000000  0.5032080000000 1.0
C      1  0.5663350000000  0.4910690000000  0.4967920000000 1.0
C      1  0.5255110000000  0.4379780000000  0.5032070000000 1.0
C      1  0.5566110000000  0.4284330000000  0.4186220000000 1.0
C      1  0.4664040000000  0.4150800000000  0.5813770000000 1.0
C      1  0.4097370000000  0.4865270000000  0.4186220000000 1.0
C      1  0.4432770000000  0.5713230000000  0.5813780000000 1.0
C      1  0.5334850000000  0.5846760000000  0.4186230000000 1.0
C      1  0.5901510000000  0.5132300000000  0.5813780000000 1.0
C      1  0.4878370000000  0.6076980000000  0.5087920000000 1.0
C      1  0.5872650000000  0.5642730000000  0.4912100000000 1.0
C      1  0.5993720000000  0.4564530000000  0.5087910000000 1.0
C      1  0.5120510000000  0.3920590000000  0.4912080000000 1.0
C      1  0.4126230000000  0.4354830000000  0.5087900000000 1.0
C      1  0.4005160000000  0.5433030000000  0.4912090000000 1.0
C      1  0.5767270000000  0.4340330000000  0.5104160000000 1.0
C      1  0.4813120000000  0.4004600000000  0.4895830000000 1.0
C      1  0.4045290000000  0.4663050000000  0.5104160000000 1.0
C      1  0.4231620000000  0.5657230000000  0.4895840000000 1.0
C      1  0.5185760000000  0.5992960000000  0.5104170000000 1.0
C      1  0.5953590000000  0.5334510000000  0.4895840000000 1.0
C      1  0.5661010000000  0.5553780000000  0.5795880000000 1.0
C      1  0.5810870000000  0.4703350000000  0.4204120000000 1.0
C      1  0.5149300000000  0.4148340000000  0.5795870000000 1.0
C      1  0.4337870000000  0.4443790000000  0.4204120000000 1.0
C      1  0.4188010000000  0.5294210000000  0.5795880000000 1.0
C      1  0.4849580000000  0.5849220000000  0.4204130000000 1.0
C      1  0.5046890000000  0.5269330000000  0.5043100000000 1.0
C      1  0.5257460000000  0.5092970000000  0.4956900000000 1.0
C      1  0.5210020000000  0.4822420000000  0.5043100000000 1.0
C      1  0.4952000000000  0.4728230000000  0.4956900000000 1.0
C      1  0.4741420000000  0.4904600000000  0.5043100000000 1.0
C      1  0.4788860000000  0.5175140000000  0.4956900000000 1.0
C      1  0.4379990000000  0.5544680000000  0.4659020000000 1.0
C      1  0.5162480000000  0.5808190000000  0.5340990000000 1.0
C      1  0.5781930000000  0.5262300000000  0.4659020000000 1.0
C      1  0.5618890000000  0.4452880000000  0.5340980000000 1.0
C      1  0.4836400000000  0.4189370000000  0.4659010000000 1.0
C      1  0.4216950000000  0.4735270000000  0.5340980000000 1.0
C      1  0.5281170000000  0.4944210000000  0.4506530000000 1.0
C      1  0.5093040000000  0.4727510000000  0.5493460000000 1.0
C      1  0.4811320000000  0.4782090000000  0.4506530000000 1.0
C      1  0.4717710000000  0.5053350000000  0.5493470000000 1.0
C      1  0.4905840000000  0.5270050000000  0.4506540000000 1.0
C      1  0.5187570000000  0.5215470000000  0.5493470000000 1.0
C      1  0.3996250000000  0.5246240000000  0.5617000000000 1.0
C      1  0.4712150000000  0.5991310000000  0.4383010000000 1.0
C      1  0.5715340000000  0.5743830000000  0.5617010000000 1.0
C      1  0.6002630000000  0.4751320000000  0.4383000000000 1.0
C      1  0.5286730000000  0.4006260000000  0.5616990000000 1.0
C      1  0.4283540000000  0.4253730000000  0.4382990000000 1.0
C      1  0.5027750000000  0.4100820000000  0.4447600000000 1.0
C      1  0.4235930000000  0.4525280000000  0.5552390000000 1.0
C      1  0.4207620000000  0.5423260000000  0.4447610000000 1.0
C      1  0.4971140000000  0.5896750000000  0.5552400000000 1.0
C      1  0.5762950000000  0.5472280000000  0.4447610000000 1.0
C      1  0.5791260000000  0.4574310000000  0.5552390000000 1.0
C      1  0.5070970000000  0.4439160000000  0.5256000000000 1.0
C      1  0.4550560000000  0.4657030000000  0.4743990000000 1.0
C      1  0.4479030000000  0.5216650000000  0.5256010000000 1.0
C      1  0.4927910000000  0.5558410000000  0.4744000000000 1.0
C      1  0.5448330000000  0.5340540000000  0.5256010000000 1.0
C      1  0.5519850000000  0.4780920000000  0.4743990000000 1.0
C      1  0.6071110000000  0.5075330000000  0.5045940000000 1.0
C      1  0.5601570000000  0.4108960000000  0.4954060000000 1.0
C      1  0.4529900000000  0.4032420000000  0.5045930000000 1.0
C      1  0.3927770000000  0.4922240000000  0.4954060000000 1.0
C      1  0.4397320000000  0.5888600000000  0.5045940000000 1.0
C      1  0.5468990000000  0.5965150000000  0.4954070000000 1.0
C      1  0.4914690000000  0.4281470000000  0.5871440000000 1.0
C      1  0.4335870000000  0.4713530000000  0.4128550000000 1.0
C      1  0.4420610000000  0.5430820000000  0.5871450000000 1.0
C      1  0.5084190000000  0.5716090000000  0.4128560000000 1.0
C      1  0.5663020000000  0.5284040000000  0.5871450000000 1.0
C      1  0.5578270000000  0.4566740000000  0.4128550000000 1.0
C      1  0.6004010000000  0.4701950000000  0.5370530000000 1.0
C      1  0.5244660000000  0.3980380000000  0.4629470000000 1.0
C      1  0.4240090000000  0.4277210000000  0.5370520000000 1.0
C      1  0.3994870000000  0.5295620000000  0.4629470000000 1.0
C      1  0.4754220000000  0.6017180000000  0.5370530000000 1.0
C      1  0.5758790000000  0.5720350000000  0.4629480000000 1.0
C      1  0.4847670000000  0.4753410000000  0.3995480000000 1.0
C      1  0.4711050000000  0.5007530000000  0.6004520000000 1.0
C      1  0.4862830000000  0.5252920000000  0.3995480000000 1.0
C      1  0.5151220000000  0.5244150000000  0.6004520000000 1.0
C      1  0.5287830000000  0.4990030000000  0.3995480000000 1.0
C      1  0.5136050000000  0.4744650000000  0.6004520000000 1.0
C      1  0.5719060000000  0.5832320000000  0.5093320000000 1.0
C      1  0.6081120000000  0.4792350000000  0.4906690000000 1.0
C      1  0.5361500000000  0.3958800000000  0.5093300000000 1.0
C      1  0.4279820000000  0.4165240000000  0.4906680000000 1.0
C      1  0.3917770000000  0.5205220000000  0.5093310000000 1.0
C      1  0.4637380000000  0.6038760000000  0.4906700000000 1.0
C      1  0.4999440000000  0.4998770000000  0.6069640000000 1.0
C      1  0.4999440000000  0.4998790000000  0.3930360000000 1.0
END
