TITL C-3623287-7182-1974 -6.43909294311012e-07 125000 -912.575670376741 0 0 156 (C1) n - 1
REM
REM in /home/nfs/bkarasulu/CARBON/AIRSS/Generating-Clusters/LCBOP/Higher-Symm/SD-CG/FIRE-CG
REM
REM
REM
REM
REM
REM ./C.cell (b20cbc046b6831c77cfcea5457e17084)
REM AIRSS Version 0.9.1 bugfix July 2018 build 013d7b7c2542+ Fri, 06 Jul 2018 19:26:36 +0100
REM compiler GCC version 9.2.1 20190827 (Red Hat 9.2.1-1)
REM options -cpp -mtune=generic -march=x86-64 -g -O0 -fpre-include=/usr/include/finclude/math-vector-fortran.h
REM seed -1975495141 3793896 2140758379 -271485955 -266786255 1145691619 73928077 -1631338946 2035428471 -1218956738 -826368587 -2059498415 -129394811 -667312213 294391366 646291437 2052764472 615770343 606802465 -1346525059 1152926543 -1283012608 -1393504636 870754361 852672039 2053768804 288220097 -921607084 -500682335 -803531605 -694168127 199868882 -315892352
REM
CELL 1.54180   50.00000   50.00000   50.00000   90.00000   90.00000   90.00000
LATT -1
SFAC C  
C      1  0.5181680000000  0.5296820000000  0.4887250000000 1.0
C      1  0.5191970000000  0.5312710000000  0.5185630000000 1.0
C      1  0.4708740000000  0.5279830000000  0.5057250000000 1.0
C      1  0.4879190000000  0.5273410000000  0.4799810000000 1.0
C      1  0.5184140000000  0.4712230000000  0.4881470000000 1.0
C      1  0.5098200000000  0.4712280000000  0.5184520000000 1.0
C      1  0.4797470000000  0.4691260000000  0.5198750000000 1.0
C      1  0.4932480000000  0.4686850000000  0.4712500000000 1.0
C      1  0.4533500000000  0.5880120000000  0.4243080000000 1.0
C      1  0.5724500000000  0.5800260000000  0.4547470000000 1.0
C      1  0.5451650000000  0.5795160000000  0.5757060000000 1.0
C      1  0.4263970000000  0.5798350000000  0.5444990000000 1.0
C      1  0.4559880000000  0.4187240000000  0.4272520000000 1.0
C      1  0.5759280000000  0.4112470000000  0.4549050000000 1.0
C      1  0.5447600000000  0.4202700000000  0.5735530000000 1.0
C      1  0.4241010000000  0.4182880000000  0.5457070000000 1.0
C      1  0.5420950000000  0.4872540000000  0.4794240000000 1.0
C      1  0.5200850000000  0.4877460000000  0.5408410000000 1.0
C      1  0.4555120000000  0.4832370000000  0.5216710000000 1.0
C      1  0.4816480000000  0.4840480000000  0.4513960000000 1.0
C      1  0.5416520000000  0.5150240000000  0.4793560000000 1.0
C      1  0.5216690000000  0.5157300000000  0.5414670000000 1.0
C      1  0.4522910000000  0.5112640000000  0.5183320000000 1.0
C      1  0.4803790000000  0.5120080000000  0.4548830000000 1.0
C      1  0.4582420000000  0.4752710000000  0.4354540000000 1.0
C      1  0.5616240000000  0.4785830000000  0.4586440000000 1.0
C      1  0.5408990000000  0.4764950000000  0.5586190000000 1.0
C      1  0.4368120000000  0.4734400000000  0.5429500000000 1.0
C      1  0.4590650000000  0.5223500000000  0.4365030000000 1.0
C      1  0.5591560000000  0.5258020000000  0.4582570000000 1.0
C      1  0.5426640000000  0.5239720000000  0.5608790000000 1.0
C      1  0.4358320000000  0.5206330000000  0.5414260000000 1.0
C      1  0.5917900000000  0.5309620000000  0.5413670000000 1.0
C      1  0.4583200000000  0.5297740000000  0.5887870000000 1.0
C      1  0.4114610000000  0.5321890000000  0.4574780000000 1.0
C      1  0.5373960000000  0.5331300000000  0.4114150000000 1.0
C      1  0.5881070000000  0.4671390000000  0.5379750000000 1.0
C      1  0.4569590000000  0.4665230000000  0.5918790000000 1.0
C      1  0.4110680000000  0.4683690000000  0.4586580000000 1.0
C      1  0.5412210000000  0.4695690000000  0.4109360000000 1.0
C      1  0.4785710000000  0.3989930000000  0.4668040000000 1.0
C      1  0.5344990000000  0.3960910000000  0.4802330000000 1.0
C      1  0.5210920000000  0.3964840000000  0.5375990000000 1.0
C      1  0.4637490000000  0.3977530000000  0.5227650000000 1.0
C      1  0.4784920000000  0.6030520000000  0.4658730000000 1.0
C      1  0.5361670000000  0.6034850000000  0.4788450000000 1.0
C      1  0.5218240000000  0.6012590000000  0.5366960000000 1.0
C      1  0.4656610000000  0.5993220000000  0.5217710000000 1.0
C      1  0.4492460000000  0.5815560000000  0.5627300000000 1.0
C      1  0.4351760000000  0.5882740000000  0.4478340000000 1.0
C      1  0.5491360000000  0.5836830000000  0.4373070000000 1.0
C      1  0.5648820000000  0.5842580000000  0.5542400000000 1.0
C      1  0.4456210000000  0.4139130000000  0.5654300000000 1.0
C      1  0.4373730000000  0.4163470000000  0.4497910000000 1.0
C      1  0.5524320000000  0.4105730000000  0.4367970000000 1.0
C      1  0.5622020000000  0.4169550000000  0.5502160000000 1.0
C      1  0.5946960000000  0.4703270000000  0.5072410000000 1.0
C      1  0.4884360000000  0.4697670000000  0.5966020000000 1.0
C      1  0.4063650000000  0.4721810000000  0.4896460000000 1.0
C      1  0.5105090000000  0.4708440000000  0.4073350000000 1.0
C      1  0.5963540000000  0.5284000000000  0.5097620000000 1.0
C      1  0.4891790000000  0.5265650000000  0.5943590000000 1.0
C      1  0.4076340000000  0.5293420000000  0.4884070000000 1.0
C      1  0.5065660000000  0.5290880000000  0.4057690000000 1.0
C      1  0.5779990000000  0.5785390000000  0.4838840000000 1.0
C      1  0.5158620000000  0.5762670000000  0.5778870000000 1.0
C      1  0.4236200000000  0.5778750000000  0.5153470000000 1.0
C      1  0.4825110000000  0.5823780000000  0.4216330000000 1.0
C      1  0.5784510000000  0.4172000000000  0.4839800000000 1.0
C      1  0.5156380000000  0.4208560000000  0.5791470000000 1.0
C      1  0.4220900000000  0.4218810000000  0.5164250000000 1.0
C      1  0.4852180000000  0.4212030000000  0.4247480000000 1.0
C      1  0.4714540000000  0.5985670000000  0.5515580000000 1.0
C      1  0.4486340000000  0.6023060000000  0.4714970000000 1.0
C      1  0.5292470000000  0.6035370000000  0.4488450000000 1.0
C      1  0.5523920000000  0.6018190000000  0.5315510000000 1.0
C      1  0.4687490000000  0.3969760000000  0.5532640000000 1.0
C      1  0.4487160000000  0.3994310000000  0.4720830000000 1.0
C      1  0.5289800000000  0.3964670000000  0.4503250000000 1.0
C      1  0.5510370000000  0.3967930000000  0.5305460000000 1.0
C      1  0.4988340000000  0.4017100000000  0.4435820000000 1.0
C      1  0.5584680000000  0.3989360000000  0.4996360000000 1.0
C      1  0.5008050000000  0.4000740000000  0.5611730000000 1.0
C      1  0.4410200000000  0.4024260000000  0.5023540000000 1.0
C      1  0.4980120000000  0.6007820000000  0.4417200000000 1.0
C      1  0.5598880000000  0.5990820000000  0.4991270000000 1.0
C      1  0.5016700000000  0.5959090000000  0.5592920000000 1.0
C      1  0.4422240000000  0.5972900000000  0.5016950000000 1.0
C      1  0.6122030000000  0.4831440000000  0.5504280000000 1.0
C      1  0.4459030000000  0.4853780000000  0.6141260000000 1.0
C      1  0.3876210000000  0.4861880000000  0.4474850000000 1.0
C      1  0.5510090000000  0.4881120000000  0.3874510000000 1.0
C      1  0.6138540000000  0.5112140000000  0.5518240000000 1.0
C      1  0.4464780000000  0.5134230000000  0.6127100000000 1.0
C      1  0.3876390000000  0.5143440000000  0.4469680000000 1.0
C      1  0.5493740000000  0.5162880000000  0.3876060000000 1.0
C      1  0.5712620000000  0.4409820000000  0.5362030000000 1.0
C      1  0.4567730000000  0.4382750000000  0.5778260000000 1.0
C      1  0.4269050000000  0.4414220000000  0.4598550000000 1.0
C      1  0.5444320000000  0.4377410000000  0.4293770000000 1.0
C      1  0.5773830000000  0.5600650000000  0.5424050000000 1.0
C      1  0.4591330000000  0.5561960000000  0.5723950000000 1.0
C      1  0.4278800000000  0.5607730000000  0.4553450000000 1.0
C      1  0.5352380000000  0.5597320000000  0.4277420000000 1.0
C      1  0.5881290000000  0.4898480000000  0.4597990000000 1.0
C      1  0.5392230000000  0.4852240000000  0.5860180000000 1.0
C      1  0.4094600000000  0.4826970000000  0.5412630000000 1.0
C      1  0.4581170000000  0.4853460000000  0.4082740000000 1.0
C      1  0.5866830000000  0.5174340000000  0.4595440000000 1.0
C      1  0.5400120000000  0.5128220000000  0.5873240000000 1.0
C      1  0.4087570000000  0.5103680000000  0.5410700000000 1.0
C      1  0.4589440000000  0.5130420000000  0.4089310000000 1.0
C      1  0.4767140000000  0.4468820000000  0.4777210000000 1.0
C      1  0.5310070000000  0.4438610000000  0.4828440000000 1.0
C      1  0.5246180000000  0.4447980000000  0.5263810000000 1.0
C      1  0.4761540000000  0.4434970000000  0.5307080000000 1.0
C      1  0.4817860000000  0.5553380000000  0.4688100000000 1.0
C      1  0.5248240000000  0.5560110000000  0.4742920000000 1.0
C      1  0.5305590000000  0.5562730000000  0.5229540000000 1.0
C      1  0.4762220000000  0.5507450000000  0.5221260000000 1.0
C      1  0.4120440000000  0.5539510000000  0.5036050000000 1.0
C      1  0.4913270000000  0.5557580000000  0.4092190000000 1.0
C      1  0.5920960000000  0.5541910000000  0.4944360000000 1.0
C      1  0.5047050000000  0.5517430000000  0.5901100000000 1.0
C      1  0.4099850000000  0.4466590000000  0.5052340000000 1.0
C      1  0.4965690000000  0.4453800000000  0.4125960000000 1.0
C      1  0.5907880000000  0.4438230000000  0.4923730000000 1.0
C      1  0.5045290000000  0.4447790000000  0.5928630000000 1.0
C      1  0.4484510000000  0.5118180000000  0.5664380000000 1.0
C      1  0.4340720000000  0.5137600000000  0.4483160000000 1.0
C      1  0.5476540000000  0.5155870000000  0.4336250000000 1.0
C      1  0.5675650000000  0.5141810000000  0.5492680000000 1.0
C      1  0.4483630000000  0.4832170000000  0.5678390000000 1.0
C      1  0.4338540000000  0.4852730000000  0.4482640000000 1.0
C      1  0.5496510000000  0.4870640000000  0.4335410000000 1.0
C      1  0.5661750000000  0.4855980000000  0.5474140000000 1.0
C      1  0.5122810000000  0.4187320000000  0.5204190000000 1.0
C      1  0.4823150000000  0.4196520000000  0.5154510000000 1.0
C      1  0.4873630000000  0.4208020000000  0.4848020000000 1.0
C      1  0.5179610000000  0.4190490000000  0.4891440000000 1.0
C      1  0.5145070000000  0.5797080000000  0.5178650000000 1.0
C      1  0.4831120000000  0.5773630000000  0.5122230000000 1.0
C      1  0.4878370000000  0.5801270000000  0.4823980000000 1.0
C      1  0.5184370000000  0.5814420000000  0.4871650000000 1.0
C      1  0.4533380000000  0.5527350000000  0.4650660000000 1.0
C      1  0.5158540000000  0.5552890000000  0.4489820000000 1.0
C      1  0.5579830000000  0.5558100000000  0.5216420000000 1.0
C      1  0.4761320000000  0.5479520000000  0.5497990000000 1.0
C      1  0.4491210000000  0.4495200000000  0.4775460000000 1.0
C      1  0.5344560000000  0.4461490000000  0.4539820000000 1.0
C      1  0.5499340000000  0.4454160000000  0.5170950000000 1.0
C      1  0.4774570000000  0.4432980000000  0.5581640000000 1.0
C      1  0.5021950000000  0.4993440000000  0.4030640000000 1.0
C      1  0.5992370000000  0.4995170000000  0.5021280000000 1.0
C      1  0.4957340000000  0.4982520000000  0.5989920000000 1.0
C      1  0.4037660000000  0.5009960000000  0.4957880000000 1.0
END
