TITL C-3623283-6828-712 -494.207267067538 125000 -839.14516730818 0 0 142 (C1) n - 1
REM
REM in /home/nfs/bkarasulu/CARBON/AIRSS/Generating-Clusters/LCBOP/Higher-Symm/SD-CG/FIRE-CG
REM
REM
REM
REM
REM
REM ./C.cell (b20cbc046b6831c77cfcea5457e17084)
REM AIRSS Version 0.9.1 bugfix July 2018 build 013d7b7c2542+ Fri, 06 Jul 2018 19:26:36 +0100
REM compiler GCC version 9.2.1 20190827 (Red Hat 9.2.1-1)
REM options -cpp -mtune=generic -march=x86-64 -g -O0 -fpre-include=/usr/include/finclude/math-vector-fortran.h
REM seed 284539045 -338803454 1690353213 -1846287913 633351404 -1641742500 -2069548727 2124037169 1101990502 614936242 -1210878880 -1945818117 1059771713 612680908 -985427235 739027323 -1041422870 -1190987746 -1201655340 -1723814904 1879785209 -132264319 -204864244 1831915451 -805692900 1064954988 936948135 1815115517 564662159 844126640 1363259774 -973351663 -477962451
REM
CELL 1.54180   50.00000   50.00000   50.00000   90.00000   90.00000   90.00000
LATT -1
SFAC C  
C      1  0.5428590000000  0.5214160000000  0.4759400000000 1.0
C      1  0.4699140000000  0.5433030000000  0.4872380000000 1.0
C      1  0.4497650000000  0.4795840000000  0.4660330000000 1.0
C      1  0.5160000000000  0.4511640000000  0.4927630000000 1.0
C      1  0.4433860000000  0.5266530000000  0.5298680000000 1.0
C      1  0.5156270000000  0.5493610000000  0.5136170000000 1.0
C      1  0.5339450000000  0.4798970000000  0.5325160000000 1.0
C      1  0.4664920000000  0.4586860000000  0.5089670000000 1.0
C      1  0.5434810000000  0.4748750000000  0.4177440000000 1.0
C      1  0.5232580000000  0.5448490000000  0.4224110000000 1.0
C      1  0.4527580000000  0.5242800000000  0.4161880000000 1.0
C      1  0.4772090000000  0.4506040000000  0.4179080000000 1.0
C      1  0.4538450000000  0.4743490000000  0.5811570000000 1.0
C      1  0.4783080000000  0.5472230000000  0.5821060000000 1.0
C      1  0.5467100000000  0.5249980000000  0.5790300000000 1.0
C      1  0.5247170000000  0.4531000000000  0.5784460000000 1.0
C      1  0.4647260000000  0.4053850000000  0.4549450000000 1.0
C      1  0.5783090000000  0.4595840000000  0.4620430000000 1.0
C      1  0.5466000000000  0.5875800000000  0.4592080000000 1.0
C      1  0.4058330000000  0.5432500000000  0.4463480000000 1.0
C      1  0.5465160000000  0.4100870000000  0.5412290000000 1.0
C      1  0.4112990000000  0.4571500000000  0.5429210000000 1.0
C      1  0.4648120000000  0.5929160000000  0.5459330000000 1.0
C      1  0.5869540000000  0.5443260000000  0.5379210000000 1.0
C      1  0.4467180000000  0.5780040000000  0.5613190000000 1.0
C      1  0.4280460000000  0.4404160000000  0.5578530000000 1.0
C      1  0.5606810000000  0.4259060000000  0.5595490000000 1.0
C      1  0.5686510000000  0.5594050000000  0.5529680000000 1.0
C      1  0.5601280000000  0.5708590000000  0.4412180000000 1.0
C      1  0.5601840000000  0.4426020000000  0.4491180000000 1.0
C      1  0.4463020000000  0.4197870000000  0.4395080000000 1.0
C      1  0.4200750000000  0.5584670000000  0.4274390000000 1.0
C      1  0.4282830000000  0.4881880000000  0.5746300000000 1.0
C      1  0.5107280000000  0.4310870000000  0.5649310000000 1.0
C      1  0.5702740000000  0.5114040000000  0.5684150000000 1.0
C      1  0.4953550000000  0.5697450000000  0.5738300000000 1.0
C      1  0.5685220000000  0.4877100000000  0.4249370000000 1.0
C      1  0.4946820000000  0.4288140000000  0.4267510000000 1.0
C      1  0.4282660000000  0.5088360000000  0.4232060000000 1.0
C      1  0.5100720000000  0.5671300000000  0.4362260000000 1.0
C      1  0.4002100000000  0.4591080000000  0.4255910000000 1.0
C      1  0.5411510000000  0.3966710000000  0.4172120000000 1.0
C      1  0.5998060000000  0.5310090000000  0.4182950000000 1.0
C      1  0.4679480000000  0.6003450000000  0.4282770000000 1.0
C      1  0.6007760000000  0.4673150000000  0.5762790000000 1.0
C      1  0.4684950000000  0.3974020000000  0.5732380000000 1.0
C      1  0.4007430000000  0.5370530000000  0.5756680000000 1.0
C      1  0.5413090000000  0.6028320000000  0.5830350000000 1.0
C      1  0.4296620000000  0.4950460000000  0.4775430000000 1.0
C      1  0.5115520000000  0.4234220000000  0.4909060000000 1.0
C      1  0.5687470000000  0.5142310000000  0.4840090000000 1.0
C      1  0.4770090000000  0.5692180000000  0.4799420000000 1.0
C      1  0.5577760000000  0.4915850000000  0.5250330000000 1.0
C      1  0.4736450000000  0.4334660000000  0.5185410000000 1.0
C      1  0.4214680000000  0.5142090000000  0.5201770000000 1.0
C      1  0.5122380000000  0.5772050000000  0.5113400000000 1.0
C      1  0.5025730000000  0.6114830000000  0.4637170000000 1.0
C      1  0.3871170000000  0.4973430000000  0.4561940000000 1.0
C      1  0.5092990000000  0.3855230000000  0.4544850000000 1.0
C      1  0.6093000000000  0.4977620000000  0.4551260000000 1.0
C      1  0.5090340000000  0.6138110000000  0.5462060000000 1.0
C      1  0.6094610000000  0.4988930000000  0.5373960000000 1.0
C      1  0.5020230000000  0.3875030000000  0.5366300000000 1.0
C      1  0.3868180000000  0.5006300000000  0.5427280000000 1.0
C      1  0.4625880000000  0.5764250000000  0.4172010000000 1.0
C      1  0.4247250000000  0.4545480000000  0.4157110000000 1.0
C      1  0.5426390000000  0.4226560000000  0.4100580000000 1.0
C      1  0.5745680000000  0.5372750000000  0.4113320000000 1.0
C      1  0.5442080000000  0.5768030000000  0.5894290000000 1.0
C      1  0.5763270000000  0.4617060000000  0.5860090000000 1.0
C      1  0.4633280000000  0.4219580000000  0.5830310000000 1.0
C      1  0.4254960000000  0.5425260000000  0.5846620000000 1.0
C      1  0.5531890000000  0.5935180000000  0.4858110000000 1.0
C      1  0.4130500000000  0.5449060000000  0.4734790000000 1.0
C      1  0.4655610000000  0.4031290000000  0.4827630000000 1.0
C      1  0.5771170000000  0.4657990000000  0.4891270000000 1.0
C      1  0.4656200000000  0.5958000000000  0.5181460000000 1.0
C      1  0.5930350000000  0.5492620000000  0.5110810000000 1.0
C      1  0.5526200000000  0.4050480000000  0.5142800000000 1.0
C      1  0.4131700000000  0.4599120000000  0.5151840000000 1.0
C      1  0.4999800000000  0.5316640000000  0.5277820000000 1.0
C      1  0.4620030000000  0.5144750000000  0.5469920000000 1.0
C      1  0.4770940000000  0.4826900000000  0.5182710000000 1.0
C      1  0.5126790000000  0.4921140000000  0.5453460000000 1.0
C      1  0.4855080000000  0.5212190000000  0.4805610000000 1.0
C      1  0.5245330000000  0.5088650000000  0.4588920000000 1.0
C      1  0.5061640000000  0.4710720000000  0.4764450000000 1.0
C      1  0.4719530000000  0.4892720000000  0.4518590000000 1.0
C      1  0.4063060000000  0.4822610000000  0.5557940000000 1.0
C      1  0.5186450000000  0.4088350000000  0.5476650000000 1.0
C      1  0.5905180000000  0.5179680000000  0.5483640000000 1.0
C      1  0.4910810000000  0.5932660000000  0.5571590000000 1.0
C      1  0.5875500000000  0.4811180000000  0.4457020000000 1.0
C      1  0.4909240000000  0.4055250000000  0.4436530000000 1.0
C      1  0.4040460000000  0.5152960000000  0.4392530000000 1.0
C      1  0.5187700000000  0.5895450000000  0.4529680000000 1.0
C      1  0.5359730000000  0.4090010000000  0.4933580000000 1.0
C      1  0.5864420000000  0.5357420000000  0.4888400000000 1.0
C      1  0.4859600000000  0.5849340000000  0.5016320000000 1.0
C      1  0.4211530000000  0.4835890000000  0.5034560000000 1.0
C      1  0.4846660000000  0.4159650000000  0.4992510000000 1.0
C      1  0.4247320000000  0.5223790000000  0.4842920000000 1.0
C      1  0.5369850000000  0.5906420000000  0.5071920000000 1.0
C      1  0.5701570000000  0.4906880000000  0.5000600000000 1.0
C      1  0.5090380000000  0.5203340000000  0.4140440000000 1.0
C      1  0.4790260000000  0.5122990000000  0.4120000000000 1.0
C      1  0.4872340000000  0.4766460000000  0.4108650000000 1.0
C      1  0.5194360000000  0.4895860000000  0.4125840000000 1.0
C      1  0.4890310000000  0.5206320000000  0.5875290000000 1.0
C      1  0.5226970000000  0.5113040000000  0.5867950000000 1.0
C      1  0.5113490000000  0.4777200000000  0.5867590000000 1.0
C      1  0.4792360000000  0.4879740000000  0.5870970000000 1.0
C      1  0.5510710000000  0.5537420000000  0.5749540000000 1.0
C      1  0.4499300000000  0.5548350000000  0.5781420000000 1.0
C      1  0.4501360000000  0.4455760000000  0.5754860000000 1.0
C      1  0.5537220000000  0.4478620000000  0.5768710000000 1.0
C      1  0.4467700000000  0.5532130000000  0.4180060000000 1.0
C      1  0.5524030000000  0.5497990000000  0.4231200000000 1.0
C      1  0.5460170000000  0.4465390000000  0.4245180000000 1.0
C      1  0.4492040000000  0.4427440000000  0.4224260000000 1.0
C      1  0.3848050000000  0.4718640000000  0.4435710000000 1.0
C      1  0.5312010000000  0.3812350000000  0.4370180000000 1.0
C      1  0.6148620000000  0.5188310000000  0.4370390000000 1.0
C      1  0.4797910000000  0.6156110000000  0.4471350000000 1.0
C      1  0.6144390000000  0.4777370000000  0.5555730000000 1.0
C      1  0.4797100000000  0.3827290000000  0.5535590000000 1.0
C      1  0.3843940000000  0.5245620000000  0.5582010000000 1.0
C      1  0.5308860000000  0.6184660000000  0.5636640000000 1.0
C      1  0.5071250000000  0.6250750000000  0.5185990000000 1.0
C      1  0.3776360000000  0.4998120000000  0.5135470000000 1.0
C      1  0.5050300000000  0.3752970000000  0.5098090000000 1.0
C      1  0.6188120000000  0.4981210000000  0.5099160000000 1.0
C      1  0.5056720000000  0.6241520000000  0.4905280000000 1.0
C      1  0.6192640000000  0.4968750000000  0.4824610000000 1.0
C      1  0.5070610000000  0.3744030000000  0.4819190000000 1.0
C      1  0.3783480000000  0.5001320000000  0.4851690000000 1.0
C      1  0.5274320000000  0.4582120000000  0.5169170000000 1.0
C      1  0.4548720000000  0.5434590000000  0.5109370000000 1.0
C      1  0.4558340000000  0.4578820000000  0.4827650000000 1.0
C      1  0.5317360000000  0.5392970000000  0.4937250000000 1.0
C      1  0.4972910000000  0.4977740000000  0.4656060000000 1.0
C      1  0.4879990000000  0.5050260000000  0.5355940000000 1.0
END
