TITL C-3623288-6813-1580 -1.22624246580229e-06 125000 -866.530753228061 0 0 140 (C1) n - 1
REM
REM in /home/nfs/bkarasulu/CARBON/AIRSS/Generating-Clusters/LCBOP/Higher-Symm/SD-CG/FIRE-CG
REM
REM
REM
REM
REM
REM ./C.cell (b20cbc046b6831c77cfcea5457e17084)
REM AIRSS Version 0.9.1 bugfix July 2018 build 013d7b7c2542+ Fri, 06 Jul 2018 19:26:36 +0100
REM compiler GCC version 9.2.1 20190827 (Red Hat 9.2.1-1)
REM options -cpp -mtune=generic -march=x86-64 -g -O0 -fpre-include=/usr/include/finclude/math-vector-fortran.h
REM seed 115782028 -2031128470 1740998753 1714917105 -187784670 -1748291975 1027516206 259702460 663923384 -2098677310 318756260 783301760 740722553 710259808 -569347363 435909357 -651137160 -1039159898 -1448098903 1741520736 812776092 117626814 -398696640 -1742911552 658416618 -1615872960 43313390 -299405930 -1183137860 1915678970 456067440 928089408 1348931929
REM
CELL 1.54180   50.00000   50.00000   50.00000   90.00000   90.00000   90.00000
LATT -1
SFAC C  
C      1  0.4768520000000  0.5315010000000  0.4321140000000 1.0
C      1  0.5737370000000  0.5348930000000  0.5132350000000 1.0
C      1  0.4520570000000  0.5248720000000  0.5556550000000 1.0
C      1  0.5229800000000  0.4700070000000  0.4336840000000 1.0
C      1  0.4240190000000  0.4753490000000  0.5129220000000 1.0
C      1  0.5449250000000  0.4749590000000  0.5496050000000 1.0
C      1  0.5220370000000  0.4739750000000  0.5645590000000 1.0
C      1  0.4257730000000  0.4691160000000  0.4854500000000 1.0
C      1  0.5477560000000  0.4752970000000  0.4453550000000 1.0
C      1  0.4765400000000  0.5305530000000  0.5673840000000 1.0
C      1  0.5739710000000  0.5358890000000  0.4850670000000 1.0
C      1  0.4530090000000  0.5253450000000  0.4449700000000 1.0
C      1  0.4995300000000  0.4123290000000  0.5511580000000 1.0
C      1  0.4502200000000  0.3915680000000  0.4674410000000 1.0
C      1  0.5438580000000  0.4087520000000  0.4694080000000 1.0
C      1  0.5042050000000  0.6081340000000  0.5583100000000 1.0
C      1  0.5468080000000  0.6017400000000  0.4767690000000 1.0
C      1  0.4552620000000  0.5884780000000  0.4729760000000 1.0
C      1  0.5027570000000  0.6097860000000  0.4459600000000 1.0
C      1  0.5468600000000  0.6001560000000  0.5258430000000 1.0
C      1  0.4548510000000  0.5884320000000  0.5314750000000 1.0
C      1  0.4944440000000  0.3914620000000  0.4426460000000 1.0
C      1  0.4479340000000  0.4121970000000  0.5235360000000 1.0
C      1  0.5433450000000  0.4069890000000  0.5277170000000 1.0
C      1  0.5259270000000  0.5277920000000  0.4848720000000 1.0
C      1  0.5011450000000  0.5262580000000  0.5265390000000 1.0
C      1  0.4785460000000  0.5177990000000  0.4852370000000 1.0
C      1  0.4713810000000  0.4688140000000  0.4861680000000 1.0
C      1  0.4941530000000  0.4690160000000  0.5287290000000 1.0
C      1  0.5086220000000  0.4414290000000  0.4924220000000 1.0
C      1  0.4710810000000  0.4715300000000  0.5137140000000 1.0
C      1  0.4964080000000  0.4616760000000  0.4760880000000 1.0
C      1  0.5156860000000  0.4568130000000  0.5155390000000 1.0
C      1  0.5257610000000  0.5305140000000  0.5130340000000 1.0
C      1  0.5044290000000  0.5113080000000  0.4765860000000 1.0
C      1  0.4769640000000  0.5229630000000  0.5128290000000 1.0
C      1  0.4492220000000  0.4810280000000  0.4701920000000 1.0
C      1  0.5559350000000  0.4930360000000  0.4665030000000 1.0
C      1  0.4969060000000  0.4857330000000  0.5536000000000 1.0
C      1  0.5517730000000  0.5219320000000  0.4699400000000 1.0
C      1  0.4530750000000  0.5106560000000  0.4712140000000 1.0
C      1  0.5005620000000  0.5168530000000  0.5553900000000 1.0
C      1  0.5508750000000  0.5201450000000  0.5271840000000 1.0
C      1  0.4528960000000  0.5138820000000  0.5277610000000 1.0
C      1  0.5012110000000  0.5159780000000  0.4310420000000 1.0
C      1  0.4491830000000  0.4849600000000  0.5271810000000 1.0
C      1  0.5492600000000  0.4905070000000  0.5236770000000 1.0
C      1  0.4986180000000  0.4859470000000  0.4318710000000 1.0
C      1  0.3987690000000  0.5105980000000  0.5420020000000 1.0
C      1  0.5173660000000  0.4982500000000  0.3896490000000 1.0
C      1  0.5914450000000  0.4904740000000  0.5682340000000 1.0
C      1  0.6029160000000  0.4786540000000  0.5426260000000 1.0
C      1  0.4883210000000  0.4984300000000  0.3890150000000 1.0
C      1  0.4111860000000  0.4914050000000  0.5657930000000 1.0
C      1  0.6051680000000  0.4797910000000  0.4560090000000 1.0
C      1  0.4907210000000  0.4833490000000  0.6086770000000 1.0
C      1  0.4138670000000  0.5023280000000  0.4303150000000 1.0
C      1  0.4005050000000  0.5137580000000  0.4561670000000 1.0
C      1  0.5191740000000  0.4936750000000  0.6100750000000 1.0
C      1  0.5922920000000  0.4921160000000  0.4298850000000 1.0
C      1  0.5212450000000  0.3971600000000  0.5121510000000 1.0
C      1  0.4711650000000  0.3992980000000  0.5112000000000 1.0
C      1  0.4977350000000  0.3871460000000  0.4706230000000 1.0
C      1  0.4771490000000  0.6007790000000  0.5172460000000 1.0
C      1  0.5242310000000  0.6140250000000  0.5160140000000 1.0
C      1  0.4992330000000  0.6128850000000  0.4738570000000 1.0
C      1  0.4771300000000  0.6010190000000  0.4875000000000 1.0
C      1  0.5239450000000  0.6148770000000  0.4879300000000 1.0
C      1  0.4997870000000  0.6119730000000  0.5306460000000 1.0
C      1  0.5218000000000  0.3953570000000  0.4831550000000 1.0
C      1  0.4723490000000  0.3883350000000  0.4850180000000 1.0
C      1  0.4964440000000  0.4005160000000  0.5254320000000 1.0
C      1  0.4341860000000  0.5482870000000  0.5546490000000 1.0
C      1  0.4800970000000  0.5607490000000  0.4351230000000 1.0
C      1  0.5756490000000  0.5608700000000  0.5243260000000 1.0
C      1  0.5593440000000  0.4502570000000  0.5493140000000 1.0
C      1  0.5188070000000  0.4405610000000  0.4341040000000 1.0
C      1  0.4162730000000  0.4519540000000  0.5296000000000 1.0
C      1  0.5632620000000  0.4495380000000  0.4480990000000 1.0
C      1  0.5154060000000  0.4499640000000  0.5779580000000 1.0
C      1  0.4271250000000  0.4395070000000  0.4822760000000 1.0
C      1  0.4358520000000  0.5495530000000  0.4478750000000 1.0
C      1  0.4800360000000  0.5598350000000  0.5685790000000 1.0
C      1  0.5755940000000  0.5623690000000  0.4754750000000 1.0
C      1  0.5088620000000  0.5624080000000  0.5716720000000 1.0
C      1  0.4151590000000  0.5385420000000  0.4645560000000 1.0
C      1  0.5608920000000  0.5648900000000  0.4509790000000 1.0
C      1  0.4898310000000  0.4588000000000  0.5906750000000 1.0
C      1  0.5853700000000  0.4586810000000  0.4645060000000 1.0
C      1  0.4397560000000  0.4368020000000  0.4555860000000 1.0
C      1  0.4905110000000  0.4375110000000  0.4294050000000 1.0
C      1  0.5826930000000  0.4584500000000  0.5333570000000 1.0
C      1  0.4209000000000  0.4640290000000  0.5565820000000 1.0
C      1  0.5082030000000  0.5644030000000  0.4311980000000 1.0
C      1  0.4136110000000  0.5370120000000  0.5371030000000 1.0
C      1  0.5614740000000  0.5622910000000  0.5488440000000 1.0
C      1  0.4518840000000  0.4124520000000  0.4480310000000 1.0
C      1  0.5675080000000  0.4084910000000  0.4857580000000 1.0
C      1  0.4752170000000  0.4143350000000  0.5649780000000 1.0
C      1  0.5453660000000  0.5885890000000  0.4510760000000 1.0
C      1  0.4312350000000  0.5891610000000  0.4884360000000 1.0
C      1  0.5216640000000  0.5868840000000  0.5655650000000 1.0
C      1  0.5460780000000  0.5859480000000  0.5503920000000 1.0
C      1  0.4310610000000  0.5893390000000  0.5156180000000 1.0
C      1  0.5203000000000  0.5891460000000  0.4373590000000 1.0
C      1  0.4511760000000  0.4133390000000  0.5521000000000 1.0
C      1  0.5672960000000  0.4083000000000  0.5130370000000 1.0
C      1  0.4774540000000  0.4129450000000  0.4344080000000 1.0
C      1  0.5715410000000  0.4740420000000  0.5115640000000 1.0
C      1  0.4496830000000  0.4703980000000  0.5546680000000 1.0
C      1  0.4770050000000  0.4638870000000  0.4317820000000 1.0
C      1  0.4301570000000  0.5292070000000  0.5138120000000 1.0
C      1  0.5482820000000  0.5365000000000  0.5539230000000 1.0
C      1  0.5220130000000  0.5381510000000  0.4319950000000 1.0
C      1  0.4311540000000  0.5274430000000  0.4866000000000 1.0
C      1  0.5476410000000  0.5393410000000  0.4446520000000 1.0
C      1  0.5226180000000  0.5363680000000  0.5666490000000 1.0
C      1  0.5711870000000  0.4749070000000  0.4842700000000 1.0
C      1  0.4515870000000  0.4625410000000  0.4456880000000 1.0
C      1  0.4739580000000  0.4707990000000  0.5687520000000 1.0
C      1  0.4352810000000  0.4994320000000  0.4110260000000 1.0
C      1  0.6171690000000  0.4879480000000  0.4850600000000 1.0
C      1  0.4602370000000  0.4948580000000  0.6053490000000 1.0
C      1  0.5704870000000  0.4963540000000  0.4113430000000 1.0
C      1  0.3878060000000  0.5044800000000  0.4836290000000 1.0
C      1  0.5460810000000  0.4950720000000  0.6012250000000 1.0
C      1  0.5705160000000  0.4939400000000  0.5870300000000 1.0
C      1  0.3869940000000  0.5041230000000  0.5124300000000 1.0
C      1  0.5449710000000  0.4979310000000  0.3980520000000 1.0
C      1  0.4345130000000  0.4974050000000  0.5918360000000 1.0
C      1  0.6163190000000  0.4872430000000  0.5143360000000 1.0
C      1  0.4605350000000  0.4986960000000  0.3971110000000 1.0
C      1  0.4274630000000  0.4294620000000  0.5115570000000 1.0
C      1  0.5641070000000  0.5848640000000  0.4995220000000 1.0
C      1  0.5325920000000  0.4265700000000  0.5539160000000 1.0
C      1  0.4565050000000  0.5711760000000  0.4498630000000 1.0
C      1  0.5422990000000  0.4284210000000  0.4480960000000 1.0
C      1  0.4552170000000  0.5704850000000  0.5543950000000 1.0
C      1  0.5283660000000  0.4808770000000  0.5047990000000 1.0
C      1  0.5131740000000  0.4849350000000  0.4805170000000 1.0
END
