TITL C-3623284-6838-1726 -5.3045741642253e-07 125000 -361.99895113015 0 0 59 (C2v) n - 1
REM
REM in /home/nfs/bkarasulu/CARBON/AIRSS/Generating-Clusters/LCBOP/Higher-Symm/SD-CG/FIRE-CG
REM
REM
REM
REM
REM
REM ./C.cell (b20cbc046b6831c77cfcea5457e17084)
REM AIRSS Version 0.9.1 bugfix July 2018 build 013d7b7c2542+ Fri, 06 Jul 2018 19:26:36 +0100
REM compiler GCC version 9.2.1 20190827 (Red Hat 9.2.1-1)
REM options -cpp -mtune=generic -march=x86-64 -g -O0 -fpre-include=/usr/include/finclude/math-vector-fortran.h
REM seed -892792986 -623843569 420163225 -1795764130 110465300 -1658656318 1512456531 -1337108815 -1803464607 1975673025 -860979917 1497321621 -294631360 1682983823 -1665536728 -1351025853 1591851119 -1213576204 -1710212386 2035954241 2003421577 695308261 12357700 -848702220 -1410989121 -425452960 1729589763 2086977845 436861426 -1099761301 1124978726 87302876 1167478219
REM
CELL 1.54180   50.00000   50.00000   50.00000   90.00000   90.00000   90.00000
LATT -1
SFAC C  
C      1  0.4869320000000  0.4708150000000  0.4287030000000 1.0
C      1  0.4869300000000  0.5290860000000  0.5707710000000 1.0
C      1  0.4869290000000  0.4708130000000  0.5707700000000 1.0
C      1  0.4869320000000  0.5290870000000  0.4287040000000 1.0
C      1  0.5654840000000  0.5364410000000  0.4851180000000 1.0
C      1  0.5654830000000  0.4634580000000  0.5143590000000 1.0
C      1  0.5654830000000  0.5364400000000  0.5143600000000 1.0
C      1  0.5654830000000  0.4634590000000  0.4851170000000 1.0
C      1  0.5511000000000  0.4486310000000  0.4654950000000 1.0
C      1  0.5510990000000  0.5512680000000  0.5339820000000 1.0
C      1  0.5510990000000  0.4486300000000  0.5339810000000 1.0
C      1  0.5511010000000  0.5512690000000  0.4654960000000 1.0
C      1  0.4655610000000  0.5148920000000  0.4422900000000 1.0
C      1  0.4655590000000  0.4850090000000  0.5571840000000 1.0
C      1  0.4655590000000  0.5148910000000  0.5571840000000 1.0
C      1  0.4655610000000  0.4850100000000  0.4422890000000 1.0
C      1  0.4481220000000  0.5232620000000  0.4651950000000 1.0
C      1  0.4481210000000  0.4766400000000  0.5342780000000 1.0
C      1  0.4481210000000  0.5232610000000  0.5342790000000 1.0
C      1  0.4481220000000  0.4766410000000  0.4651940000000 1.0
C      1  0.4828680000000  0.4581350000000  0.5946190000000 1.0
C      1  0.4828720000000  0.5417660000000  0.4048560000000 1.0
C      1  0.4828710000000  0.4581380000000  0.4048550000000 1.0
C      1  0.4828690000000  0.5417630000000  0.5946200000000 1.0
C      1  0.4836650000000  0.5534500000000  0.5231940000000 1.0
C      1  0.4836650000000  0.4464510000000  0.4762800000000 1.0
C      1  0.4836660000000  0.5534510000000  0.4762820000000 1.0
C      1  0.4836640000000  0.4464500000000  0.5231930000000 1.0
C      1  0.5343290000000  0.4526660000000  0.4442360000000 1.0
C      1  0.5343280000000  0.5472340000000  0.5552400000000 1.0
C      1  0.5343270000000  0.4526640000000  0.5552390000000 1.0
C      1  0.5343300000000  0.5472350000000  0.4442370000000 1.0
C      1  0.5781880000000  0.5133150000000  0.5253090000000 1.0
C      1  0.5781880000000  0.4865840000000  0.4741680000000 1.0
C      1  0.5781880000000  0.5133150000000  0.4741680000000 1.0
C      1  0.5781870000000  0.4865840000000  0.5253090000000 1.0
C      1  0.5126170000000  0.5288390000000  0.4418690000000 1.0
C      1  0.5126150000000  0.4710610000000  0.5576060000000 1.0
C      1  0.5126150000000  0.5288370000000  0.5576070000000 1.0
C      1  0.5126170000000  0.4710630000000  0.4418680000000 1.0
C      1  0.5022550000000  0.5322580000000  0.4857460000000 1.0
C      1  0.5022540000000  0.4676420000000  0.5137290000000 1.0
C      1  0.5022540000000  0.5322580000000  0.5137290000000 1.0
C      1  0.5022540000000  0.4676430000000  0.4857450000000 1.0
C      1  0.4573380000000  0.4575780000000  0.4844450000000 1.0
C      1  0.4573380000000  0.5423230000000  0.5150290000000 1.0
C      1  0.4573380000000  0.4575780000000  0.5150270000000 1.0
C      1  0.4573390000000  0.5423240000000  0.4844460000000 1.0
C      1  0.4893610000000  0.5797520000000  0.5134840000000 1.0
C      1  0.4893600000000  0.4201480000000  0.4859900000000 1.0
C      1  0.4893610000000  0.5797530000000  0.4859920000000 1.0
C      1  0.4893600000000  0.4201480000000  0.5134820000000 1.0
C      1  0.5110250000000  0.5138250000000  0.4665570000000 1.0
C      1  0.5110240000000  0.4860750000000  0.5329180000000 1.0
C      1  0.5110240000000  0.5138240000000  0.5329180000000 1.0
C      1  0.5110250000000  0.4860760000000  0.4665570000000 1.0
C      1  0.4339780000000  0.4999500000000  0.5246090000000 1.0
C      1  0.4339780000000  0.4999510000000  0.4748640000000 1.0
C      1  0.4212340000000  0.4999510000000  0.4997360000000 1.0
END
