TITL C-3623289-7120-1775 -468829.565139392 125000 -1143.27627524143 0 0 188 (C1) n - 1
REM
REM in /home/nfs/bkarasulu/CARBON/AIRSS/Generating-Clusters/LCBOP/Higher-Symm/SD-CG/FIRE-CG
REM
REM
REM
REM
REM
REM ./C.cell (b20cbc046b6831c77cfcea5457e17084)
REM AIRSS Version 0.9.1 bugfix July 2018 build 013d7b7c2542+ Fri, 06 Jul 2018 19:26:36 +0100
REM compiler GCC version 9.2.1 20190827 (Red Hat 9.2.1-1)
REM options -cpp -mtune=generic -march=x86-64 -g -O0 -fpre-include=/usr/include/finclude/math-vector-fortran.h
REM seed 265707127 -1852203131 1473193671 959144605 568505178 1453547540 -41343740 -1696746331 144712889 -288922732 1179335587 1857083973 1893267884 -908992868 865402846 -830041580 -2111028142 -504775227 -1871306168 908215515 975430432 -1694994694 1340622382 -1718439643 720619624 225674797 1985092965 -347892812 -1315018907 -416353588 1963219308 463186590 -1369232108
REM
CELL 1.54180   50.00000   50.00000   50.00000   90.00000   90.00000   90.00000
LATT -1
SFAC C  
C      1  0.4729580000000  0.5285800000000  0.3914900000000 1.0
C      1  0.4732660000000  0.6087110000000  0.5282400000000 1.0
C      1  0.4727380000000  0.4717170000000  0.6084660000000 1.0
C      1  0.4735800000000  0.3915260000000  0.4713140000000 1.0
C      1  0.4765430000000  0.5328310000000  0.6087840000000 1.0
C      1  0.4762510000000  0.6087820000000  0.4673100000000 1.0
C      1  0.4764460000000  0.4676630000000  0.3912830000000 1.0
C      1  0.4760300000000  0.3912860000000  0.5323530000000 1.0
C      1  0.4071840000000  0.5125090000000  0.4312770000000 1.0
C      1  0.4063050000000  0.5633810000000  0.5151010000000 1.0
C      1  0.4051290000000  0.4830060000000  0.5621330000000 1.0
C      1  0.4050490000000  0.4326100000000  0.4817830000000 1.0
C      1  0.4060070000000  0.5190290000000  0.5666230000000 1.0
C      1  0.4074320000000  0.5684990000000  0.4863920000000 1.0
C      1  0.4065570000000  0.4838090000000  0.4367750000000 1.0
C      1  0.4054730000000  0.4378900000000  0.5177060000000 1.0
C      1  0.4530210000000  0.4747300000000  0.4419530000000 1.0
C      1  0.4524850000000  0.5579350000000  0.4748810000000 1.0
C      1  0.4526230000000  0.5256160000000  0.5584930000000 1.0
C      1  0.4525200000000  0.4420110000000  0.5251010000000 1.0
C      1  0.4518730000000  0.4755430000000  0.5579450000000 1.0
C      1  0.4524440000000  0.5581010000000  0.5246190000000 1.0
C      1  0.4518720000000  0.5244530000000  0.4422370000000 1.0
C      1  0.4511640000000  0.4417270000000  0.4752640000000 1.0
C      1  0.5264540000000  0.6041160000000  0.5557570000000 1.0
C      1  0.5260620000000  0.4442200000000  0.6040560000000 1.0
C      1  0.5265510000000  0.3957990000000  0.4441070000000 1.0
C      1  0.5263230000000  0.5558260000000  0.3959310000000 1.0
C      1  0.5354010000000  0.6004180000000  0.4434610000000 1.0
C      1  0.5353520000000  0.4435250000000  0.3994910000000 1.0
C      1  0.5351450000000  0.3995760000000  0.5565030000000 1.0
C      1  0.5353920000000  0.5565330000000  0.6004390000000 1.0
C      1  0.3941770000000  0.4841210000000  0.4643280000000 1.0
C      1  0.3912410000000  0.5315200000000  0.4871340000000 1.0
C      1  0.3936180000000  0.5154120000000  0.5341470000000 1.0
C      1  0.3943620000000  0.4652880000000  0.5151130000000 1.0
C      1  0.3942200000000  0.4853300000000  0.5347170000000 1.0
C      1  0.3942190000000  0.5357870000000  0.5150040000000 1.0
C      1  0.3910330000000  0.5120750000000  0.4682300000000 1.0
C      1  0.3930730000000  0.4652770000000  0.4850100000000 1.0
C      1  0.4614900000000  0.6261790000000  0.4838360000000 1.0
C      1  0.4613530000000  0.5163020000000  0.6258530000000 1.0
C      1  0.4612970000000  0.3740660000000  0.5156110000000 1.0
C      1  0.4614370000000  0.4841640000000  0.3740350000000 1.0
C      1  0.4592630000000  0.6256420000000  0.5108020000000 1.0
C      1  0.4589770000000  0.5111140000000  0.3745680000000 1.0
C      1  0.4593580000000  0.3746090000000  0.4886170000000 1.0
C      1  0.4587650000000  0.4893580000000  0.6252250000000 1.0
C      1  0.4362130000000  0.4185180000000  0.5607470000000 1.0
C      1  0.4370390000000  0.4389770000000  0.4182270000000 1.0
C      1  0.4362110000000  0.5814390000000  0.4394310000000 1.0
C      1  0.4373660000000  0.5617270000000  0.5819520000000 1.0
C      1  0.4371390000000  0.4172190000000  0.4396420000000 1.0
C      1  0.4358980000000  0.4404440000000  0.5821220000000 1.0
C      1  0.4366220000000  0.5826230000000  0.5596270000000 1.0
C      1  0.4358850000000  0.5592620000000  0.4178960000000 1.0
C      1  0.5291780000000  0.5368950000000  0.5584080000000 1.0
C      1  0.5289660000000  0.4416050000000  0.5368470000000 1.0
C      1  0.5292500000000  0.4631050000000  0.4415340000000 1.0
C      1  0.5290780000000  0.5583890000000  0.4631930000000 1.0
C      1  0.5285910000000  0.5349110000000  0.4423660000000 1.0
C      1  0.5289210000000  0.4421400000000  0.4648510000000 1.0
C      1  0.5285390000000  0.4650640000000  0.5576770000000 1.0
C      1  0.5288000000000  0.5577300000000  0.5349520000000 1.0
C      1  0.5004220000000  0.4036400000000  0.4855930000000 1.0
C      1  0.5001220000000  0.5143920000000  0.4036120000000 1.0
C      1  0.5003250000000  0.5964810000000  0.5141830000000 1.0
C      1  0.4999800000000  0.4857780000000  0.5963180000000 1.0
C      1  0.5018980000000  0.4047000000000  0.5176010000000 1.0
C      1  0.5019510000000  0.5177650000000  0.5953800000000 1.0
C      1  0.5020020000000  0.5953770000000  0.4822360000000 1.0
C      1  0.5019650000000  0.4824250000000  0.4046220000000 1.0
C      1  0.4648380000000  0.5915590000000  0.4464730000000 1.0
C      1  0.4657300000000  0.5541880000000  0.5917400000000 1.0
C      1  0.4646880000000  0.4083620000000  0.5533690000000 1.0
C      1  0.4653480000000  0.4465450000000  0.4083340000000 1.0
C      1  0.4645980000000  0.5927640000000  0.5511900000000 1.0
C      1  0.4641250000000  0.5513510000000  0.4076530000000 1.0
C      1  0.4651340000000  0.4076550000000  0.4483680000000 1.0
C      1  0.4639980000000  0.4487500000000  0.5924570000000 1.0
C      1  0.4764930000000  0.4554480000000  0.4354000000000 1.0
C      1  0.4760920000000  0.5646090000000  0.4554990000000 1.0
C      1  0.4765450000000  0.5448780000000  0.5646790000000 1.0
C      1  0.4760090000000  0.4353480000000  0.5445660000000 1.0
C      1  0.4757390000000  0.4568380000000  0.5651960000000 1.0
C      1  0.4762720000000  0.5654160000000  0.5431690000000 1.0
C      1  0.4758160000000  0.5431330000000  0.4349000000000 1.0
C      1  0.4759440000000  0.4352010000000  0.4572830000000 1.0
C      1  0.5402300000000  0.4193030000000  0.4508060000000 1.0
C      1  0.5398690000000  0.5489270000000  0.4194530000000 1.0
C      1  0.5401280000000  0.5806280000000  0.5489640000000 1.0
C      1  0.5397970000000  0.4510360000000  0.5806090000000 1.0
C      1  0.5503550000000  0.4235400000000  0.5512030000000 1.0
C      1  0.5505850000000  0.5511960000000  0.5764750000000 1.0
C      1  0.5505210000000  0.5764180000000  0.4488170000000 1.0
C      1  0.5506730000000  0.4488370000000  0.4233960000000 1.0
C      1  0.5494110000000  0.4818800000000  0.5419510000000 1.0
C      1  0.5496070000000  0.4579350000000  0.4818170000000 1.0
C      1  0.5494580000000  0.5180650000000  0.4580820000000 1.0
C      1  0.5495520000000  0.5419440000000  0.5181240000000 1.0
C      1  0.5499950000000  0.4871130000000  0.4582420000000 1.0
C      1  0.5498800000000  0.4582140000000  0.5128000000000 1.0
C      1  0.5499320000000  0.5128190000000  0.5417740000000 1.0
C      1  0.5499320000000  0.5417260000000  0.4871990000000 1.0
C      1  0.5223760000000  0.6143790000000  0.5285240000000 1.0
C      1  0.5219860000000  0.4714460000000  0.6143460000000 1.0
C      1  0.5224630000000  0.3856500000000  0.4713840000000 1.0
C      1  0.5221690000000  0.5286310000000  0.3855940000000 1.0
C      1  0.5285980000000  0.6076750000000  0.4709090000000 1.0
C      1  0.5285270000000  0.4710190000000  0.3923200000000 1.0
C      1  0.5284380000000  0.3923340000000  0.5290190000000 1.0
C      1  0.5285510000000  0.5290610000000  0.6076650000000 1.0
C      1  0.4278400000000  0.4661190000000  0.4294670000000 1.0
C      1  0.4276070000000  0.5712710000000  0.4669760000000 1.0
C      1  0.4281730000000  0.5346270000000  0.5718520000000 1.0
C      1  0.4272950000000  0.4295840000000  0.5335810000000 1.0
C      1  0.4267680000000  0.4670840000000  0.5704030000000 1.0
C      1  0.4273210000000  0.5706670000000  0.5329940000000 1.0
C      1  0.4270590000000  0.5321840000000  0.4287920000000 1.0
C      1  0.4271870000000  0.4277660000000  0.4661120000000 1.0
C      1  0.5725310000000  0.5073480000000  0.5858940000000 1.0
C      1  0.5725860000000  0.4141370000000  0.5074570000000 1.0
C      1  0.5725720000000  0.4926190000000  0.4141350000000 1.0
C      1  0.5726340000000  0.5857980000000  0.4925750000000 1.0
C      1  0.5748880000000  0.5205770000000  0.4150560000000 1.0
C      1  0.5750480000000  0.4149980000000  0.4795100000000 1.0
C      1  0.5747970000000  0.4793840000000  0.5849800000000 1.0
C      1  0.5750110000000  0.5849250000000  0.5205250000000 1.0
C      1  0.4956010000000  0.4654400000000  0.5144020000000 1.0
C      1  0.4958800000000  0.4856900000000  0.4654520000000 1.0
C      1  0.4957470000000  0.5346310000000  0.4857080000000 1.0
C      1  0.4957960000000  0.5144320000000  0.5347000000000 1.0
C      1  0.4964330000000  0.4653840000000  0.4866800000000 1.0
C      1  0.4951990000000  0.4866540000000  0.5347870000000 1.0
C      1  0.4954320000000  0.5348150000000  0.5134600000000 1.0
C      1  0.4952000000000  0.5134280000000  0.4653230000000 1.0
C      1  0.5771980000000  0.4808400000000  0.4414180000000 1.0
C      1  0.5771170000000  0.5585190000000  0.4808410000000 1.0
C      1  0.5771230000000  0.5191100000000  0.5586110000000 1.0
C      1  0.5770440000000  0.4414010000000  0.5192090000000 1.0
C      1  0.5770950000000  0.4696910000000  0.5560400000000 1.0
C      1  0.5772840000000  0.5559470000000  0.5302760000000 1.0
C      1  0.5771770000000  0.5302390000000  0.4440030000000 1.0
C      1  0.5773570000000  0.4439620000000  0.4697160000000 1.0
C      1  0.5513830000000  0.5111480000000  0.6063520000000 1.0
C      1  0.5514340000000  0.3936750000000  0.5112230000000 1.0
C      1  0.5514310000000  0.4888680000000  0.3936600000000 1.0
C      1  0.5515190000000  0.6062890000000  0.4887760000000 1.0
C      1  0.5474320000000  0.5152540000000  0.3857430000000 1.0
C      1  0.5476080000000  0.3856690000000  0.4848330000000 1.0
C      1  0.5472800000000  0.4847640000000  0.6142350000000 1.0
C      1  0.5476080000000  0.6142750000000  0.5151570000000 1.0
C      1  0.5977180000000  0.5365390000000  0.4889720000000 1.0
C      1  0.5977120000000  0.5109680000000  0.5366290000000 1.0
C      1  0.5976790000000  0.4633620000000  0.5110930000000 1.0
C      1  0.5977680000000  0.4889400000000  0.4634310000000 1.0
C      1  0.5978040000000  0.5344180000000  0.5180430000000 1.0
C      1  0.5977690000000  0.5180060000000  0.4655010000000 1.0
C      1  0.5978390000000  0.4654810000000  0.4820120000000 1.0
C      1  0.5977110000000  0.4819010000000  0.5345650000000 1.0
C      1  0.4529560000000  0.5138290000000  0.5330740000000 1.0
C      1  0.4528430000000  0.4674460000000  0.5134690000000 1.0
C      1  0.4530350000000  0.4862520000000  0.4674140000000 1.0
C      1  0.4529300000000  0.5325770000000  0.4865770000000 1.0
C      1  0.4525340000000  0.5131410000000  0.4675650000000 1.0
C      1  0.4502200000000  0.4671800000000  0.4866310000000 1.0
C      1  0.4525440000000  0.4869180000000  0.5326220000000 1.0
C      1  0.4527650000000  0.5326780000000  0.5134730000000 1.0
C      1  0.5011010000000  0.4361350000000  0.5270660000000 1.0
C      1  0.5014620000000  0.4730240000000  0.4360960000000 1.0
C      1  0.5012200000000  0.5638960000000  0.4729680000000 1.0
C      1  0.5013960000000  0.5271070000000  0.5639190000000 1.0
C      1  0.5011720000000  0.4365220000000  0.4747200000000 1.0
C      1  0.5006560000000  0.4746850000000  0.5636200000000 1.0
C      1  0.5009990000000  0.5637050000000  0.5252960000000 1.0
C      1  0.5006830000000  0.5253690000000  0.4364710000000 1.0
C      1  0.5190990000000  0.4166860000000  0.6030560000000 1.0
C      1  0.5195670000000  0.3968040000000  0.4165560000000 1.0
C      1  0.5195760000000  0.5834120000000  0.3968260000000 1.0
C      1  0.5195390000000  0.6031580000000  0.5833120000000 1.0
C      1  0.5238400000000  0.4174690000000  0.3988670000000 1.0
C      1  0.5234960000000  0.3989420000000  0.5824820000000 1.0
C      1  0.5238780000000  0.5825800000000  0.6010730000000 1.0
C      1  0.5239460000000  0.6011470000000  0.4174070000000 1.0
C      1  0.5747270000000  0.4507840000000  0.4394230000000 1.0
C      1  0.5745890000000  0.5604830000000  0.4508010000000 1.0
C      1  0.5744580000000  0.4394440000000  0.5492480000000 1.0
C      1  0.5746670000000  0.5491660000000  0.5605500000000 1.0
END
