TITL C-3623282-6910-1543 -1.03937209480305e-06 125000 -1018.84060572447 0 0 163 (C1) n - 1
REM
REM in /home/nfs/bkarasulu/CARBON/AIRSS/Generating-Clusters/LCBOP/Higher-Symm/SD-CG/FIRE-CG
REM
REM
REM
REM
REM
REM ./C.cell (b20cbc046b6831c77cfcea5457e17084)
REM AIRSS Version 0.9.1 bugfix July 2018 build 013d7b7c2542+ Fri, 06 Jul 2018 19:26:36 +0100
REM compiler GCC version 9.2.1 20190827 (Red Hat 9.2.1-1)
REM options -cpp -mtune=generic -march=x86-64 -g -O0 -fpre-include=/usr/include/finclude/math-vector-fortran.h
REM seed -267061643 1203920423 -276939715 313296147 -1419820540 590917668 246546408 37514570 -1659052719 1133584361 823782367 236718324 -1549595351 2089634160 -1687877305 -161758948 -138070770 561432531 -1430648699 -1057594085 -1203541976 753158974 1933024695 1315899240 1914043181 713679344 88151295 1581632668 53470363 882391875 -907334463 -305487555 951750942
REM
CELL 1.54180   50.00000   50.00000   50.00000   90.00000   90.00000   90.00000
LATT -1
SFAC C  
C      1  0.4829290000000  0.4466660000000  0.5322450000000 1.0
C      1  0.5140290000000  0.5534540000000  0.5378040000000 1.0
C      1  0.4809870000000  0.4462530000000  0.4689090000000 1.0
C      1  0.5206180000000  0.5520860000000  0.4729070000000 1.0
C      1  0.5912150000000  0.4146080000000  0.4656580000000 1.0
C      1  0.4116200000000  0.5888190000000  0.4599160000000 1.0
C      1  0.5915370000000  0.4166000000000  0.5309570000000 1.0
C      1  0.4087880000000  0.5853710000000  0.5369900000000 1.0
C      1  0.4744950000000  0.4186550000000  0.4741960000000 1.0
C      1  0.5268430000000  0.5795230000000  0.4783330000000 1.0
C      1  0.4761330000000  0.4192410000000  0.5269830000000 1.0
C      1  0.5226570000000  0.5795540000000  0.5309470000000 1.0
C      1  0.4463680000000  0.4843270000000  0.5824980000000 1.0
C      1  0.5528010000000  0.5140830000000  0.5822480000000 1.0
C      1  0.4496670000000  0.4828700000000  0.4231370000000 1.0
C      1  0.5524760000000  0.5156010000000  0.4211940000000 1.0
C      1  0.3935990000000  0.5365160000000  0.5356280000000 1.0
C      1  0.6075190000000  0.4646140000000  0.5353400000000 1.0
C      1  0.3901430000000  0.5419740000000  0.4609000000000 1.0
C      1  0.6115700000000  0.4601940000000  0.4584780000000 1.0
C      1  0.4078170000000  0.5621210000000  0.4500130000000 1.0
C      1  0.5947850000000  0.4382520000000  0.4495360000000 1.0
C      1  0.4077960000000  0.5584850000000  0.5472350000000 1.0
C      1  0.5935740000000  0.4415020000000  0.5452560000000 1.0
C      1  0.4043220000000  0.4686030000000  0.4661070000000 1.0
C      1  0.5989820000000  0.5335710000000  0.4603810000000 1.0
C      1  0.4032350000000  0.4650380000000  0.5333460000000 1.0
C      1  0.5930590000000  0.5349170000000  0.5285090000000 1.0
C      1  0.5697930000000  0.5377510000000  0.4186770000000 1.0
C      1  0.4329760000000  0.4600310000000  0.4241090000000 1.0
C      1  0.5662760000000  0.5389140000000  0.5762330000000 1.0
C      1  0.4313160000000  0.4603220000000  0.5783230000000 1.0
C      1  0.5078850000000  0.5123020000000  0.4044180000000 1.0
C      1  0.4935790000000  0.4859960000000  0.4040240000000 1.0
C      1  0.5065790000000  0.5136430000000  0.6001100000000 1.0
C      1  0.4917540000000  0.4872090000000  0.5993250000000 1.0
C      1  0.3902000000000  0.6059890000000  0.4600310000000 1.0
C      1  0.6111020000000  0.4090520000000  0.4849720000000 1.0
C      1  0.3853610000000  0.5997530000000  0.5363830000000 1.0
C      1  0.6112820000000  0.4104080000000  0.5117780000000 1.0
C      1  0.4863560000000  0.5345120000000  0.5982910000000 1.0
C      1  0.5108690000000  0.4659840000000  0.5953510000000 1.0
C      1  0.4888400000000  0.5330440000000  0.4097820000000 1.0
C      1  0.5130950000000  0.4652850000000  0.4077200000000 1.0
C      1  0.5727260000000  0.4488040000000  0.5629310000000 1.0
C      1  0.4276380000000  0.5489830000000  0.5650380000000 1.0
C      1  0.5731580000000  0.4489490000000  0.4347250000000 1.0
C      1  0.4287820000000  0.5497880000000  0.4356870000000 1.0
C      1  0.4495990000000  0.5002200000000  0.4459460000000 1.0
C      1  0.5527320000000  0.4991020000000  0.4445700000000 1.0
C      1  0.4487690000000  0.5005850000000  0.5596220000000 1.0
C      1  0.5513610000000  0.4962470000000  0.5602500000000 1.0
C      1  0.3959090000000  0.4871980000000  0.5150050000000 1.0
C      1  0.6033180000000  0.5132260000000  0.5116150000000 1.0
C      1  0.3968400000000  0.4912090000000  0.4838210000000 1.0
C      1  0.6033030000000  0.5104650000000  0.4803040000000 1.0
C      1  0.4190240000000  0.4473040000000  0.4782040000000 1.0
C      1  0.5830190000000  0.5565980000000  0.4693420000000 1.0
C      1  0.4199630000000  0.4451780000000  0.5220900000000 1.0
C      1  0.5769850000000  0.5534960000000  0.5147550000000 1.0
C      1  0.5102720000000  0.3998430000000  0.5599750000000 1.0
C      1  0.4878310000000  0.6007130000000  0.5621140000000 1.0
C      1  0.5103660000000  0.4000580000000  0.4412870000000 1.0
C      1  0.4988240000000  0.5989580000000  0.4430560000000 1.0
C      1  0.5421650000000  0.3947760000000  0.4848560000000 1.0
C      1  0.4604270000000  0.6049370000000  0.4846800000000 1.0
C      1  0.5426850000000  0.3943090000000  0.5155260000000 1.0
C      1  0.4577840000000  0.6053700000000  0.5154510000000 1.0
C      1  0.5725980000000  0.5813970000000  0.4593690000000 1.0
C      1  0.4238930000000  0.4209680000000  0.4692120000000 1.0
C      1  0.5724000000000  0.5787850000000  0.5254940000000 1.0
C      1  0.4255460000000  0.4191850000000  0.5308200000000 1.0
C      1  0.4659450000000  0.4927980000000  0.4025870000000 1.0
C      1  0.5353590000000  0.5056670000000  0.4013710000000 1.0
C      1  0.4638150000000  0.4930420000000  0.6028030000000 1.0
C      1  0.5345120000000  0.5062740000000  0.6023590000000 1.0
C      1  0.4502960000000  0.4088770000000  0.5310420000000 1.0
C      1  0.5489320000000  0.5888160000000  0.5328820000000 1.0
C      1  0.4481830000000  0.4092500000000  0.4701580000000 1.0
C      1  0.5455140000000  0.5911610000000  0.4600160000000 1.0
C      1  0.5341250000000  0.4610300000000  0.5319260000000 1.0
C      1  0.4654440000000  0.5378220000000  0.5344660000000 1.0
C      1  0.5268650000000  0.4633330000000  0.4744330000000 1.0
C      1  0.4738520000000  0.5372470000000  0.4761340000000 1.0
C      1  0.4624910000000  0.5215710000000  0.6100240000000 1.0
C      1  0.5350030000000  0.4772260000000  0.6081770000000 1.0
C      1  0.4644650000000  0.5218100000000  0.3972190000000 1.0
C      1  0.5370230000000  0.4770550000000  0.3948490000000 1.0
C      1  0.5578390000000  0.5624820000000  0.4106920000000 1.0
C      1  0.4451390000000  0.4344550000000  0.4193550000000 1.0
C      1  0.5531480000000  0.5639290000000  0.5820470000000 1.0
C      1  0.4446790000000  0.4350420000000  0.5820480000000 1.0
C      1  0.4835100000000  0.3983220000000  0.4301270000000 1.0
C      1  0.5287620000000  0.5969110000000  0.4367110000000 1.0
C      1  0.4827920000000  0.3984920000000  0.5707010000000 1.0
C      1  0.5154180000000  0.6013170000000  0.5728740000000 1.0
C      1  0.5403060000000  0.5831030000000  0.4141540000000 1.0
C      1  0.4628110000000  0.4138090000000  0.4210830000000 1.0
C      1  0.5358870000000  0.5850630000000  0.5813750000000 1.0
C      1  0.4622900000000  0.4143250000000  0.5798620000000 1.0
C      1  0.5062350000000  0.4543350000000  0.4572260000000 1.0
C      1  0.4956430000000  0.5450170000000  0.4596580000000 1.0
C      1  0.5074320000000  0.4546100000000  0.5454240000000 1.0
C      1  0.4895940000000  0.5464070000000  0.5498930000000 1.0
C      1  0.4081200000000  0.4657880000000  0.4377320000000 1.0
C      1  0.5950460000000  0.5333920000000  0.4318110000000 1.0
C      1  0.4075710000000  0.4645480000000  0.5619610000000 1.0
C      1  0.5880100000000  0.5360650000000  0.5569790000000 1.0
C      1  0.4818610000000  0.6041010000000  0.5328260000000 1.0
C      1  0.5174590000000  0.3957500000000  0.5311510000000 1.0
C      1  0.4871230000000  0.6039960000000  0.4710310000000 1.0
C      1  0.5166710000000  0.3957250000000  0.4699290000000 1.0
C      1  0.4597930000000  0.5123280000000  0.5165900000000 1.0
C      1  0.5414590000000  0.4871740000000  0.5154510000000 1.0
C      1  0.4742810000000  0.5101660000000  0.4898940000000 1.0
C      1  0.5272010000000  0.4901510000000  0.4887030000000 1.0
C      1  0.5526750000000  0.4673170000000  0.5569760000000 1.0
C      1  0.4466100000000  0.5295870000000  0.5579310000000 1.0
C      1  0.5606850000000  0.4725480000000  0.4384840000000 1.0
C      1  0.4410230000000  0.5263070000000  0.4398080000000 1.0
C      1  0.4623340000000  0.4648960000000  0.4783780000000 1.0
C      1  0.5424390000000  0.5349560000000  0.4789910000000 1.0
C      1  0.4633020000000  0.4648670000000  0.5248740000000 1.0
C      1  0.5309750000000  0.5325600000000  0.5326060000000 1.0
C      1  0.4022290000000  0.5203930000000  0.4754190000000 1.0
C      1  0.5979360000000  0.4810560000000  0.4725500000000 1.0
C      1  0.4052420000000  0.5129700000000  0.5250870000000 1.0
C      1  0.5960020000000  0.4873410000000  0.5230830000000 1.0
C      1  0.5074150000000  0.5962690000000  0.4898440000000 1.0
C      1  0.4944730000000  0.4026270000000  0.4864240000000 1.0
C      1  0.5046150000000  0.5962500000000  0.5174830000000 1.0
C      1  0.4953590000000  0.4029540000000  0.5144520000000 1.0
C      1  0.5421690000000  0.5082450000000  0.4697580000000 1.0
C      1  0.4607050000000  0.4914500000000  0.4706830000000 1.0
C      1  0.5408330000000  0.5075920000000  0.5364640000000 1.0
C      1  0.4595370000000  0.4895420000000  0.5354710000000 1.0
C      1  0.4846860000000  0.5790090000000  0.4278770000000 1.0
C      1  0.5241840000000  0.4212590000000  0.4282150000000 1.0
C      1  0.4745790000000  0.5806960000000  0.5781910000000 1.0
C      1  0.5224200000000  0.4210320000000  0.5752050000000 1.0
C      1  0.5743690000000  0.4687640000000  0.4857130000000 1.0
C      1  0.4266300000000  0.5317480000000  0.4875860000000 1.0
C      1  0.5708720000000  0.4820190000000  0.5106300000000 1.0
C      1  0.4301460000000  0.5171440000000  0.5117790000000 1.0
C      1  0.5531130000000  0.4639800000000  0.6234800000000 1.0
C      1  0.4436930000000  0.5334520000000  0.6256420000000 1.0
C      1  0.5546560000000  0.4647920000000  0.3782720000000 1.0
C      1  0.4468830000000  0.5346230000000  0.3809680000000 1.0
C      1  0.5436910000000  0.4408330000000  0.5116100000000 1.0
C      1  0.4565350000000  0.5585510000000  0.5143380000000 1.0
C      1  0.5507440000000  0.4507010000000  0.4851830000000 1.0
C      1  0.4502060000000  0.5495320000000  0.4875270000000 1.0
C      1  0.4840480000000  0.5537560000000  0.5773810000000 1.0
C      1  0.5119630000000  0.4476140000000  0.5736040000000 1.0
C      1  0.4898460000000  0.5512730000000  0.4316720000000 1.0
C      1  0.5140900000000  0.4477780000000  0.4300440000000 1.0
C      1  0.5661420000000  0.4014990000000  0.4703360000000 1.0
C      1  0.4367530000000  0.5983180000000  0.4696860000000 1.0
C      1  0.5673070000000  0.4013910000000  0.5287410000000 1.0
C      1  0.4325130000000  0.5981780000000  0.5273780000000 1.0
C      1  0.4380990000000  0.4548940000000  0.5005400000000 1.0
C      1  0.5659930000000  0.5469130000000  0.4899110000000 1.0
C      1  0.5010860000000  0.5007730000000  0.4944860000000 1.0
END
