TITL C-3623283-6828-677 -4343.11187210375 125000 -1021.70090134738 0 0 169 (C1) n - 1
REM
REM in /home/nfs/bkarasulu/CARBON/AIRSS/Generating-Clusters/LCBOP/Higher-Symm/SD-CG/FIRE-CG
REM
REM
REM
REM
REM
REM ./C.cell (b20cbc046b6831c77cfcea5457e17084)
REM AIRSS Version 0.9.1 bugfix July 2018 build 013d7b7c2542+ Fri, 06 Jul 2018 19:26:36 +0100
REM compiler GCC version 9.2.1 20190827 (Red Hat 9.2.1-1)
REM options -cpp -mtune=generic -march=x86-64 -g -O0 -fpre-include=/usr/include/finclude/math-vector-fortran.h
REM seed 1140677303 1523649885 -1791121439 21190079 199448899 685169694 249826237 -249461400 -565864336 -159439474 -1381888904 702721614 -1227160921 -1869427899 -714417053 -979192987 -173538799 952768102 2064692168 -849671430 -1575590495 -264473794 1946607532 1095039781 -531146966 1255953989 1164274918 -1968343588 -323646562 2142249918 -1893141285 174059581 -808345940
REM
CELL 1.54180   50.00000   50.00000   50.00000   90.00000   90.00000   90.00000
LATT -1
SFAC C  
C      1  0.4954870000000  0.5747800000000  0.6610660000000 1.0
C      1  0.4636940000000  0.4109330000000  0.3826160000000 1.0
C      1  0.5235650000000  0.6148710000000  0.5469680000000 1.0
C      1  0.5010580000000  0.4083000000000  0.5319010000000 1.0
C      1  0.5607680000000  0.5452250000000  0.5177950000000 1.0
C      1  0.4312330000000  0.5637440000000  0.4922910000000 1.0
C      1  0.4577410000000  0.4431480000000  0.4445290000000 1.0
C      1  0.4695550000000  0.4722610000000  0.4062350000000 1.0
C      1  0.3940680000000  0.5275890000000  0.4983120000000 1.0
C      1  0.4974350000000  0.4441720000000  0.3757920000000 1.0
C      1  0.5351180000000  0.5457690000000  0.5092340000000 1.0
C      1  0.5635760000000  0.5572410000000  0.5640460000000 1.0
C      1  0.4714110000000  0.5314050000000  0.4842700000000 1.0
C      1  0.5180660000000  0.4195750000000  0.4427630000000 1.0
C      1  0.4862010000000  0.5796640000000  0.5816930000000 1.0
C      1  0.5573170000000  0.3955230000000  0.4590540000000 1.0
C      1  0.5662770000000  0.4461640000000  0.5365270000000 1.0
C      1  0.5715070000000  0.4530260000000  0.4521250000000 1.0
C      1  0.5948780000000  0.5715480000000  0.4974360000000 1.0
C      1  0.5723020000000  0.5040700000000  0.5258060000000 1.0
C      1  0.5808400000000  0.5809710000000  0.4736080000000 1.0
C      1  0.3999830000000  0.5382310000000  0.5230470000000 1.0
C      1  0.5545080000000  0.5917230000000  0.4793840000000 1.0
C      1  0.4078430000000  0.5405110000000  0.4774680000000 1.0
C      1  0.4189930000000  0.4950630000000  0.3917550000000 1.0
C      1  0.5246910000000  0.5591780000000  0.3950260000000 1.0
C      1  0.6256920000000  0.4972990000000  0.4639480000000 1.0
C      1  0.4622450000000  0.6009020000000  0.4730070000000 1.0
C      1  0.4944850000000  0.6184710000000  0.5501140000000 1.0
C      1  0.5600550000000  0.4477050000000  0.4785950000000 1.0
C      1  0.4322780000000  0.5078200000000  0.4130750000000 1.0
C      1  0.4724950000000  0.5540510000000  0.5451770000000 1.0
C      1  0.5391950000000  0.6016300000000  0.5666510000000 1.0
C      1  0.5473840000000  0.5036010000000  0.4223970000000 1.0
C      1  0.4228860000000  0.4695810000000  0.5230670000000 1.0
C      1  0.6260920000000  0.5276890000000  0.4999740000000 1.0
C      1  0.5414250000000  0.4923440000000  0.6020120000000 1.0
C      1  0.6046960000000  0.4924530000000  0.4460190000000 1.0
C      1  0.5514220000000  0.5193510000000  0.5972530000000 1.0
C      1  0.4297900000000  0.5037990000000  0.5802570000000 1.0
C      1  0.3813750000000  0.4759690000000  0.5016710000000 1.0
C      1  0.5034080000000  0.4352190000000  0.4607570000000 1.0
C      1  0.4891900000000  0.6069950000000  0.4816760000000 1.0
C      1  0.4995080000000  0.4973280000000  0.5077990000000 1.0
C      1  0.5581200000000  0.4541070000000  0.5816910000000 1.0
C      1  0.3805910000000  0.5027250000000  0.4981360000000 1.0
C      1  0.4237040000000  0.5791110000000  0.5177780000000 1.0
C      1  0.4863760000000  0.4200070000000  0.3710660000000 1.0
C      1  0.4984550000000  0.5254620000000  0.5736740000000 1.0
C      1  0.4493160000000  0.5990890000000  0.5561590000000 1.0
C      1  0.4919280000000  0.5785740000000  0.6355220000000 1.0
C      1  0.4056010000000  0.4468530000000  0.4009570000000 1.0
C      1  0.5546250000000  0.6015560000000  0.5074310000000 1.0
C      1  0.4891430000000  0.4989390000000  0.5341840000000 1.0
C      1  0.6158350000000  0.4476920000000  0.4352100000000 1.0
C      1  0.5230680000000  0.5323730000000  0.3906390000000 1.0
C      1  0.4031420000000  0.5293090000000  0.4512150000000 1.0
C      1  0.5213550000000  0.5145240000000  0.4125820000000 1.0
C      1  0.4468140000000  0.5240400000000  0.5954330000000 1.0
C      1  0.4826610000000  0.4562790000000  0.4553120000000 1.0
C      1  0.4237750000000  0.5580450000000  0.5632410000000 1.0
C      1  0.5342540000000  0.4841550000000  0.5470450000000 1.0
C      1  0.5635970000000  0.4003970000000  0.4873860000000 1.0
C      1  0.4316540000000  0.4195210000000  0.5010890000000 1.0
C      1  0.4021970000000  0.4575740000000  0.5069840000000 1.0
C      1  0.5259890000000  0.3701980000000  0.4936160000000 1.0
C      1  0.5110980000000  0.5031950000000  0.5542310000000 1.0
C      1  0.5163860000000  0.3866800000000  0.5718210000000 1.0
C      1  0.4853150000000  0.6306500000000  0.5255790000000 1.0
C      1  0.5465770000000  0.4777290000000  0.4070600000000 1.0
C      1  0.5711610000000  0.5638200000000  0.5370650000000 1.0
C      1  0.5274550000000  0.4833740000000  0.4965520000000 1.0
C      1  0.5965040000000  0.4651160000000  0.4446950000000 1.0
C      1  0.4255890000000  0.4631820000000  0.5512250000000 1.0
C      1  0.4765620000000  0.5136570000000  0.5928540000000 1.0
C      1  0.5599780000000  0.4713150000000  0.6020870000000 1.0
C      1  0.4539540000000  0.4918240000000  0.4255330000000 1.0
C      1  0.4729210000000  0.5621350000000  0.5185960000000 1.0
C      1  0.5350300000000  0.5670950000000  0.4419390000000 1.0
C      1  0.5462810000000  0.3887010000000  0.5337520000000 1.0
C      1  0.4888970000000  0.5591380000000  0.4249890000000 1.0
C      1  0.5798560000000  0.5264190000000  0.5096310000000 1.0
C      1  0.5501340000000  0.4599290000000  0.5553490000000 1.0
C      1  0.6023480000000  0.5427790000000  0.5011170000000 1.0
C      1  0.4717060000000  0.4650720000000  0.5906020000000 1.0
C      1  0.4765140000000  0.6014510000000  0.5648590000000 1.0
C      1  0.4214900000000  0.4675220000000  0.3881350000000 1.0
C      1  0.4463270000000  0.4278330000000  0.3963950000000 1.0
C      1  0.4625380000000  0.5299810000000  0.4560130000000 1.0
C      1  0.4382490000000  0.4865840000000  0.5055000000000 1.0
C      1  0.5152510000000  0.3758800000000  0.4693140000000 1.0
C      1  0.4962930000000  0.5205880000000  0.4916600000000 1.0
C      1  0.5716250000000  0.4078310000000  0.4380540000000 1.0
C      1  0.4845310000000  0.5328960000000  0.4359900000000 1.0
C      1  0.4937700000000  0.5543660000000  0.5658870000000 1.0
C      1  0.4755510000000  0.4431790000000  0.5530000000000 1.0
C      1  0.6085150000000  0.4556510000000  0.5140840000000 1.0
C      1  0.5459760000000  0.4956900000000  0.4513790000000 1.0
C      1  0.6135180000000  0.3871910000000  0.5775880000000 1.0
C      1  0.4538610000000  0.4165440000000  0.5159770000000 1.0
C      1  0.5933770000000  0.5140500000000  0.4318000000000 1.0
C      1  0.5472360000000  0.3849870000000  0.5057450000000 1.0
C      1  0.5487450000000  0.5372850000000  0.6180990000000 1.0
C      1  0.4800800000000  0.4289440000000  0.5265020000000 1.0
C      1  0.5006690000000  0.6237210000000  0.5026260000000 1.0
C      1  0.6225140000000  0.4777480000000  0.5075880000000 1.0
C      1  0.5649670000000  0.5290050000000  0.5731030000000 1.0
C      1  0.4366740000000  0.5135110000000  0.5515080000000 1.0
C      1  0.3884090000000  0.5197620000000  0.5635830000000 1.0
C      1  0.4876960000000  0.4466850000000  0.5030800000000 1.0
C      1  0.4726800000000  0.4630350000000  0.4837190000000 1.0
C      1  0.3800360000000  0.4827660000000  0.4473190000000 1.0
C      1  0.5006130000000  0.4868860000000  0.4493660000000 1.0
C      1  0.5915460000000  0.3857590000000  0.5636340000000 1.0
C      1  0.3827750000000  0.5093660000000  0.4492020000000 1.0
C      1  0.4104450000000  0.4411220000000  0.4610250000000 1.0
C      1  0.4966860000000  0.4564530000000  0.5836580000000 1.0
C      1  0.4124960000000  0.4369350000000  0.4894280000000 1.0
C      1  0.5187970000000  0.5624040000000  0.5525000000000 1.0
C      1  0.4698300000000  0.4894800000000  0.5755190000000 1.0
C      1  0.4693110000000  0.5734090000000  0.4120720000000 1.0
C      1  0.5157870000000  0.5674870000000  0.4208330000000 1.0
C      1  0.5212090000000  0.5336340000000  0.4882290000000 1.0
C      1  0.5761620000000  0.5102660000000  0.5541710000000 1.0
C      1  0.5620970000000  0.4340460000000  0.4323450000000 1.0
C      1  0.3873510000000  0.4929870000000  0.5694380000000 1.0
C      1  0.4979750000000  0.4615620000000  0.3990890000000 1.0
C      1  0.4948610000000  0.5004700000000  0.6129660000000 1.0
C      1  0.4489550000000  0.4569580000000  0.3909310000000 1.0
C      1  0.5784190000000  0.5859020000000  0.5195560000000 1.0
C      1  0.5187790000000  0.5621830000000  0.5244630000000 1.0
C      1  0.5143110000000  0.4824970000000  0.6019890000000 1.0
C      1  0.4540310000000  0.4995490000000  0.4549110000000 1.0
C      1  0.5465660000000  0.4913660000000  0.5205810000000 1.0
C      1  0.4371560000000  0.5505610000000  0.5881110000000 1.0
C      1  0.5211460000000  0.3946220000000  0.5460200000000 1.0
C      1  0.4563600000000  0.5484210000000  0.5008640000000 1.0
C      1  0.5735540000000  0.4269150000000  0.4937250000000 1.0
C      1  0.4495870000000  0.4477270000000  0.5896010000000 1.0
C      1  0.5342030000000  0.4353310000000  0.4249620000000 1.0
C      1  0.5307170000000  0.5810320000000  0.4671540000000 1.0
C      1  0.4633890000000  0.4995450000000  0.5478120000000 1.0
C      1  0.6282760000000  0.5005890000000  0.4916940000000 1.0
C      1  0.5057440000000  0.5831570000000  0.4826400000000 1.0
C      1  0.4995130000000  0.5095070000000  0.4303310000000 1.0
C      1  0.4481730000000  0.5570650000000  0.4510190000000 1.0
C      1  0.4306860000000  0.4343100000000  0.4417750000000 1.0
C      1  0.4298370000000  0.5808050000000  0.5461910000000 1.0
C      1  0.5693210000000  0.3857000000000  0.5492170000000 1.0
C      1  0.5852470000000  0.4394860000000  0.5166910000000 1.0
C      1  0.5577780000000  0.5500440000000  0.4360560000000 1.0
C      1  0.4887450000000  0.5810870000000  0.6093460000000 1.0
C      1  0.5253590000000  0.4584850000000  0.4104540000000 1.0
C      1  0.4465080000000  0.4455670000000  0.5609060000000 1.0
C      1  0.5682000000000  0.5253250000000  0.4254200000000 1.0
C      1  0.4533700000000  0.4843940000000  0.4814670000000 1.0
C      1  0.5313340000000  0.6149780000000  0.5182360000000 1.0
C      1  0.4121000000000  0.5336820000000  0.5489860000000 1.0
C      1  0.4435540000000  0.5791450000000  0.4690890000000 1.0
C      1  0.5401110000000  0.5733130000000  0.5675810000000 1.0
C      1  0.3898810000000  0.4583590000000  0.4519350000000 1.0
C      1  0.5115370000000  0.4387070000000  0.4881920000000 1.0
C      1  0.5233300000000  0.4902660000000  0.4663400000000 1.0
C      1  0.4977730000000  0.5714790000000  0.5085860000000 1.0
C      1  0.4130190000000  0.4805550000000  0.5723140000000 1.0
C      1  0.4233250000000  0.4278440000000  0.4146950000000 1.0
C      1  0.5286280000000  0.3946600000000  0.4530560000000 1.0
C      1  0.4198610000000  0.5283130000000  0.4282810000000 1.0
C      1  0.5348940000000  0.4543840000000  0.4916160000000 1.0
END
