TITL C-3623282-6910-257 4.77681529288419e-07 125000 -1099.48185045281 0 0 176 (C1) n - 1
REM
REM in /home/nfs/bkarasulu/CARBON/AIRSS/Generating-Clusters/LCBOP/Higher-Symm/SD-CG/FIRE-CG
REM
REM
REM
REM
REM
REM ./C.cell (b20cbc046b6831c77cfcea5457e17084)
REM AIRSS Version 0.9.1 bugfix July 2018 build 013d7b7c2542+ Fri, 06 Jul 2018 19:26:36 +0100
REM compiler GCC version 9.2.1 20190827 (Red Hat 9.2.1-1)
REM options -cpp -mtune=generic -march=x86-64 -g -O0 -fpre-include=/usr/include/finclude/math-vector-fortran.h
REM seed -1194456184 -1237406382 -32414103 -1666317572 255291317 2042794134 -1806194136 444441712 -86356914 -2053010738 1539892145 995102937 131014117 2027562569 -1456726847 -698656427 -1501639082 -673166533 -1329846536 2079048208 859004030 -1953502563 -1906479770 1726601327 249180199 308587826 523593077 -160840996 -1684335274 192744674 -1431366148 -1596844603 706344450
REM
CELL 1.54180   50.00000   50.00000   50.00000   90.00000   90.00000   90.00000
LATT -1
SFAC C  
C      1  0.5016510000000  0.5225440000000  0.5714610000000 1.0
C      1  0.4979230000000  0.4760370000000  0.5718910000000 1.0
C      1  0.4977890000000  0.4773580000000  0.4287510000000 1.0
C      1  0.5022400000000  0.5253430000000  0.4283330000000 1.0
C      1  0.5249430000000  0.4975380000000  0.5719000000000 1.0
C      1  0.4774100000000  0.5011580000000  0.5700940000000 1.0
C      1  0.4765150000000  0.5009500000000  0.4282050000000 1.0
C      1  0.5228110000000  0.4977580000000  0.4284930000000 1.0
C      1  0.4014350000000  0.4200010000000  0.5065040000000 1.0
C      1  0.5984640000000  0.5798130000000  0.5071240000000 1.0
C      1  0.4007960000000  0.5798280000000  0.4918940000000 1.0
C      1  0.5992780000000  0.4204370000000  0.4920760000000 1.0
C      1  0.4202780000000  0.4004110000000  0.5076920000000 1.0
C      1  0.5796310000000  0.5994200000000  0.5081170000000 1.0
C      1  0.5797730000000  0.4015030000000  0.4931120000000 1.0
C      1  0.4201880000000  0.5989090000000  0.4926150000000 1.0
C      1  0.5211460000000  0.4924200000000  0.4761460000000 1.0
C      1  0.4789490000000  0.5092210000000  0.4756010000000 1.0
C      1  0.5198710000000  0.4928880000000  0.5243060000000 1.0
C      1  0.4777510000000  0.5137930000000  0.5223770000000 1.0
C      1  0.5071720000000  0.5222610000000  0.4757660000000 1.0
C      1  0.4922620000000  0.4800040000000  0.4770850000000 1.0
C      1  0.5070060000000  0.5202920000000  0.5239750000000 1.0
C      1  0.4956610000000  0.4751570000000  0.5252130000000 1.0
C      1  0.5253120000000  0.5437190000000  0.3910280000000 1.0
C      1  0.4743680000000  0.4558890000000  0.3920140000000 1.0
C      1  0.5225180000000  0.4540030000000  0.6069450000000 1.0
C      1  0.4777110000000  0.5449810000000  0.6065150000000 1.0
C      1  0.5455520000000  0.5221270000000  0.3934400000000 1.0
C      1  0.4537560000000  0.4771460000000  0.3935780000000 1.0
C      1  0.4565720000000  0.5243560000000  0.6078980000000 1.0
C      1  0.5440020000000  0.4744150000000  0.6090840000000 1.0
C      1  0.5942070000000  0.4455140000000  0.4797810000000 1.0
C      1  0.4057020000000  0.5547060000000  0.4795750000000 1.0
C      1  0.5935690000000  0.5546010000000  0.5191190000000 1.0
C      1  0.4061390000000  0.4451790000000  0.5186530000000 1.0
C      1  0.4453950000000  0.5943430000000  0.4804270000000 1.0
C      1  0.5545440000000  0.4062660000000  0.4811120000000 1.0
C      1  0.5544680000000  0.5944850000000  0.5203120000000 1.0
C      1  0.4453060000000  0.4053150000000  0.5201670000000 1.0
C      1  0.5326980000000  0.4816520000000  0.5002430000000 1.0
C      1  0.4668720000000  0.5225410000000  0.4982960000000 1.0
C      1  0.5447650000000  0.5428800000000  0.4991680000000 1.0
C      1  0.4553380000000  0.4588540000000  0.5004580000000 1.0
C      1  0.4559260000000  0.5479580000000  0.4987390000000 1.0
C      1  0.5426120000000  0.4556450000000  0.5017430000000 1.0
C      1  0.5189840000000  0.5326210000000  0.5003150000000 1.0
C      1  0.4808310000000  0.4697950000000  0.5022340000000 1.0
C      1  0.4645300000000  0.5880440000000  0.4365760000000 1.0
C      1  0.5352790000000  0.4121190000000  0.4373610000000 1.0
C      1  0.4632780000000  0.4132400000000  0.5643610000000 1.0
C      1  0.5361770000000  0.5859460000000  0.5643770000000 1.0
C      1  0.5859150000000  0.4635040000000  0.4356310000000 1.0
C      1  0.4138260000000  0.5365640000000  0.4354110000000 1.0
C      1  0.4119070000000  0.4642310000000  0.5625180000000 1.0
C      1  0.5877510000000  0.5355080000000  0.5629850000000 1.0
C      1  0.4931940000000  0.5773850000000  0.4860640000000 1.0
C      1  0.5069860000000  0.4233360000000  0.4870530000000 1.0
C      1  0.4918890000000  0.4229730000000  0.5130620000000 1.0
C      1  0.5081990000000  0.5766410000000  0.5121790000000 1.0
C      1  0.5763330000000  0.4918710000000  0.4873910000000 1.0
C      1  0.4235750000000  0.5082370000000  0.4873470000000 1.0
C      1  0.4231620000000  0.4928070000000  0.5131850000000 1.0
C      1  0.5766140000000  0.5069630000000  0.5134620000000 1.0
C      1  0.4211100000000  0.4433510000000  0.5440730000000 1.0
C      1  0.5784640000000  0.5563230000000  0.5444390000000 1.0
C      1  0.4218090000000  0.5570110000000  0.4548130000000 1.0
C      1  0.5779190000000  0.4432470000000  0.4552080000000 1.0
C      1  0.4429830000000  0.4214800000000  0.5448170000000 1.0
C      1  0.5565830000000  0.5781180000000  0.5448910000000 1.0
C      1  0.5561650000000  0.4213670000000  0.4557970000000 1.0
C      1  0.4435970000000  0.5790570000000  0.4551490000000 1.0
C      1  0.4253590000000  0.4676740000000  0.5870820000000 1.0
C      1  0.5746140000000  0.5319520000000  0.5877570000000 1.0
C      1  0.4270770000000  0.5356300000000  0.4104650000000 1.0
C      1  0.5727080000000  0.4640370000000  0.4106330000000 1.0
C      1  0.4642720000000  0.4265070000000  0.5893420000000 1.0
C      1  0.5354300000000  0.5725370000000  0.5892680000000 1.0
C      1  0.5315390000000  0.4253870000000  0.4127430000000 1.0
C      1  0.4679140000000  0.5744800000000  0.4119710000000 1.0
C      1  0.3882560000000  0.4775240000000  0.4816530000000 1.0
C      1  0.6114400000000  0.5225060000000  0.4819380000000 1.0
C      1  0.3849940000000  0.5210360000000  0.5146040000000 1.0
C      1  0.6149550000000  0.4791480000000  0.5147200000000 1.0
C      1  0.4789470000000  0.3847370000000  0.4853200000000 1.0
C      1  0.5209760000000  0.6153730000000  0.4850020000000 1.0
C      1  0.5222520000000  0.3877480000000  0.5179460000000 1.0
C      1  0.4774480000000  0.6118240000000  0.5179050000000 1.0
C      1  0.4684550000000  0.5688420000000  0.5933160000000 1.0
C      1  0.5319380000000  0.4302020000000  0.5936500000000 1.0
C      1  0.4644480000000  0.4307380000000  0.4015520000000 1.0
C      1  0.5356740000000  0.5689060000000  0.4001870000000 1.0
C      1  0.5691890000000  0.4641800000000  0.5998460000000 1.0
C      1  0.4313310000000  0.5345810000000  0.5991240000000 1.0
C      1  0.4301610000000  0.4679200000000  0.4073140000000 1.0
C      1  0.5693930000000  0.5314140000000  0.4066590000000 1.0
C      1  0.5686480000000  0.4536730000000  0.5735150000000 1.0
C      1  0.4319800000000  0.5453820000000  0.5729950000000 1.0
C      1  0.5655030000000  0.5461410000000  0.4307200000000 1.0
C      1  0.4344460000000  0.4537350000000  0.4316800000000 1.0
C      1  0.4541110000000  0.5648300000000  0.5690470000000 1.0
C      1  0.5467100000000  0.4339480000000  0.5695440000000 1.0
C      1  0.5464250000000  0.5685750000000  0.4264460000000 1.0
C      1  0.4537830000000  0.4314820000000  0.4277870000000 1.0
C      1  0.4462230000000  0.4226970000000  0.4713320000000 1.0
C      1  0.5546540000000  0.5783500000000  0.4697020000000 1.0
C      1  0.4472120000000  0.5620260000000  0.5213640000000 1.0
C      1  0.5524350000000  0.4387560000000  0.5217900000000 1.0
C      1  0.4395680000000  0.4487910000000  0.4795810000000 1.0
C      1  0.5610240000000  0.5522690000000  0.4784130000000 1.0
C      1  0.5783900000000  0.4457100000000  0.5304110000000 1.0
C      1  0.4217180000000  0.5537870000000  0.5303250000000 1.0
C      1  0.4502330000000  0.4728300000000  0.5993830000000 1.0
C      1  0.5499890000000  0.5264850000000  0.6006250000000 1.0
C      1  0.4521550000000  0.5296680000000  0.3987770000000 1.0
C      1  0.5475550000000  0.4697660000000  0.3989960000000 1.0
C      1  0.4698840000000  0.4516190000000  0.6011870000000 1.0
C      1  0.5298940000000  0.5473900000000  0.6010410000000 1.0
C      1  0.5262860000000  0.4501210000000  0.4001660000000 1.0
C      1  0.4731950000000  0.5496720000000  0.3992620000000 1.0
C      1  0.5061550000000  0.4338070000000  0.5376520000000 1.0
C      1  0.4947100000000  0.5639850000000  0.5363220000000 1.0
C      1  0.5081790000000  0.5678850000000  0.4608610000000 1.0
C      1  0.4922350000000  0.4336950000000  0.4620240000000 1.0
C      1  0.4337030000000  0.5069520000000  0.5382160000000 1.0
C      1  0.5667040000000  0.4921080000000  0.5386170000000 1.0
C      1  0.5640930000000  0.5056280000000  0.4632630000000 1.0
C      1  0.4359240000000  0.4947400000000  0.4633490000000 1.0
C      1  0.5146070000000  0.6041550000000  0.5560890000000 1.0
C      1  0.4846790000000  0.3947180000000  0.5559780000000 1.0
C      1  0.5156340000000  0.3923390000000  0.4468060000000 1.0
C      1  0.4843190000000  0.6078660000000  0.4461000000000 1.0
C      1  0.6075350000000  0.5158220000000  0.5534190000000 1.0
C      1  0.3922570000000  0.4840710000000  0.5530650000000 1.0
C      1  0.3956450000000  0.5150080000000  0.4437660000000 1.0
C      1  0.6041030000000  0.4851310000000  0.4438810000000 1.0
C      1  0.5038310000000  0.6178380000000  0.4631640000000 1.0
C      1  0.4960630000000  0.3823840000000  0.4636070000000 1.0
C      1  0.5052880000000  0.3854760000000  0.5398880000000 1.0
C      1  0.4941310000000  0.6134940000000  0.5400160000000 1.0
C      1  0.6133650000000  0.5057010000000  0.4599110000000 1.0
C      1  0.3864020000000  0.4944030000000  0.4597140000000 1.0
C      1  0.3824770000000  0.5037870000000  0.5362530000000 1.0
C      1  0.6174440000000  0.4962910000000  0.5364610000000 1.0
C      1  0.4960450000000  0.4587700000000  0.5478680000000 1.0
C      1  0.5058230000000  0.5392680000000  0.5467280000000 1.0
C      1  0.5049910000000  0.5404480000000  0.4531080000000 1.0
C      1  0.4946990000000  0.4613500000000  0.4542660000000 1.0
C      1  0.4619850000000  0.5045980000000  0.5441260000000 1.0
C      1  0.5392160000000  0.4952290000000  0.5465620000000 1.0
C      1  0.5391090000000  0.4952960000000  0.4535340000000 1.0
C      1  0.4606960000000  0.5050110000000  0.4531690000000 1.0
C      1  0.4324780000000  0.4662630000000  0.4578300000000 1.0
C      1  0.5676960000000  0.5341000000000  0.4570880000000 1.0
C      1  0.4227330000000  0.5322770000000  0.5490710000000 1.0
C      1  0.5779490000000  0.4668950000000  0.5495020000000 1.0
C      1  0.4669070000000  0.4224090000000  0.4518030000000 1.0
C      1  0.5337010000000  0.5785670000000  0.4503960000000 1.0
C      1  0.5348040000000  0.4308930000000  0.5431710000000 1.0
C      1  0.4660140000000  0.5674930000000  0.5426340000000 1.0
C      1  0.4709360000000  0.5964720000000  0.4934610000000 1.0
C      1  0.5290760000000  0.4039400000000  0.4940190000000 1.0
C      1  0.4709800000000  0.4024540000000  0.5075670000000 1.0
C      1  0.5290050000000  0.5974560000000  0.5072710000000 1.0
C      1  0.5970720000000  0.4710870000000  0.4925620000000 1.0
C      1  0.4028990000000  0.5290940000000  0.4924630000000 1.0
C      1  0.4039280000000  0.4707520000000  0.5057980000000 1.0
C      1  0.5957440000000  0.5291340000000  0.5061620000000 1.0
C      1  0.4966030000000  0.4613000000000  0.5977250000000 1.0
C      1  0.5033530000000  0.5375430000000  0.5970910000000 1.0
C      1  0.4996420000000  0.5389220000000  0.4024500000000 1.0
C      1  0.4999690000000  0.4613980000000  0.4033490000000 1.0
C      1  0.4615980000000  0.4990220000000  0.5957680000000 1.0
C      1  0.5391730000000  0.5000100000000  0.5975590000000 1.0
C      1  0.5380630000000  0.4964050000000  0.4029290000000 1.0
C      1  0.4614930000000  0.5029220000000  0.4027420000000 1.0
END
