TITL C-3623289-7120-37 0.11131989358758 125000 -615.033582856708 0 0 102 (C1) n - 1
REM
REM in /home/nfs/bkarasulu/CARBON/AIRSS/Generating-Clusters/LCBOP/Higher-Symm/SD-CG/FIRE-CG
REM
REM
REM
REM
REM
REM ./C.cell (b20cbc046b6831c77cfcea5457e17084)
REM AIRSS Version 0.9.1 bugfix July 2018 build 013d7b7c2542+ Fri, 06 Jul 2018 19:26:36 +0100
REM compiler GCC version 9.2.1 20190827 (Red Hat 9.2.1-1)
REM options -cpp -mtune=generic -march=x86-64 -g -O0 -fpre-include=/usr/include/finclude/math-vector-fortran.h
REM seed -818731354 1068498088 -334941555 1042985405 -1272183939 806445217 -1477588495 1558029019 1486277674 -1121741282 -1325548984 -766460449 -354782282 -1214490756 1345522482 1953038941 -791982035 352119375 975773052 1427803484 1322894463 -548039450 1735239537 937106588 42157333 225379450 1188379039 -384205671 -1980123466 -1277332549 -1379572309 -2019846153 -969800217
REM
CELL 1.54180   50.00000   50.00000   50.00000   90.00000   90.00000   90.00000
LATT -1
SFAC C  
C      1  0.4811480000000  0.4038830000000  0.5202790000000 1.0
C      1  0.4255140000000  0.4826000000000  0.4474760000000 1.0
C      1  0.4857180000000  0.5177720000000  0.4164930000000 1.0
C      1  0.5519090000000  0.5780750000000  0.4902050000000 1.0
C      1  0.4618720000000  0.4206060000000  0.4762050000000 1.0
C      1  0.5272520000000  0.5887530000000  0.5013270000000 1.0
C      1  0.5689930000000  0.4876920000000  0.5289560000000 1.0
C      1  0.5138120000000  0.5155160000000  0.4136180000000 1.0
C      1  0.4647660000000  0.5092290000000  0.4335760000000 1.0
C      1  0.5366840000000  0.5470730000000  0.5677250000000 1.0
C      1  0.5611000000000  0.4496730000000  0.4714760000000 1.0
C      1  0.5004810000000  0.4479930000000  0.4633850000000 1.0
C      1  0.5792270000000  0.5288300000000  0.4806500000000 1.0
C      1  0.4982930000000  0.4660100000000  0.4856520000000 1.0
C      1  0.5125460000000  0.5308150000000  0.4775960000000 1.0
C      1  0.4727740000000  0.4875450000000  0.4516280000000 1.0
C      1  0.4222790000000  0.4853650000000  0.4767910000000 1.0
C      1  0.4314010000000  0.5085470000000  0.4934060000000 1.0
C      1  0.4852080000000  0.5505280000000  0.5775870000000 1.0
C      1  0.4174860000000  0.5260730000000  0.5120590000000 1.0
C      1  0.4824910000000  0.5188580000000  0.5149840000000 1.0
C      1  0.5686170000000  0.5642680000000  0.5097540000000 1.0
C      1  0.4762190000000  0.5938210000000  0.4868830000000 1.0
C      1  0.5209530000000  0.5474320000000  0.5213040000000 1.0
C      1  0.4411400000000  0.4398180000000  0.4673190000000 1.0
C      1  0.5198640000000  0.4471590000000  0.4409700000000 1.0
C      1  0.5667870000000  0.5410430000000  0.4571320000000 1.0
C      1  0.5286770000000  0.4901610000000  0.4178310000000 1.0
C      1  0.4622760000000  0.5145730000000  0.4926050000000 1.0
C      1  0.4487600000000  0.4705040000000  0.5319010000000 1.0
C      1  0.5268760000000  0.4191930000000  0.4400730000000 1.0
C      1  0.5128470000000  0.4043830000000  0.4610420000000 1.0
C      1  0.5712180000000  0.4379060000000  0.5996360000000 1.0
C      1  0.4167330000000  0.4922600000000  0.6045380000000 1.0
C      1  0.5206960000000  0.5752030000000  0.5255400000000 1.0
C      1  0.5335690000000  0.5361940000000  0.4190000000000 1.0
C      1  0.6043190000000  0.4675840000000  0.5003640000000 1.0
C      1  0.4672960000000  0.4639780000000  0.4339490000000 1.0
C      1  0.5210560000000  0.4635470000000  0.5026690000000 1.0
C      1  0.4526650000000  0.4665480000000  0.5048010000000 1.0
C      1  0.4886420000000  0.4214470000000  0.4659300000000 1.0
C      1  0.4643660000000  0.5690750000000  0.4965830000000 1.0
C      1  0.4616160000000  0.4087470000000  0.5021730000000 1.0
C      1  0.5559470000000  0.4970860000000  0.4278310000000 1.0
C      1  0.5754240000000  0.4781800000000  0.4354630000000 1.0
C      1  0.5314910000000  0.5121520000000  0.4714460000000 1.0
C      1  0.5446180000000  0.4665890000000  0.4868250000000 1.0
C      1  0.4737530000000  0.4847380000000  0.4832500000000 1.0
C      1  0.5320220000000  0.4061770000000  0.5099500000000 1.0
C      1  0.5571350000000  0.5265840000000  0.4337860000000 1.0
C      1  0.5476570000000  0.4932320000000  0.4796520000000 1.0
C      1  0.5685400000000  0.5183120000000  0.5308700000000 1.0
C      1  0.6134830000000  0.4122080000000  0.5461690000000 1.0
C      1  0.4614030000000  0.5445950000000  0.4812930000000 1.0
C      1  0.4259470000000  0.5059790000000  0.5830620000000 1.0
C      1  0.4589010000000  0.5682970000000  0.4387560000000 1.0
C      1  0.4236630000000  0.4772940000000  0.5429780000000 1.0
C      1  0.4456850000000  0.5919220000000  0.4474790000000 1.0
C      1  0.4448150000000  0.5274470000000  0.5830420000000 1.0
C      1  0.5762360000000  0.4378770000000  0.5285970000000 1.0
C      1  0.4866910000000  0.4619950000000  0.4133390000000 1.0
C      1  0.4418270000000  0.5430500000000  0.5571860000000 1.0
C      1  0.4245220000000  0.5264020000000  0.5398910000000 1.0
C      1  0.5064680000000  0.5812720000000  0.5490530000000 1.0
C      1  0.4779530000000  0.4531510000000  0.5875810000000 1.0
C      1  0.5828580000000  0.4611740000000  0.4567910000000 1.0
C      1  0.4607630000000  0.6065020000000  0.4666780000000 1.0
C      1  0.4851950000000  0.4605350000000  0.5624320000000 1.0
C      1  0.5504450000000  0.5255730000000  0.5550920000000 1.0
C      1  0.5817380000000  0.4318670000000  0.5765700000000 1.0
C      1  0.4408340000000  0.4563530000000  0.4427250000000 1.0
C      1  0.4777200000000  0.5837670000000  0.5468390000000 1.0
C      1  0.4807190000000  0.5203250000000  0.6167990000000 1.0
C      1  0.3995440000000  0.5447350000000  0.5012920000000 1.0
C      1  0.5115880000000  0.5606600000000  0.5700930000000 1.0
C      1  0.5245470000000  0.4633420000000  0.5308490000000 1.0
C      1  0.3926600000000  0.5634780000000  0.4836810000000 1.0
C      1  0.4642150000000  0.5612160000000  0.5582470000000 1.0
C      1  0.5748370000000  0.5361480000000  0.5085420000000 1.0
C      1  0.4360070000000  0.5054150000000  0.4326410000000 1.0
C      1  0.5563250000000  0.5674590000000  0.4637960000000 1.0
C      1  0.5145690000000  0.4654590000000  0.4201010000000 1.0
C      1  0.5286590000000  0.3967860000000  0.4832660000000 1.0
C      1  0.5001370000000  0.5455000000000  0.4571540000000 1.0
C      1  0.5056430000000  0.5315840000000  0.5050550000000 1.0
C      1  0.5077970000000  0.4040380000000  0.5247630000000 1.0
C      1  0.4725690000000  0.5501130000000  0.4553190000000 1.0
C      1  0.4320970000000  0.4591980000000  0.4873360000000 1.0
C      1  0.5441160000000  0.4800390000000  0.5423490000000 1.0
C      1  0.5909240000000  0.4270240000000  0.5506170000000 1.0
C      1  0.4709430000000  0.5319050000000  0.5942710000000 1.0
C      1  0.4812650000000  0.5041150000000  0.5387330000000 1.0
C      1  0.3985580000000  0.5805750000000  0.4641000000000 1.0
C      1  0.4177150000000  0.5918770000000  0.4492810000000 1.0
C      1  0.4183670000000  0.5019960000000  0.5554390000000 1.0
C      1  0.5387750000000  0.4996970000000  0.5618750000000 1.0
C      1  0.5041060000000  0.5990740000000  0.4888500000000 1.0
C      1  0.4710520000000  0.4792970000000  0.5469510000000 1.0
C      1  0.6053040000000  0.4656260000000  0.4734050000000 1.0
C      1  0.5843220000000  0.4650020000000  0.5202140000000 1.0
C      1  0.5550860000000  0.4211770000000  0.5181620000000 1.0
C      1  0.5076750000000  0.4505510000000  0.5491230000000 1.0
END
