TITL C-3623287-7182-1812 0.00368133379587124 125000 -185.804441817263 0 0 34 (Td) n - 1
REM
REM in /home/nfs/bkarasulu/CARBON/AIRSS/Generating-Clusters/LCBOP/Higher-Symm/SD-CG/FIRE-CG
REM
REM
REM
REM
REM
REM ./C.cell (b20cbc046b6831c77cfcea5457e17084)
REM AIRSS Version 0.9.1 bugfix July 2018 build 013d7b7c2542+ Fri, 06 Jul 2018 19:26:36 +0100
REM compiler GCC version 9.2.1 20190827 (Red Hat 9.2.1-1)
REM options -cpp -mtune=generic -march=x86-64 -g -O0 -fpre-include=/usr/include/finclude/math-vector-fortran.h
REM seed -704836042 -1259582701 835235453 -125994538 1322373144 -1771636770 1869291008 496925962 -1272079049 2056970629 -1860559360 1424627155 121554704 -24263298 -722191227 112643315 -762205681 -805781371 -1996050264 -1315588071 1863577945 404466612 -2065911372 1827363888 -380780695 319218449 -535025722 28967467 -103971643 -652989118 -892622355 456118390 647954843
REM
CELL 1.54180   50.00000   50.00000   50.00000   90.00000   90.00000   90.00000
LATT -1
SFAC C  
C      1  0.4223050000000  0.5275050000000  0.5294280000000 1.0
C      1  0.5293890000000  0.4204200000000  0.5294310000000 1.0
C      1  0.5293900000000  0.5275030000000  0.4223440000000 1.0
C      1  0.4223050000000  0.4718090000000  0.4737340000000 1.0
C      1  0.5807780000000  0.4718090000000  0.5294300000000 1.0
C      1  0.5807780000000  0.5275040000000  0.4737340000000 1.0
C      1  0.5293890000000  0.5788920000000  0.4737320000000 1.0
C      1  0.4736940000000  0.5788940000000  0.5294280000000 1.0
C      1  0.4736940000000  0.4204200000000  0.4737350000000 1.0
C      1  0.5293890000000  0.4718110000000  0.5808190000000 1.0
C      1  0.4736940000000  0.4718070000000  0.4223450000000 1.0
C      1  0.4736940000000  0.5275060000000  0.5808170000000 1.0
C      1  0.4818820000000  0.4799960000000  0.4471400000000 1.0
C      1  0.4471000000000  0.4799970000000  0.4819220000000 1.0
C      1  0.4818820000000  0.4452150000000  0.4819230000000 1.0
C      1  0.4818820000000  0.5193170000000  0.5560230000000 1.0
C      1  0.5212010000000  0.5193150000000  0.4471400000000 1.0
C      1  0.5212010000000  0.4799980000000  0.5560240000000 1.0
C      1  0.4471000000000  0.5193170000000  0.5212400000000 1.0
C      1  0.5559830000000  0.5193160000000  0.4819220000000 1.0
C      1  0.5559830000000  0.4799970000000  0.5212410000000 1.0
C      1  0.4818820000000  0.5540990000000  0.5212400000000 1.0
C      1  0.5212010000000  0.5540980000000  0.4819210000000 1.0
C      1  0.5212010000000  0.4452150000000  0.5212420000000 1.0
C      1  0.5015420000000  0.5514280000000  0.5015800000000 1.0
C      1  0.5015420000000  0.4996580000000  0.5533530000000 1.0
C      1  0.5533130000000  0.4996560000000  0.5015820000000 1.0
C      1  0.5015420000000  0.4478850000000  0.5015830000000 1.0
C      1  0.5015420000000  0.4996550000000  0.4498100000000 1.0
C      1  0.4497700000000  0.4996570000000  0.5015810000000 1.0
C      1  0.5326780000000  0.5307920000000  0.4704450000000 1.0
C      1  0.4704060000000  0.5307930000000  0.5327170000000 1.0
C      1  0.5326780000000  0.4685210000000  0.5327180000000 1.0
C      1  0.4704060000000  0.4685200000000  0.4704460000000 1.0
END
