TITL C-3623284-6838-931 1.66861546631354e-05 125000 -274.716596089224 0 0 45 (2) n - 1
REM
REM in /home/nfs/bkarasulu/CARBON/AIRSS/Generating-Clusters/LCBOP/Higher-Symm/SD-CG/FIRE-CG
REM
REM
REM
REM
REM
REM ./C.cell (b20cbc046b6831c77cfcea5457e17084)
REM AIRSS Version 0.9.1 bugfix July 2018 build 013d7b7c2542+ Fri, 06 Jul 2018 19:26:36 +0100
REM compiler GCC version 9.2.1 20190827 (Red Hat 9.2.1-1)
REM options -cpp -mtune=generic -march=x86-64 -g -O0 -fpre-include=/usr/include/finclude/math-vector-fortran.h
REM seed 157481368 -1004111635 1036058628 -1701593279 181286642 2041507172 -1341615463 1454693622 -659055883 -1572091343 1264547244 531216629 393313696 -433908926 -1459779385 2096354020 874548304 -1481416356 1124528989 200226839 632892038 -1570526413 98264415 -1558082815 1413437012 -400291555 -803829420 -2048271498 1519496700 1906010889 230078560 -196235109 1301657980
REM
CELL 1.54180   50.00000   50.00000   50.00000   90.00000   90.00000   90.00000
LATT -1
SFAC C  
C      1  0.3264690000000  0.4999880000000  0.4227080000000 1.0
C      1  0.3728660000000  0.4999480000000  0.6411540000000 1.0
C      1  0.5949590000000  0.4999810000000  0.6645310000000 1.0
C      1  0.6858210000000  0.5000410000000  0.4605310000000 1.0
C      1  0.5198850000000  0.5000450000000  0.3110760000000 1.0
C      1  0.3264450000000  0.4999540000000  0.5772410000000 1.0
C      1  0.3729090000000  0.5000100000000  0.3588080000000 1.0
C      1  0.5950080000000  0.5000520000000  0.3354980000000 1.0
C      1  0.6858090000000  0.5000240000000  0.5395240000000 1.0
C      1  0.5198290000000  0.4999630000000  0.6889300000000 1.0
C      1  0.6677440000000  0.5000480000000  0.4108410000000 1.0
C      1  0.4670410000000  0.5000350000000  0.3129140000000 1.0
C      1  0.3118860000000  0.4999740000000  0.4735340000000 1.0
C      1  0.4166980000000  0.4999490000000  0.6707290000000 1.0
C      1  0.6366310000000  0.4999960000000  0.6319830000000 1.0
C      1  0.6677170000000  0.5000100000000  0.5892090000000 1.0
C      1  0.4669850000000  0.4999540000000  0.6870760000000 1.0
C      1  0.3118780000000  0.4999630000000  0.5264100000000 1.0
C      1  0.4167500000000  0.5000230000000  0.3292460000000 1.0
C      1  0.6366700000000  0.5000520000000  0.3680580000000 1.0
C      1  0.6169780000000  0.5000520000000  0.3503210000000 1.0
C      1  0.3937960000000  0.5000170000000  0.3424940000000 1.0
C      1  0.3173850000000  0.4999580000000  0.5523350000000 1.0
C      1  0.4933420000000  0.4999580000000  0.6898510000000 1.0
C      1  0.6785000000000  0.5000170000000  0.5649990000000 1.0
C      1  0.6169330000000  0.4999880000000  0.6497140000000 1.0
C      1  0.3937480000000  0.4999480000000  0.6574740000000 1.0
C      1  0.3174000000000  0.4999810000000  0.4476110000000 1.0
C      1  0.4933990000000  0.5000400000000  0.3101470000000 1.0
C      1  0.6785200000000  0.5000450000000  0.4350540000000 1.0
C      1  0.6895020000000  0.5000300000000  0.5132800000000 1.0
C      1  0.5711890000000  0.5000500000000  0.3238760000000 1.0
C      1  0.3544950000000  0.5000020000000  0.3778700000000 1.0
C      1  0.3388840000000  0.4999510000000  0.6006430000000 1.0
C      1  0.5459300000000  0.4999690000000  0.6843310000000 1.0
C      1  0.6895060000000  0.5000360000000  0.4867770000000 1.0
C      1  0.5711360000000  0.4999750000000  0.6761450000000 1.0
C      1  0.3544590000000  0.4999490000000  0.6220870000000 1.0
C      1  0.3389140000000  0.4999950000000  0.3993090000000 1.0
C      1  0.5459850000000  0.5000480000000  0.3156820000000 1.0
C      1  0.4412700000000  0.4999510000000  0.6806610000000 1.0
C      1  0.3100330000000  0.4999680000000  0.4999720000000 1.0
C      1  0.6537030000000  0.5000510000000  0.3883630000000 1.0
C      1  0.4413240000000  0.5000300000000  0.3193220000000 1.0
C      1  0.6536690000000  0.5000030000000  0.6116830000000 1.0
END
