TITL C-3623285-6872-485 0.00499679780714484 125000 -438.254503517714 0 0 73 (C1) n - 1
REM
REM in /home/nfs/bkarasulu/CARBON/AIRSS/Generating-Clusters/LCBOP/Higher-Symm/SD-CG/FIRE-CG
REM
REM
REM
REM
REM
REM ./C.cell (b20cbc046b6831c77cfcea5457e17084)
REM AIRSS Version 0.9.1 bugfix July 2018 build 013d7b7c2542+ Fri, 06 Jul 2018 19:26:36 +0100
REM compiler GCC version 9.2.1 20190827 (Red Hat 9.2.1-1)
REM options -cpp -mtune=generic -march=x86-64 -g -O0 -fpre-include=/usr/include/finclude/math-vector-fortran.h
REM seed 1165958207 -565017486 292389162 1969244552 -1447299091 1542990678 -509671500 -150651685 1519816922 -956020803 -1805888364 -474745441 307993168 245988132 -1781816065 -1432170385 -2121738833 362800863 351046797 886437086 -655497521 -1611749750 -1112829041 -1057353310 -1410686867 1479277014 -1953595140 1705355496 -2107691054 1542469073 838603957 2135773158 -705052137
REM
CELL 1.54180   50.00000   50.00000   50.00000   90.00000   90.00000   90.00000
LATT -1
SFAC C  
C      1  0.6011960000000  0.4961310000000  0.5503460000000 1.0
C      1  0.5810510000000  0.4447780000000  0.4669370000000 1.0
C      1  0.5865150000000  0.5560780000000  0.4682040000000 1.0
C      1  0.5136750000000  0.4745700000000  0.5506290000000 1.0
C      1  0.5160080000000  0.4767340000000  0.4255490000000 1.0
C      1  0.5180050000000  0.5685820000000  0.5216770000000 1.0
C      1  0.5255470000000  0.4533710000000  0.5350850000000 1.0
C      1  0.5261820000000  0.5027830000000  0.4309140000000 1.0
C      1  0.5310830000000  0.5507240000000  0.5395630000000 1.0
C      1  0.4862660000000  0.4646750000000  0.4894890000000 1.0
C      1  0.4957390000000  0.5140170000000  0.4872230000000 1.0
C      1  0.4860550000000  0.4911640000000  0.5001390000000 1.0
C      1  0.4943550000000  0.4675900000000  0.4415340000000 1.0
C      1  0.4955590000000  0.5583710000000  0.5074860000000 1.0
C      1  0.4853330000000  0.4776280000000  0.5466150000000 1.0
C      1  0.4514290000000  0.5080690000000  0.5293800000000 1.0
C      1  0.5192890000000  0.4362610000000  0.4682240000000 1.0
C      1  0.5146660000000  0.5526780000000  0.4643460000000 1.0
C      1  0.4474680000000  0.5406390000000  0.4519920000000 1.0
C      1  0.4472550000000  0.5345640000000  0.5817140000000 1.0
C      1  0.4512500000000  0.4321040000000  0.4852920000000 1.0
C      1  0.5824660000000  0.5479720000000  0.4429750000000 1.0
C      1  0.5953510000000  0.5204290000000  0.5601810000000 1.0
C      1  0.5754540000000  0.4278530000000  0.4870140000000 1.0
C      1  0.5101900000000  0.5239360000000  0.4213900000000 1.0
C      1  0.5180780000000  0.5462800000000  0.5640270000000 1.0
C      1  0.5077470000000  0.4313540000000  0.5303440000000 1.0
C      1  0.4701790000000  0.4530400000000  0.5489410000000 1.0
C      1  0.4666090000000  0.4703670000000  0.4351320000000 1.0
C      1  0.4687690000000  0.5638500000000  0.5154620000000 1.0
C      1  0.4667520000000  0.5486150000000  0.5675030000000 1.0
C      1  0.4709180000000  0.4433350000000  0.5017270000000 1.0
C      1  0.4608830000000  0.5237890000000  0.4341870000000 1.0
C      1  0.4136150000000  0.4411580000000  0.5985650000000 1.0
C      1  0.4286420000000  0.4293980000000  0.3882960000000 1.0
C      1  0.4224330000000  0.6184270000000  0.5037190000000 1.0
C      1  0.5015270000000  0.5413890000000  0.4854780000000 1.0
C      1  0.4750720000000  0.4947520000000  0.5263330000000 1.0
C      1  0.5011750000000  0.4566760000000  0.4667630000000 1.0
C      1  0.4493730000000  0.5717470000000  0.4961580000000 1.0
C      1  0.4293420000000  0.4865100000000  0.5911310000000 1.0
C      1  0.4494930000000  0.4474970000000  0.4351230000000 1.0
C      1  0.5497160000000  0.4556030000000  0.5206460000000 1.0
C      1  0.5501840000000  0.5080090000000  0.4453770000000 1.0
C      1  0.5553980000000  0.5378940000000  0.5329740000000 1.0
C      1  0.5773390000000  0.5466640000000  0.4914020000000 1.0
C      1  0.5883060000000  0.4817100000000  0.5318730000000 1.0
C      1  0.5744370000000  0.4701540000000  0.4618580000000 1.0
C      1  0.4616040000000  0.5603400000000  0.5424430000000 1.0
C      1  0.4496370000000  0.4498970000000  0.5671900000000 1.0
C      1  0.4558020000000  0.4961950000000  0.4329920000000 1.0
C      1  0.3976190000000  0.4244350000000  0.6105530000000 1.0
C      1  0.4188170000000  0.4210010000000  0.3656550000000 1.0
C      1  0.4096800000000  0.6408000000000  0.5077780000000 1.0
C      1  0.4349120000000  0.5124480000000  0.5897770000000 1.0
C      1  0.4441040000000  0.4347340000000  0.4596150000000 1.0
C      1  0.4444570000000  0.5559350000000  0.4735280000000 1.0
C      1  0.4847510000000  0.5322100000000  0.4218800000000 1.0
C      1  0.4937580000000  0.5467210000000  0.5749780000000 1.0
C      1  0.4795610000000  0.4358630000000  0.5278540000000 1.0
C      1  0.5613410000000  0.4323760000000  0.5094200000000 1.0
C      1  0.5673030000000  0.5276290000000  0.4344650000000 1.0
C      1  0.5755640000000  0.5368790000000  0.5526940000000 1.0
C      1  0.5645980000000  0.4797840000000  0.5165650000000 1.0
C      1  0.5599560000000  0.4936240000000  0.4684690000000 1.0
C      1  0.5623420000000  0.5283410000000  0.5066690000000 1.0
C      1  0.4386460000000  0.4379740000000  0.4112800000000 1.0
C      1  0.4354120000000  0.5956890000000  0.4996700000000 1.0
C      1  0.4307360000000  0.4590480000000  0.5857270000000 1.0
C      1  0.5275860000000  0.4885190000000  0.5694720000000 1.0
C      1  0.5265140000000  0.4612440000000  0.4056380000000 1.0
C      1  0.5265220000000  0.5943260000000  0.5183940000000 1.0
C      1  0.5596770000000  0.5009160000000  0.4970060000000 1.0
END
