TITL C-3623283-6828-2058 60.504055681492 125000 -996.582772823129 0 0 163 (C1) n - 1
REM
REM in /home/nfs/bkarasulu/CARBON/AIRSS/Generating-Clusters/LCBOP/Higher-Symm/SD-CG/FIRE-CG
REM
REM
REM
REM
REM
REM ./C.cell (b20cbc046b6831c77cfcea5457e17084)
REM AIRSS Version 0.9.1 bugfix July 2018 build 013d7b7c2542+ Fri, 06 Jul 2018 19:26:36 +0100
REM compiler GCC version 9.2.1 20190827 (Red Hat 9.2.1-1)
REM options -cpp -mtune=generic -march=x86-64 -g -O0 -fpre-include=/usr/include/finclude/math-vector-fortran.h
REM seed 2087104574 538611776 -1302691658 -310394383 1015176339 1889406345 -445852419 1024138306 -120908589 523551656 -607378193 -1211955065 -10981044 -441131111 -1437466956 20065852 -1989234366 -1900561986 -745927906 -1512803001 1525780300 -378490638 313994036 -1277535197 1934128140 -804538514 110865260 1246915395 1799719186 -66744513 1242856920 -1679220493 -1702262829
REM
CELL 1.54180   50.00000   50.00000   50.00000   90.00000   90.00000   90.00000
LATT -1
SFAC C  
C      1  0.5040560000000  0.5689710000000  0.4756280000000 1.0
C      1  0.5916670000000  0.4457210000000  0.5083150000000 1.0
C      1  0.4568890000000  0.5051740000000  0.5811670000000 1.0
C      1  0.4936130000000  0.5770310000000  0.5357250000000 1.0
C      1  0.5135240000000  0.4064480000000  0.4615100000000 1.0
C      1  0.4826220000000  0.4311100000000  0.5470790000000 1.0
C      1  0.4236750000000  0.4732590000000  0.5126920000000 1.0
C      1  0.4387520000000  0.5413610000000  0.4907170000000 1.0
C      1  0.5784560000000  0.5211010000000  0.5130420000000 1.0
C      1  0.5388140000000  0.5020750000000  0.4403700000000 1.0
C      1  0.5473920000000  0.5107120000000  0.6125300000000 1.0
C      1  0.4567510000000  0.5168650000000  0.4197800000000 1.0
C      1  0.4654230000000  0.5996550000000  0.4804430000000 1.0
C      1  0.5061070000000  0.4821780000000  0.5879610000000 1.0
C      1  0.5928420000000  0.4777750000000  0.4731110000000 1.0
C      1  0.5431020000000  0.5679800000000  0.5195930000000 1.0
C      1  0.4645010000000  0.4238790000000  0.4983330000000 1.0
C      1  0.5311250000000  0.3988940000000  0.5033880000000 1.0
C      1  0.5037400000000  0.4687820000000  0.4366200000000 1.0
C      1  0.4910080000000  0.5485160000000  0.4211240000000 1.0
C      1  0.5020670000000  0.5349230000000  0.5786250000000 1.0
C      1  0.4012250000000  0.5068660000000  0.5418860000000 1.0
C      1  0.5672930000000  0.4874120000000  0.5460830000000 1.0
C      1  0.4335250000000  0.4932430000000  0.4625220000000 1.0
C      1  0.5311420000000  0.3108310000000  0.4479010000000 1.0
C      1  0.4109040000000  0.5116440000000  0.4603160000000 1.0
C      1  0.4427320000000  0.5508460000000  0.3286780000000 1.0
C      1  0.5314980000000  0.3732960000000  0.4895440000000 1.0
C      1  0.4280480000000  0.6708040000000  0.4144180000000 1.0
C      1  0.4552760000000  0.6190470000000  0.4626790000000 1.0
C      1  0.6885600000000  0.4420750000000  0.4962600000000 1.0
C      1  0.6200940000000  0.4675210000000  0.4783360000000 1.0
C      1  0.3772570000000  0.5101970000000  0.5235360000000 1.0
C      1  0.4857270000000  0.4759490000000  0.6093620000000 1.0
C      1  0.4788650000000  0.5499450000000  0.3945210000000 1.0
C      1  0.5095630000000  0.5307090000000  0.6411090000000 1.0
C      1  0.5207340000000  0.3780580000000  0.4629190000000 1.0
C      1  0.4571520000000  0.5306410000000  0.3937720000000 1.0
C      1  0.3664540000000  0.4899590000000  0.5064830000000 1.0
C      1  0.5409540000000  0.3064030000000  0.4725620000000 1.0
C      1  0.4096440000000  0.6531380000000  0.4229680000000 1.0
C      1  0.4717460000000  0.6391270000000  0.4517410000000 1.0
C      1  0.5293340000000  0.5108700000000  0.6356730000000 1.0
C      1  0.4634530000000  0.4939500000000  0.6076130000000 1.0
C      1  0.4629840000000  0.5685520000000  0.3292590000000 1.0
C      1  0.6192320000000  0.4492700000000  0.5007910000000 1.0
C      1  0.4128930000000  0.5364470000000  0.4750390000000 1.0
C      1  0.6892550000000  0.4583360000000  0.4748300000000 1.0
C      1  0.5055850000000  0.5313070000000  0.5508540000000 1.0
C      1  0.5327340000000  0.5419440000000  0.5069910000000 1.0
C      1  0.5398680000000  0.4885860000000  0.5382360000000 1.0
C      1  0.5065650000000  0.5179220000000  0.4709030000000 1.0
C      1  0.4964860000000  0.4812830000000  0.5595920000000 1.0
C      1  0.4955560000000  0.4726960000000  0.4639210000000 1.0
C      1  0.4834230000000  0.5391170000000  0.5075730000000 1.0
C      1  0.4678920000000  0.4520240000000  0.4969920000000 1.0
C      1  0.5112840000000  0.4606670000000  0.5121050000000 1.0
C      1  0.4587670000000  0.5029980000000  0.4742500000000 1.0
C      1  0.4658890000000  0.4978330000000  0.5218460000000 1.0
C      1  0.5422720000000  0.4971050000000  0.4922980000000 1.0
C      1  0.5512230000000  0.5207730000000  0.5056530000000 1.0
C      1  0.4904010000000  0.5486600000000  0.5335160000000 1.0
C      1  0.5127940000000  0.5027540000000  0.5430770000000 1.0
C      1  0.4590100000000  0.5204340000000  0.4999360000000 1.0
C      1  0.5346680000000  0.4770490000000  0.5114750000000 1.0
C      1  0.4537030000000  0.4719570000000  0.5119260000000 1.0
C      1  0.5069710000000  0.5418530000000  0.4889500000000 1.0
C      1  0.4942710000000  0.4590490000000  0.4888600000000 1.0
C      1  0.4978160000000  0.4571660000000  0.5390990000000 1.0
C      1  0.4855210000000  0.4994280000000  0.4666130000000 1.0
C      1  0.5316850000000  0.5046320000000  0.4675520000000 1.0
C      1  0.4666970000000  0.4948790000000  0.5566850000000 1.0
C      1  0.4820880000000  0.4696220000000  0.4186840000000 1.0
C      1  0.4644640000000  0.4099320000000  0.4734660000000 1.0
C      1  0.4249290000000  0.4653200000000  0.4635430000000 1.0
C      1  0.5313930000000  0.4676320000000  0.5933440000000 1.0
C      1  0.5186640000000  0.5427240000000  0.4230650000000 1.0
C      1  0.4789830000000  0.5483010000000  0.5859140000000 1.0
C      1  0.5179990000000  0.4010820000000  0.5280470000000 1.0
C      1  0.5525570000000  0.5810100000000  0.4925690000000 1.0
C      1  0.4648470000000  0.6037340000000  0.5082870000000 1.0
C      1  0.5813060000000  0.4636870000000  0.5530100000000 1.0
C      1  0.5916890000000  0.5062660000000  0.4685410000000 1.0
C      1  0.4144100000000  0.5342180000000  0.5422800000000 1.0
C      1  0.4160300000000  0.4560330000000  0.4893980000000 1.0
C      1  0.4865450000000  0.4125080000000  0.4546540000000 1.0
C      1  0.4615570000000  0.4888510000000  0.4189230000000 1.0
C      1  0.5831990000000  0.4416970000000  0.5349770000000 1.0
C      1  0.4265220000000  0.5463070000000  0.5186540000000 1.0
C      1  0.5944950000000  0.5256590000000  0.4908180000000 1.0
C      1  0.5082200000000  0.4134520000000  0.5521590000000 1.0
C      1  0.4706320000000  0.5938480000000  0.5340200000000 1.0
C      1  0.5275300000000  0.5852100000000  0.4772660000000 1.0
C      1  0.5531360000000  0.4835700000000  0.6035550000000 1.0
C      1  0.4542090000000  0.5331830000000  0.5836450000000 1.0
C      1  0.5422820000000  0.5273820000000  0.4275390000000 1.0
C      1  0.5217970000000  0.3331630000000  0.4362630000000 1.0
C      1  0.3849030000000  0.4993650000000  0.4601760000000 1.0
C      1  0.4337600000000  0.5335450000000  0.3471620000000 1.0
C      1  0.5405280000000  0.3487570000000  0.4989710000000 1.0
C      1  0.4542720000000  0.6736030000000  0.4197460000000 1.0
C      1  0.4281930000000  0.6191570000000  0.4548820000000 1.0
C      1  0.6680320000000  0.4337460000000  0.5114520000000 1.0
C      1  0.6431370000000  0.4741530000000  0.4641480000000 1.0
C      1  0.3757740000000  0.5360470000000  0.5103550000000 1.0
C      1  0.4986900000000  0.4707310000000  0.6344060000000 1.0
C      1  0.4859810000000  0.5667480000000  0.3735280000000 1.0
C      1  0.4824610000000  0.5284670000000  0.6404310000000 1.0
C      1  0.5182200000000  0.3587960000000  0.4430180000000 1.0
C      1  0.4401000000000  0.5265250000000  0.3721830000000 1.0
C      1  0.3686960000000  0.4888980000000  0.4793280000000 1.0
C      1  0.5445610000000  0.3228960000000  0.4934540000000 1.0
C      1  0.4103680000000  0.6321000000000  0.4396420000000 1.0
C      1  0.4716620000000  0.6602090000000  0.4352160000000 1.0
C      1  0.5199710000000  0.4848270000000  0.6443180000000 1.0
C      1  0.4631750000000  0.5127980000000  0.6294210000000 1.0
C      1  0.4807050000000  0.5746150000000  0.3485130000000 1.0
C      1  0.6415310000000  0.4372510000000  0.5122730000000 1.0
C      1  0.3890280000000  0.5455330000000  0.4884330000000 1.0
C      1  0.6696480000000  0.4714030000000  0.4619330000000 1.0
C      1  0.4675570000000  0.4443830000000  0.4167080000000 1.0
C      1  0.4391310000000  0.4039750000000  0.4621850000000 1.0
C      1  0.4256830000000  0.4474020000000  0.4417500000000 1.0
C      1  0.5302970000000  0.4400330000000  0.5887580000000 1.0
C      1  0.5723460000000  0.5663910000000  0.4283130000000 1.0
C      1  0.4541470000000  0.5772830000000  0.5772480000000 1.0
C      1  0.5549660000000  0.4090480000000  0.5622890000000 1.0
C      1  0.5754770000000  0.5739120000000  0.4761800000000 1.0
C      1  0.4234080000000  0.5992150000000  0.5494070000000 1.0
C      1  0.5909320000000  0.4627710000000  0.5794300000000 1.0
C      1  0.5860060000000  0.5243150000000  0.4477090000000 1.0
C      1  0.4128270000000  0.5538390000000  0.5630800000000 1.0
C      1  0.4224700000000  0.4199330000000  0.4481290000000 1.0
C      1  0.4793790000000  0.4220720000000  0.4288920000000 1.0
C      1  0.4413590000000  0.4538370000000  0.4196310000000 1.0
C      1  0.5741550000000  0.4171960000000  0.5453690000000 1.0
C      1  0.4044600000000  0.5801650000000  0.5550280000000 1.0
C      1  0.5910950000000  0.5504240000000  0.4785830000000 1.0
C      1  0.5296110000000  0.4188100000000  0.5706120000000 1.0
C      1  0.4511240000000  0.5940600000000  0.5548480000000 1.0
C      1  0.5750960000000  0.5834430000000  0.4492500000000 1.0
C      1  0.5791120000000  0.4732570000000  0.6011810000000 1.0
C      1  0.4354080000000  0.5546230000000  0.5798330000000 1.0
C      1  0.5683620000000  0.5384630000000  0.4308760000000 1.0
C      1  0.4325590000000  0.4595430000000  0.5585530000000 1.0
C      1  0.4763780000000  0.5753290000000  0.4705020000000 1.0
C      1  0.5317800000000  0.4194270000000  0.4816580000000 1.0
C      1  0.5750300000000  0.4556240000000  0.4855580000000 1.0
C      1  0.4162220000000  0.4783310000000  0.5424540000000 1.0
C      1  0.4596030000000  0.5535170000000  0.4626560000000 1.0
C      1  0.5520380000000  0.4395670000000  0.4789680000000 1.0
C      1  0.4679350000000  0.5385440000000  0.4385370000000 1.0
C      1  0.4554110000000  0.4436920000000  0.5603850000000 1.0
C      1  0.5570760000000  0.5590590000000  0.5468430000000 1.0
C      1  0.5581720000000  0.5471030000000  0.5715570000000 1.0
C      1  0.5555380000000  0.5322380000000  0.5945230000000 1.0
C      1  0.4156030000000  0.4999380000000  0.5016500000000 1.0
C      1  0.5836970000000  0.5086850000000  0.5372970000000 1.0
C      1  0.4693560000000  0.4146170000000  0.5244090000000 1.0
C      1  0.5289950000000  0.4785120000000  0.4287260000000 1.0
C      1  0.5202630000000  0.5851370000000  0.5305350000000 1.0
C      1  0.5102450000000  0.5121990000000  0.5924630000000 1.0
C      1  0.4959730000000  0.5000440000000  0.5183000000000 1.0
END
