TITL C-3623287-7182-229 -6.02833438131753e-07 125000 -659.015225234934 0 0 104 (Cs) n - 1
REM
REM in /home/nfs/bkarasulu/CARBON/AIRSS/Generating-Clusters/LCBOP/Higher-Symm/SD-CG/FIRE-CG
REM
REM
REM
REM
REM
REM ./C.cell (b20cbc046b6831c77cfcea5457e17084)
REM AIRSS Version 0.9.1 bugfix July 2018 build 013d7b7c2542+ Fri, 06 Jul 2018 19:26:36 +0100
REM compiler GCC version 9.2.1 20190827 (Red Hat 9.2.1-1)
REM options -cpp -mtune=generic -march=x86-64 -g -O0 -fpre-include=/usr/include/finclude/math-vector-fortran.h
REM seed -932690403 1193919189 1700629728 -502438803 93975340 1430566299 1382167925 434684252 2105800555 736141442 1558643823 -142304956 -1404240912 1348480600 914054941 72901895 1197314479 -951201160 -1761937691 -1380938296 1602637938 1289321809 -1786309310 646422044 572824302 2044396356 -1769776907 791436290 -1478477263 237958451 1923065066 -1187042867 1174437832
REM
CELL 1.54180   50.00000   50.00000   50.00000   90.00000   90.00000   90.00000
LATT -1
SFAC C  
C      1  0.4019780000000  0.4492920000000  0.4606640000000 1.0
C      1  0.4156510000000  0.5625420000000  0.5361730000000 1.0
C      1  0.4019680000000  0.4492780000000  0.5392910000000 1.0
C      1  0.4156600000000  0.5625540000000  0.4638260000000 1.0
C      1  0.4104290000000  0.5350430000000  0.4628700000000 1.0
C      1  0.4054500000000  0.4762880000000  0.5382780000000 1.0
C      1  0.4104190000000  0.5350300000000  0.5371190000000 1.0
C      1  0.4054600000000  0.4763020000000  0.4616890000000 1.0
C      1  0.5298450000000  0.5096520000000  0.5319870000000 1.0
C      1  0.5304810000000  0.4824240000000  0.4736970000000 1.0
C      1  0.5298540000000  0.5096630000000  0.4680240000000 1.0
C      1  0.5304740000000  0.4824140000000  0.5263050000000 1.0
C      1  0.5238290000000  0.4185240000000  0.4525560000000 1.0
C      1  0.5300730000000  0.5822010000000  0.5352790000000 1.0
C      1  0.5238160000000  0.4185080000000  0.5474220000000 1.0
C      1  0.5300820000000  0.5822140000000  0.4647580000000 1.0
C      1  0.4561910000000  0.3935460000000  0.4651690000000 1.0
C      1  0.4555610000000  0.5897360000000  0.5143810000000 1.0
C      1  0.4561810000000  0.3935330000000  0.5347820000000 1.0
C      1  0.4555650000000  0.5897410000000  0.4856390000000 1.0
C      1  0.5697040000000  0.4936710000000  0.4228930000000 1.0
C      1  0.5865380000000  0.5018290000000  0.5573100000000 1.0
C      1  0.5696840000000  0.4936440000000  0.5771240000000 1.0
C      1  0.5865530000000  0.5018490000000  0.4427140000000 1.0
C      1  0.4435070000000  0.3841980000000  0.4866450000000 1.0
C      1  0.4323360000000  0.5819400000000  0.5283020000000 1.0
C      1  0.4435030000000  0.3841940000000  0.5132990000000 1.0
C      1  0.4323430000000  0.5819500000000  0.4717090000000 1.0
C      1  0.4729180000000  0.4696670000000  0.5330580000000 1.0
C      1  0.4745910000000  0.5314190000000  0.4669890000000 1.0
C      1  0.4729270000000  0.4696790000000  0.4669240000000 1.0
C      1  0.4745820000000  0.5314070000000  0.5330150000000 1.0
C      1  0.5412000000000  0.6278270000000  0.4866460000000 1.0
C      1  0.5653190000000  0.3735590000000  0.5133240000000 1.0
C      1  0.5411960000000  0.6278220000000  0.5134100000000 1.0
C      1  0.5653220000000  0.3735630000000  0.4866490000000 1.0
C      1  0.5184010000000  0.4899210000000  0.4087550000000 1.0
C      1  0.5419430000000  0.5454220000000  0.5629530000000 1.0
C      1  0.5183760000000  0.4898890000000  0.5912460000000 1.0
C      1  0.5419600000000  0.5454440000000  0.4370740000000 1.0
C      1  0.5822090000000  0.4565370000000  0.4720650000000 1.0
C      1  0.5826660000000  0.5299950000000  0.5145730000000 1.0
C      1  0.5822010000000  0.4565270000000  0.5279410000000 1.0
C      1  0.5826700000000  0.5300000000000  0.4854600000000 1.0
C      1  0.5157820000000  0.4621590000000  0.4860160000000 1.0
C      1  0.5179590000000  0.5280290000000  0.5141030000000 1.0
C      1  0.5157780000000  0.4621540000000  0.5139740000000 1.0
C      1  0.5179620000000  0.5280340000000  0.4859120000000 1.0
C      1  0.4734730000000  0.5153100000000  0.5567270000000 1.0
C      1  0.4792620000000  0.4870190000000  0.4445850000000 1.0
C      1  0.4734880000000  0.5153300000000  0.4432720000000 1.0
C      1  0.4792470000000  0.4869990000000  0.5554050000000 1.0
C      1  0.5510900000000  0.4146730000000  0.4580410000000 1.0
C      1  0.5500530000000  0.5631610000000  0.5426640000000 1.0
C      1  0.5510780000000  0.4146590000000  0.5419430000000 1.0
C      1  0.5500650000000  0.5631760000000  0.4573720000000 1.0
C      1  0.5874170000000  0.4806030000000  0.4858260000000 1.0
C      1  0.5876830000000  0.5052510000000  0.5290010000000 1.0
C      1  0.5874130000000  0.4805980000000  0.5141910000000 1.0
C      1  0.5876910000000  0.5052610000000  0.4710240000000 1.0
C      1  0.4807080000000  0.5894140000000  0.5273340000000 1.0
C      1  0.4760050000000  0.4085090000000  0.4556490000000 1.0
C      1  0.4807150000000  0.5894240000000  0.4726920000000 1.0
C      1  0.4759930000000  0.4084940000000  0.5443120000000 1.0
C      1  0.5419600000000  0.4991610000000  0.4218970000000 1.0
C      1  0.5357900000000  0.5186040000000  0.5583000000000 1.0
C      1  0.5419390000000  0.4991330000000  0.5781140000000 1.0
C      1  0.5358050000000  0.5186250000000  0.4417160000000 1.0
C      1  0.4299000000000  0.5173720000000  0.5259230000000 1.0
C      1  0.4284140000000  0.4885690000000  0.4733940000000 1.0
C      1  0.4299070000000  0.5173810000000  0.4740640000000 1.0
C      1  0.4284070000000  0.4885590000000  0.5265820000000 1.0
C      1  0.4985000000000  0.5449410000000  0.5264240000000 1.0
C      1  0.4938180000000  0.4509110000000  0.4721160000000 1.0
C      1  0.4985070000000  0.5449500000000  0.4735920000000 1.0
C      1  0.4938100000000  0.4509010000000  0.5278650000000 1.0
C      1  0.3883360000000  0.5215930000000  0.5483470000000 1.0
C      1  0.3864140000000  0.4945790000000  0.4512540000000 1.0
C      1  0.3883490000000  0.5216100000000  0.4516300000000 1.0
C      1  0.3864000000000  0.4945620000000  0.5487140000000 1.0
C      1  0.5069180000000  0.5069700000000  0.3890390000000 1.0
C      1  0.4862470000000  0.5237080000000  0.6055560000000 1.0
C      1  0.5068880000000  0.5069310000000  0.6109650000000 1.0
C      1  0.4862750000000  0.5237460000000  0.3944490000000 1.0
C      1  0.5599550000000  0.3891870000000  0.4657250000000 1.0
C      1  0.5366140000000  0.6091800000000  0.5319710000000 1.0
C      1  0.5599460000000  0.3891750000000  0.5342520000000 1.0
C      1  0.5366220000000  0.6091910000000  0.4680770000000 1.0
C      1  0.5686120000000  0.4364080000000  0.5389060000000 1.0
C      1  0.5716930000000  0.5531550000000  0.4728000000000 1.0
C      1  0.5686230000000  0.4364220000000  0.4610900000000 1.0
C      1  0.5716860000000  0.5531460000000  0.5272380000000 1.0
C      1  0.4511250000000  0.4747520000000  0.4852180000000 1.0
C      1  0.4536440000000  0.5282140000000  0.5142440000000 1.0
C      1  0.4511210000000  0.4747470000000  0.5147590000000 1.0
C      1  0.4536480000000  0.5282190000000  0.4857530000000 1.0
C      1  0.4984860000000  0.4776480000000  0.5746210000000 1.0
C      1  0.4725810000000  0.5270230000000  0.4175030000000 1.0
C      1  0.4985060000000  0.4776740000000  0.4253710000000 1.0
C      1  0.4725580000000  0.5269940000000  0.5824990000000 1.0
C      1  0.4975090000000  0.4259150000000  0.5407810000000 1.0
C      1  0.5032480000000  0.5727660000000  0.4694330000000 1.0
C      1  0.4975200000000  0.4259290000000  0.4591920000000 1.0
C      1  0.5032400000000  0.5727550000000  0.5305940000000 1.0
END
