TITL C-3623285-6872-291 -4.15443427014738e-07 125000 -375.84423955126 0 0 60 (C1) n - 1
REM
REM in /home/nfs/bkarasulu/CARBON/AIRSS/Generating-Clusters/LCBOP/Higher-Symm/SD-CG/FIRE-CG
REM
REM
REM
REM
REM
REM ./C.cell (b20cbc046b6831c77cfcea5457e17084)
REM AIRSS Version 0.9.1 bugfix July 2018 build 013d7b7c2542+ Fri, 06 Jul 2018 19:26:36 +0100
REM compiler GCC version 9.2.1 20190827 (Red Hat 9.2.1-1)
REM options -cpp -mtune=generic -march=x86-64 -g -O0 -fpre-include=/usr/include/finclude/math-vector-fortran.h
REM seed -1975176927 -602495230 604809754 -2061615469 1926348682 320872039 -11644495 -1658588229 314513368 1538734010 -1531134406 690672032 -1514739928 1463689317 705903130 -1383298498 -774042981 -1165720736 -1939612334 855369637 -1702204959 -436050777 -1871068813 -1278777066 76198173 -1685115877 -84760395 -1654070721 -1564573043 1120849547 -577185478 -1268209949 825486513
REM
CELL 1.54180   50.00000   50.00000   50.00000   90.00000   90.00000   90.00000
LATT -1
SFAC C  
C      1  0.5246180000000  0.5590690000000  0.4834010000000 1.0
C      1  0.4980780000000  0.4457160000000  0.4728430000000 1.0
C      1  0.4748570000000  0.5619300000000  0.4847740000000 1.0
C      1  0.4756240000000  0.4438420000000  0.5177930000000 1.0
C      1  0.5003980000000  0.5564820000000  0.5275130000000 1.0
C      1  0.5254160000000  0.4391780000000  0.5142310000000 1.0
C      1  0.5349640000000  0.4690320000000  0.4520730000000 1.0
C      1  0.4751990000000  0.5373640000000  0.4435790000000 1.0
C      1  0.4323880000000  0.4539630000000  0.5055970000000 1.0
C      1  0.4630300000000  0.5333240000000  0.5477070000000 1.0
C      1  0.5369650000000  0.4474920000000  0.5579800000000 1.0
C      1  0.5663720000000  0.5446000000000  0.4959060000000 1.0
C      1  0.4754070000000  0.5638820000000  0.5129990000000 1.0
C      1  0.5006530000000  0.4399190000000  0.5305320000000 1.0
C      1  0.5250160000000  0.5566860000000  0.5131200000000 1.0
C      1  0.5233680000000  0.4373780000000  0.4860840000000 1.0
C      1  0.5005660000000  0.5668950000000  0.4705990000000 1.0
C      1  0.4741360000000  0.4439290000000  0.4881060000000 1.0
C      1  0.5051900000000  0.4636520000000  0.4497580000000 1.0
C      1  0.4575720000000  0.5446890000000  0.4673390000000 1.0
C      1  0.4502210000000  0.4556350000000  0.5283890000000 1.0
C      1  0.4922990000000  0.5400390000000  0.5510970000000 1.0
C      1  0.5478120000000  0.4497910000000  0.5309880000000 1.0
C      1  0.5489630000000  0.5453690000000  0.4725200000000 1.0
C      1  0.5524660000000  0.5236410000000  0.5392800000000 1.0
C      1  0.5720880000000  0.4863790000000  0.4776360000000 1.0
C      1  0.5132250000000  0.5175170000000  0.4226230000000 1.0
C      1  0.4452300000000  0.4743170000000  0.4620830000000 1.0
C      1  0.4270370000000  0.5142880000000  0.5222190000000 1.0
C      1  0.4944330000000  0.4713690000000  0.5682980000000 1.0
C      1  0.4496310000000  0.4993880000000  0.4745500000000 1.0
C      1  0.4528870000000  0.5056450000000  0.5357960000000 1.0
C      1  0.5037280000000  0.4952700000000  0.5562040000000 1.0
C      1  0.5488370000000  0.4978790000000  0.5268350000000 1.0
C      1  0.5461030000000  0.4955120000000  0.4652250000000 1.0
C      1  0.4911910000000  0.5102910000000  0.4421220000000 1.0
C      1  0.5380050000000  0.5273600000000  0.5636200000000 1.0
C      1  0.5793250000000  0.4738330000000  0.5005120000000 1.0
C      1  0.5383210000000  0.5259300000000  0.4276290000000 1.0
C      1  0.4585860000000  0.4722420000000  0.4371200000000 1.0
C      1  0.4215450000000  0.5272680000000  0.4989040000000 1.0
C      1  0.4661670000000  0.4714370000000  0.5712060000000 1.0
C      1  0.5513640000000  0.5453330000000  0.5206830000000 1.0
C      1  0.5436980000000  0.4452710000000  0.4672220000000 1.0
C      1  0.4941150000000  0.5599730000000  0.4433970000000 1.0
C      1  0.4469460000000  0.4526880000000  0.4804890000000 1.0
C      1  0.4543180000000  0.5560350000000  0.5309930000000 1.0
C      1  0.5078830000000  0.4483270000000  0.5580680000000 1.0
C      1  0.4505220000000  0.4771260000000  0.5479690000000 1.0
C      1  0.5100970000000  0.5217870000000  0.5640950000000 1.0
C      1  0.5629060000000  0.4730950000000  0.5234990000000 1.0
C      1  0.5493650000000  0.5236450000000  0.4534400000000 1.0
C      1  0.4857870000000  0.4805480000000  0.4363560000000 1.0
C      1  0.4381400000000  0.5253940000000  0.4760570000000 1.0
C      1  0.5243680000000  0.4971920000000  0.5121070000000 1.0
C      1  0.5229350000000  0.5009510000000  0.4843760000000 1.0
C      1  0.4977570000000  0.5069490000000  0.4725910000000 1.0
C      1  0.4746950000000  0.5011260000000  0.4883120000000 1.0
C      1  0.4760150000000  0.5002470000000  0.5160330000000 1.0
C      1  0.5011700000000  0.4948890000000  0.5275290000000 1.0
END
