TITL C-3623287-7182-1972 3.3595035357008e-07 125000 -1159.83361151976 0 0 186 (C1) n - 1
REM
REM in /home/nfs/bkarasulu/CARBON/AIRSS/Generating-Clusters/LCBOP/Higher-Symm/SD-CG/FIRE-CG
REM
REM
REM
REM
REM
REM ./C.cell (b20cbc046b6831c77cfcea5457e17084)
REM AIRSS Version 0.9.1 bugfix July 2018 build 013d7b7c2542+ Fri, 06 Jul 2018 19:26:36 +0100
REM compiler GCC version 9.2.1 20190827 (Red Hat 9.2.1-1)
REM options -cpp -mtune=generic -march=x86-64 -g -O0 -fpre-include=/usr/include/finclude/math-vector-fortran.h
REM seed 1231165658 -1671578536 1686411394 1944085443 1112997427 520183850 813484694 -1678831040 -1387459631 228037342 1263973382 -1747683268 -1130930047 -1167398245 -1197455967 -473614783 1966954516 -75292294 575000040 -867081189 -1999205751 -754729705 -1472306007 -1878803069 -1889154624 -1578574261 -666439139 -1801834142 -2059344788 -1963835697 -1694605862 1456437710 779450591
REM
CELL 1.54180   50.00000   50.00000   50.00000   90.00000   90.00000   90.00000
LATT -1
SFAC C  
C      1  0.4775880000000  0.5544930000000  0.4409800000000 1.0
C      1  0.5406310000000  0.5136770000000  0.5650820000000 1.0
C      1  0.5181290000000  0.4502000000000  0.4389940000000 1.0
C      1  0.4439150000000  0.4781830000000  0.5590910000000 1.0
C      1  0.6794910000000  0.4542210000000  0.5099530000000 1.0
C      1  0.4476700000000  0.3341400000000  0.4896500000000 1.0
C      1  0.3577400000000  0.5644170000000  0.5606430000000 1.0
C      1  0.5547790000000  0.6679360000000  0.4765230000000 1.0
C      1  0.4605440000000  0.3982210000000  0.4556800000000 1.0
C      1  0.3916230000000  0.5307290000000  0.5155130000000 1.0
C      1  0.5326320000000  0.5967410000000  0.4710610000000 1.0
C      1  0.6047870000000  0.4705560000000  0.5262790000000 1.0
C      1  0.4141790000000  0.3909880000000  0.4781690000000 1.0
C      1  0.3916420000000  0.5823120000000  0.5087670000000 1.0
C      1  0.5815970000000  0.6080600000000  0.4878260000000 1.0
C      1  0.6183690000000  0.4256780000000  0.5085400000000 1.0
C      1  0.5595110000000  0.4040110000000  0.4570650000000 1.0
C      1  0.3969000000000  0.4406520000000  0.5386550000000 1.0
C      1  0.4466270000000  0.5939390000000  0.4487300000000 1.0
C      1  0.5998740000000  0.5519900000000  0.5446510000000 1.0
C      1  0.4532660000000  0.4440390000000  0.4519460000000 1.0
C      1  0.4412860000000  0.5498830000000  0.5175230000000 1.0
C      1  0.5534690000000  0.5503980000000  0.4555350000000 1.0
C      1  0.5531860000000  0.4533540000000  0.5324660000000 1.0
C      1  0.6675370000000  0.4322760000000  0.5004680000000 1.0
C      1  0.4228800000000  0.3437180000000  0.4923800000000 1.0
C      1  0.3682830000000  0.5874310000000  0.5516430000000 1.0
C      1  0.5769670000000  0.6576040000000  0.4873870000000 1.0
C      1  0.3625140000000  0.4658740000000  0.5611260000000 1.0
C      1  0.4731460000000  0.6302460000000  0.4299620000000 1.0
C      1  0.6399210000000  0.5303220000000  0.5620200000000 1.0
C      1  0.5267810000000  0.3706930000000  0.4439010000000 1.0
C      1  0.5748400000000  0.5652860000000  0.5455680000000 1.0
C      1  0.5734240000000  0.4291520000000  0.4530180000000 1.0
C      1  0.4212970000000  0.4256640000000  0.5400970000000 1.0
C      1  0.4303840000000  0.5698510000000  0.4482720000000 1.0
C      1  0.4722490000000  0.4965540000000  0.4880300000000 1.0
C      1  0.4941500000000  0.5262970000000  0.5196160000000 1.0
C      1  0.5221350000000  0.5070780000000  0.4846860000000 1.0
C      1  0.5035570000000  0.4643920000000  0.5164670000000 1.0
C      1  0.4483820000000  0.4953290000000  0.4721990000000 1.0
C      1  0.4966300000000  0.5529280000000  0.5301010000000 1.0
C      1  0.5478070000000  0.5058300000000  0.4736750000000 1.0
C      1  0.4959630000000  0.4401500000000  0.5303270000000 1.0
C      1  0.4848680000000  0.4281780000000  0.5765250000000 1.0
C      1  0.4261600000000  0.5007570000000  0.4250080000000 1.0
C      1  0.5087880000000  0.5751440000000  0.5743810000000 1.0
C      1  0.5661500000000  0.5011490000000  0.4290670000000 1.0
C      1  0.5651630000000  0.4906110000000  0.4907000000000 1.0
C      1  0.4848070000000  0.4242280000000  0.5075030000000 1.0
C      1  0.4275360000000  0.5075990000000  0.4866990000000 1.0
C      1  0.5123880000000  0.5658600000000  0.5094570000000 1.0
C      1  0.5665390000000  0.5767340000000  0.5209170000000 1.0
C      1  0.5826360000000  0.4402670000000  0.4780370000000 1.0
C      1  0.4310340000000  0.4153390000000  0.5156130000000 1.0
C      1  0.4182480000000  0.5631700000000  0.4732150000000 1.0
C      1  0.6151590000000  0.4877290000000  0.4803040000000 1.0
C      1  0.4959700000000  0.3806130000000  0.5347620000000 1.0
C      1  0.3775270000000  0.5091310000000  0.4733790000000 1.0
C      1  0.5166830000000  0.6134650000000  0.5163540000000 1.0
C      1  0.4713060000000  0.4239210000000  0.4600330000000 1.0
C      1  0.4200470000000  0.5299210000000  0.5243700000000 1.0
C      1  0.5305270000000  0.5677870000000  0.4653390000000 1.0
C      1  0.5765390000000  0.4708990000000  0.5319350000000 1.0
C      1  0.5350080000000  0.5469730000000  0.6044530000000 1.0
C      1  0.5420560000000  0.4694850000000  0.3996470000000 1.0
C      1  0.4522530000000  0.4529460000000  0.6011030000000 1.0
C      1  0.4531260000000  0.5279840000000  0.3941070000000 1.0
C      1  0.4384550000000  0.4596120000000  0.6241980000000 1.0
C      1  0.4623580000000  0.5403490000000  0.3713150000000 1.0
C      1  0.5461970000000  0.5399110000000  0.6287930000000 1.0
C      1  0.5318090000000  0.4608660000000  0.3753620000000 1.0
C      1  0.5671610000000  0.4949900000000  0.5202790000000 1.0
C      1  0.4928330000000  0.4293090000000  0.4787900000000 1.0
C      1  0.4278540000000  0.5033230000000  0.5161470000000 1.0
C      1  0.5065580000000  0.5607340000000  0.4811190000000 1.0
C      1  0.5396340000000  0.5731100000000  0.5138490000000 1.0
C      1  0.5647700000000  0.4620180000000  0.4836930000000 1.0
C      1  0.4586460000000  0.4132650000000  0.5107220000000 1.0
C      1  0.4191220000000  0.5347250000000  0.4788220000000 1.0
C      1  0.5545110000000  0.4947630000000  0.4035730000000 1.0
C      1  0.4793930000000  0.4442390000000  0.6003240000000 1.0
C      1  0.4351520000000  0.5051090000000  0.3976760000000 1.0
C      1  0.5109920000000  0.5623990000000  0.6013940000000 1.0
C      1  0.4252750000000  0.4663940000000  0.6456310000000 1.0
C      1  0.4724510000000  0.5527000000000  0.3507090000000 1.0
C      1  0.5566700000000  0.5327640000000  0.6515590000000 1.0
C      1  0.5209520000000  0.4528210000000  0.3530800000000 1.0
C      1  0.6042910000000  0.5619040000000  0.4967410000000 1.0
C      1  0.5734260000000  0.4022420000000  0.5047800000000 1.0
C      1  0.3982330000000  0.4400360000000  0.4902060000000 1.0
C      1  0.4384040000000  0.6010150000000  0.4963320000000 1.0
C      1  0.4727890000000  0.5057230000000  0.4316360000000 1.0
C      1  0.4834720000000  0.5368850000000  0.5755560000000 1.0
C      1  0.5231040000000  0.5236060000000  0.4326730000000 1.0
C      1  0.5124310000000  0.4681320000000  0.5739110000000 1.0
C      1  0.4140900000000  0.5852640000000  0.4912780000000 1.0
C      1  0.5869890000000  0.5844330000000  0.5030120000000 1.0
C      1  0.5933830000000  0.4211210000000  0.4961140000000 1.0
C      1  0.4118680000000  0.4144260000000  0.4944540000000 1.0
C      1  0.4868510000000  0.5462690000000  0.6026310000000 1.0
C      1  0.5192590000000  0.5475310000000  0.4176440000000 1.0
C      1  0.5018880000000  0.4623260000000  0.6010650000000 1.0
C      1  0.4808810000000  0.4804980000000  0.4157240000000 1.0
C      1  0.4952530000000  0.4595800000000  0.4249600000000 1.0
C      1  0.4647770000000  0.4947020000000  0.5681320000000 1.0
C      1  0.4992380000000  0.5644610000000  0.4249210000000 1.0
C      1  0.5150470000000  0.4970600000000  0.5688860000000 1.0
C      1  0.4647020000000  0.4123300000000  0.5640550000000 1.0
C      1  0.4106640000000  0.5236540000000  0.4340910000000 1.0
C      1  0.5320490000000  0.5850780000000  0.5612470000000 1.0
C      1  0.5815730000000  0.4783740000000  0.4395430000000 1.0
C      1  0.6151290000000  0.4918620000000  0.5084950000000 1.0
C      1  0.5157360000000  0.3799970000000  0.5162650000000 1.0
C      1  0.3806590000000  0.5066880000000  0.5018060000000 1.0
C      1  0.5108100000000  0.6094040000000  0.4878110000000 1.0
C      1  0.5298710000000  0.3794650000000  0.4913950000000 1.0
C      1  0.3768890000000  0.4823220000000  0.5173860000000 1.0
C      1  0.4850860000000  0.6160440000000  0.4745690000000 1.0
C      1  0.6235770000000  0.5173630000000  0.5189360000000 1.0
C      1  0.3528040000000  0.5381490000000  0.5589750000000 1.0
C      1  0.5308180000000  0.6663710000000  0.4648170000000 1.0
C      1  0.6787300000000  0.4778010000000  0.5224040000000 1.0
C      1  0.4733120000000  0.3361600000000  0.4826740000000 1.0
C      1  0.4273210000000  0.4506520000000  0.4512540000000 1.0
C      1  0.4457780000000  0.5730490000000  0.5334340000000 1.0
C      1  0.5808090000000  0.5573980000000  0.4543920000000 1.0
C      1  0.5557890000000  0.4273880000000  0.5430620000000 1.0
C      1  0.5404240000000  0.5293520000000  0.5216530000000 1.0
C      1  0.5372670000000  0.4529060000000  0.4858350000000 1.0
C      1  0.4555720000000  0.4650340000000  0.5155400000000 1.0
C      1  0.4606810000000  0.5455050000000  0.4937170000000 1.0
C      1  0.5460720000000  0.5398490000000  0.5788680000000 1.0
C      1  0.5424190000000  0.4533940000000  0.4236340000000 1.0
C      1  0.4405790000000  0.4538430000000  0.5745820000000 1.0
C      1  0.4600740000000  0.5354140000000  0.4236820000000 1.0
C      1  0.5081890000000  0.6554660000000  0.4557600000000 1.0
C      1  0.6670250000000  0.4991570000000  0.5332560000000 1.0
C      1  0.4964490000000  0.3466910000000  0.4747760000000 1.0
C      1  0.3537250000000  0.5127200000000  0.5507270000000 1.0
C      1  0.4400390000000  0.4280170000000  0.5610820000000 1.0
C      1  0.4309820000000  0.5458590000000  0.4324640000000 1.0
C      1  0.5534290000000  0.5642870000000  0.5638470000000 1.0
C      1  0.5682930000000  0.4517150000000  0.4357190000000 1.0
C      1  0.3810520000000  0.5559490000000  0.5091910000000 1.0
C      1  0.5588490000000  0.6067350000000  0.4709070000000 1.0
C      1  0.6178760000000  0.4459730000000  0.5282140000000 1.0
C      1  0.4349530000000  0.3905160000000  0.4588910000000 1.0
C      1  0.4800310000000  0.4745980000000  0.5039510000000 1.0
C      1  0.4739670000000  0.5210900000000  0.5016850000000 1.0
C      1  0.5183760000000  0.5182230000000  0.5094460000000 1.0
C      1  0.5312250000000  0.4595570000000  0.5131110000000 1.0
C      1  0.5168420000000  0.4431930000000  0.4677420000000 1.0
C      1  0.4383720000000  0.4812570000000  0.5309760000000 1.0
C      1  0.4792050000000  0.5555270000000  0.4711800000000 1.0
C      1  0.5538580000000  0.5122630000000  0.5389720000000 1.0
C      1  0.3791120000000  0.4446710000000  0.5600630000000 1.0
C      1  0.4546090000000  0.6105690000000  0.4272330000000 1.0
C      1  0.6180260000000  0.5460450000000  0.5654920000000 1.0
C      1  0.5458320000000  0.3888470000000  0.4375480000000 1.0
C      1  0.5651170000000  0.4048870000000  0.5315790000000 1.0
C      1  0.4045980000000  0.4517400000000  0.4654650000000 1.0
C      1  0.4472450000000  0.5980360000000  0.5230240000000 1.0
C      1  0.6029670000000  0.5552880000000  0.4694890000000 1.0
C      1  0.5897210000000  0.6345170000000  0.4929080000000 1.0
C      1  0.6439710000000  0.4195000000000  0.4988830000000 1.0
C      1  0.4076630000000  0.3654840000000  0.4883300000000 1.0
C      1  0.3824310000000  0.5973090000000  0.5307840000000 1.0
C      1  0.6040430000000  0.4830740000000  0.4562300000000 1.0
C      1  0.4756130000000  0.3897970000000  0.5502540000000 1.0
C      1  0.3876000000000  0.5181640000000  0.4497960000000 1.0
C      1  0.5265290000000  0.6055830000000  0.5410000000000 1.0
C      1  0.3898390000000  0.4550660000000  0.5137950000000 1.0
C      1  0.4574590000000  0.6037580000000  0.4747660000000 1.0
C      1  0.6094010000000  0.5430290000000  0.5181740000000 1.0
C      1  0.5544930000000  0.3941220000000  0.4847510000000 1.0
C      1  0.4923290000000  0.5577080000000  0.5573690000000 1.0
C      1  0.5494420000000  0.5202130000000  0.4471820000000 1.0
C      1  0.5015720000000  0.4437010000000  0.5583720000000 1.0
C      1  0.4476060000000  0.4949450000000  0.4442360000000 1.0
C      1  0.5174080000000  0.3645470000000  0.4698880000000 1.0
C      1  0.3625720000000  0.4872140000000  0.5426260000000 1.0
C      1  0.4886410000000  0.6355580000000  0.4530900000000 1.0
C      1  0.6452330000000  0.5159150000000  0.5382100000000 1.0
C      1  0.4883280000000  0.5097900000000  0.5699810000000 1.0
C      1  0.4995350000000  0.5120780000000  0.4426030000000 1.0
END
