TITL C-3623288-6813-1104 2237.67455199476 125000 -756.991628095069 0 0 120 (C1) n - 1
REM
REM in /home/nfs/bkarasulu/CARBON/AIRSS/Generating-Clusters/LCBOP/Higher-Symm/SD-CG/FIRE-CG
REM
REM
REM
REM
REM
REM ./C.cell (b20cbc046b6831c77cfcea5457e17084)
REM AIRSS Version 0.9.1 bugfix July 2018 build 013d7b7c2542+ Fri, 06 Jul 2018 19:26:36 +0100
REM compiler GCC version 9.2.1 20190827 (Red Hat 9.2.1-1)
REM options -cpp -mtune=generic -march=x86-64 -g -O0 -fpre-include=/usr/include/finclude/math-vector-fortran.h
REM seed 297296334 -1222850820 1013288494 1142348772 613382487 1648909371 -1050233205 -621471435 -2056491652 -1097365861 1473754059 1860365861 -963989715 -2082128986 1988849694 -193402286 1076459152 221750248 -968196907 2076786658 2036263862 -852957297 674689153 -471794025 -410462185 1465493292 894898452 733726855 151025285 -2105184359 2094357836 1221178307 -1489596846
REM
CELL 1.54180   50.00000   50.00000   50.00000   90.00000   90.00000   90.00000
LATT -1
SFAC C  
C      1  0.5907080000000  0.4626540000000  0.4664090000000 1.0
C      1  0.4101800000000  0.5246330000000  0.4717830000000 1.0
C      1  0.5881230000000  0.4666050000000  0.5247770000000 1.0
C      1  0.4089210000000  0.5252920000000  0.5294340000000 1.0
C      1  0.5871140000000  0.5234940000000  0.4706220000000 1.0
C      1  0.4066540000000  0.4642420000000  0.4688460000000 1.0
C      1  0.5886070000000  0.5265490000000  0.5291270000000 1.0
C      1  0.4106860000000  0.4654060000000  0.5260590000000 1.0
C      1  0.5252890000000  0.6131700000000  0.4136550000000 1.0
C      1  0.4851470000000  0.4688400000000  0.4125450000000 1.0
C      1  0.5245690000000  0.6149310000000  0.5880410000000 1.0
C      1  0.4732780000000  0.4703330000000  0.6002360000000 1.0
C      1  0.5119870000000  0.4695890000000  0.4089720000000 1.0
C      1  0.5374650000000  0.6273450000000  0.3954900000000 1.0
C      1  0.4802370000000  0.4630100000000  0.6242430000000 1.0
C      1  0.5368920000000  0.6294340000000  0.6058460000000 1.0
C      1  0.5300720000000  0.4250290000000  0.5424780000000 1.0
C      1  0.4675380000000  0.5804650000000  0.5506970000000 1.0
C      1  0.5275760000000  0.4054990000000  0.4488240000000 1.0
C      1  0.4688720000000  0.5809100000000  0.4535070000000 1.0
C      1  0.5268760000000  0.5832570000000  0.5501470000000 1.0
C      1  0.4733200000000  0.4196170000000  0.5431270000000 1.0
C      1  0.5278170000000  0.5804690000000  0.4506470000000 1.0
C      1  0.4674820000000  0.4075040000000  0.4506500000000 1.0
C      1  0.5133810000000  0.4347020000000  0.5641450000000 1.0
C      1  0.4836780000000  0.5960650000000  0.5679100000000 1.0
C      1  0.5105840000000  0.3878310000000  0.4344000000000 1.0
C      1  0.4847140000000  0.5960820000000  0.4357260000000 1.0
C      1  0.5121350000000  0.5986140000000  0.5692860000000 1.0
C      1  0.4897380000000  0.4192890000000  0.5664540000000 1.0
C      1  0.5130140000000  0.5971040000000  0.4327250000000 1.0
C      1  0.4831730000000  0.3889350000000  0.4356950000000 1.0
C      1  0.5128730000000  0.5691420000000  0.4723150000000 1.0
C      1  0.4834050000000  0.4241240000000  0.4675080000000 1.0
C      1  0.5110380000000  0.5717640000000  0.5290900000000 1.0
C      1  0.4867320000000  0.4327570000000  0.5211220000000 1.0
C      1  0.5120780000000  0.4221690000000  0.4660230000000 1.0
C      1  0.4840500000000  0.5681470000000  0.4740240000000 1.0
C      1  0.5162510000000  0.4332750000000  0.5187750000000 1.0
C      1  0.4826710000000  0.5673520000000  0.5305750000000 1.0
C      1  0.4391860000000  0.5498900000000  0.4304750000000 1.0
C      1  0.5583410000000  0.4370830000000  0.4271610000000 1.0
C      1  0.4360840000000  0.5501840000000  0.5719980000000 1.0
C      1  0.5660360000000  0.4398710000000  0.5685190000000 1.0
C      1  0.4388390000000  0.4395650000000  0.4291620000000 1.0
C      1  0.5590150000000  0.5489710000000  0.4281300000000 1.0
C      1  0.4370600000000  0.4388710000000  0.5671480000000 1.0
C      1  0.5582660000000  0.5503220000000  0.5705820000000 1.0
C      1  0.4410080000000  0.4173760000000  0.4467910000000 1.0
C      1  0.5543060000000  0.5697740000000  0.4470540000000 1.0
C      1  0.4452160000000  0.4213940000000  0.5463380000000 1.0
C      1  0.5535120000000  0.5717190000000  0.5521270000000 1.0
C      1  0.4425760000000  0.5708380000000  0.4494190000000 1.0
C      1  0.5545960000000  0.4156490000000  0.4457530000000 1.0
C      1  0.4407440000000  0.5711500000000  0.5533590000000 1.0
C      1  0.5576540000000  0.4227170000000  0.5473860000000 1.0
C      1  0.4115120000000  0.4402540000000  0.4830660000000 1.0
C      1  0.5826900000000  0.5479540000000  0.4850400000000 1.0
C      1  0.4140460000000  0.4413090000000  0.5112590000000 1.0
C      1  0.5825310000000  0.5495380000000  0.5137290000000 1.0
C      1  0.4136700000000  0.5488110000000  0.4863700000000 1.0
C      1  0.5850690000000  0.4397100000000  0.4819800000000 1.0
C      1  0.4132630000000  0.5492120000000  0.5148780000000 1.0
C      1  0.5855380000000  0.4419440000000  0.5103790000000 1.0
C      1  0.4749390000000  0.5182310000000  0.5288450000000 1.0
C      1  0.5326080000000  0.4795100000000  0.5050880000000 1.0
C      1  0.4772430000000  0.5208150000000  0.4758230000000 1.0
C      1  0.5187340000000  0.5003130000000  0.4918630000000 1.0
C      1  0.4791900000000  0.4852770000000  0.5178100000000 1.0
C      1  0.5249740000000  0.5280060000000  0.5314290000000 1.0
C      1  0.4885230000000  0.4950860000000  0.4878210000000 1.0
C      1  0.5256790000000  0.5231310000000  0.4759700000000 1.0
C      1  0.4730620000000  0.5439660000000  0.5165670000000 1.0
C      1  0.5282280000000  0.4518980000000  0.5003630000000 1.0
C      1  0.4736990000000  0.5454950000000  0.4885910000000 1.0
C      1  0.5242220000000  0.4465880000000  0.4729230000000 1.0
C      1  0.4735950000000  0.4531950000000  0.5067460000000 1.0
C      1  0.5241340000000  0.5506690000000  0.5154700000000 1.0
C      1  0.4742690000000  0.4494580000000  0.4785930000000 1.0
C      1  0.5255130000000  0.5488690000000  0.4877510000000 1.0
C      1  0.4407560000000  0.5218300000000  0.4338600000000 1.0
C      1  0.5576110000000  0.4652340000000  0.4314260000000 1.0
C      1  0.4381820000000  0.5221790000000  0.5685480000000 1.0
C      1  0.5611680000000  0.4675450000000  0.5656340000000 1.0
C      1  0.4414670000000  0.4668460000000  0.4360220000000 1.0
C      1  0.5588580000000  0.5207210000000  0.4311630000000 1.0
C      1  0.4389780000000  0.4669570000000  0.5651560000000 1.0
C      1  0.5592020000000  0.5218610000000  0.5682850000000 1.0
C      1  0.5134460000000  0.5193020000000  0.5559760000000 1.0
C      1  0.4874210000000  0.4740760000000  0.5514790000000 1.0
C      1  0.5150850000000  0.5210950000000  0.4487340000000 1.0
C      1  0.4848080000000  0.4738900000000  0.4631470000000 1.0
C      1  0.5112460000000  0.4636620000000  0.5629320000000 1.0
C      1  0.4850690000000  0.5192070000000  0.5557490000000 1.0
C      1  0.5147850000000  0.4680080000000  0.4559960000000 1.0
C      1  0.4867800000000  0.5218690000000  0.4482990000000 1.0
C      1  0.5777200000000  0.4789090000000  0.4474270000000 1.0
C      1  0.4213980000000  0.5088880000000  0.4511090000000 1.0
C      1  0.5781880000000  0.4816050000000  0.5469470000000 1.0
C      1  0.4203990000000  0.5091730000000  0.5495340000000 1.0
C      1  0.5778600000000  0.5076730000000  0.4486950000000 1.0
C      1  0.4210580000000  0.4804480000000  0.4509210000000 1.0
C      1  0.5780650000000  0.5100220000000  0.5493760000000 1.0
C      1  0.4213680000000  0.4808120000000  0.5473370000000 1.0
C      1  0.4220950000000  0.4184090000000  0.4680440000000 1.0
C      1  0.5723360000000  0.5692340000000  0.4691390000000 1.0
C      1  0.4270990000000  0.4201100000000  0.5248430000000 1.0
C      1  0.5706710000000  0.5707650000000  0.5289970000000 1.0
C      1  0.4240880000000  0.5703350000000  0.4710070000000 1.0
C      1  0.5725340000000  0.4178510000000  0.4681230000000 1.0
C      1  0.4235660000000  0.5706590000000  0.5305660000000 1.0
C      1  0.5757530000000  0.4203520000000  0.5259650000000 1.0
C      1  0.4687920000000  0.4792560000000  0.4356820000000 1.0
C      1  0.5331630000000  0.5081370000000  0.4314980000000 1.0
C      1  0.4649470000000  0.4795810000000  0.5732700000000 1.0
C      1  0.5340680000000  0.5072270000000  0.5712440000000 1.0
C      1  0.4665770000000  0.5093720000000  0.4328960000000 1.0
C      1  0.5303690000000  0.4781810000000  0.4309070000000 1.0
C      1  0.4638010000000  0.5097580000000  0.5723180000000 1.0
C      1  0.5349270000000  0.4787230000000  0.5700640000000 1.0
END
