TITL C-3623283-6828-2057 -6144.39052447518 125000 -615.602739156727 0 0 104 (C1) n - 1
REM
REM in /home/nfs/bkarasulu/CARBON/AIRSS/Generating-Clusters/LCBOP/Higher-Symm/SD-CG/FIRE-CG
REM
REM
REM
REM
REM
REM ./C.cell (b20cbc046b6831c77cfcea5457e17084)
REM AIRSS Version 0.9.1 bugfix July 2018 build 013d7b7c2542+ Fri, 06 Jul 2018 19:26:36 +0100
REM compiler GCC version 9.2.1 20190827 (Red Hat 9.2.1-1)
REM options -cpp -mtune=generic -march=x86-64 -g -O0 -fpre-include=/usr/include/finclude/math-vector-fortran.h
REM seed 903363888 1109481667 -1633636180 -1049186631 1033998699 1319179914 871306341 201437380 328859421 1201192629 1637511249 -506417925 -1233396147 961153298 -178676077 604024951 -1078188638 -2117035732 -1776652429 1659145920 -1382829850 -496284602 -1809580500 864529380 1386870656 1673544459 -465141660 -1195937492 -781952724 174084495 -1575512369 -1808717031 50591603
REM
CELL 1.54180   50.00000   50.00000   50.00000   90.00000   90.00000   90.00000
LATT -1
SFAC C  
C      1  0.5714190000000  0.5093210000000  0.5196700000000 1.0
C      1  0.4907230000000  0.5715050000000  0.4802510000000 1.0
C      1  0.4282950000000  0.4905290000000  0.5198560000000 1.0
C      1  0.5093740000000  0.4286390000000  0.4803030000000 1.0
C      1  0.4661000000000  0.4836340000000  0.5511430000000 1.0
C      1  0.5163360000000  0.4662910000000  0.4488660000000 1.0
C      1  0.5337440000000  0.5163050000000  0.5511350000000 1.0
C      1  0.4837870000000  0.5337710000000  0.4488320000000 1.0
C      1  0.4975090000000  0.3872450000000  0.5037690000000 1.0
C      1  0.6128220000000  0.4975010000000  0.4962130000000 1.0
C      1  0.5025970000000  0.6128050000000  0.5038420000000 1.0
C      1  0.3871600000000  0.5026490000000  0.4961030000000 1.0
C      1  0.5214880000000  0.5618960000000  0.4418940000000 1.0
C      1  0.4380900000000  0.5214210000000  0.5581120000000 1.0
C      1  0.4785790000000  0.4381980000000  0.4419510000000 1.0
C      1  0.5618390000000  0.4785800000000  0.5580400000000 1.0
C      1  0.4611500000000  0.4564260000000  0.5897520000000 1.0
C      1  0.5435910000000  0.4611710000000  0.4102910000000 1.0
C      1  0.5388830000000  0.5436070000000  0.5896490000000 1.0
C      1  0.4563790000000  0.5388940000000  0.4104030000000 1.0
C      1  0.5183610000000  0.5186180000000  0.4186060000000 1.0
C      1  0.4813500000000  0.5182950000000  0.5811960000000 1.0
C      1  0.4816550000000  0.4814410000000  0.4187980000000 1.0
C      1  0.5185820000000  0.4817020000000  0.5813280000000 1.0
C      1  0.4905660000000  0.5098100000000  0.6051280000000 1.0
C      1  0.4901710000000  0.4906180000000  0.3948620000000 1.0
C      1  0.5093220000000  0.4903040000000  0.6052010000000 1.0
C      1  0.5097110000000  0.5093370000000  0.3947580000000 1.0
C      1  0.5099960000000  0.5190760000000  0.4463360000000 1.0
C      1  0.4808340000000  0.5098500000000  0.5534790000000 1.0
C      1  0.4900850000000  0.4809690000000  0.4465210000000 1.0
C      1  0.5190250000000  0.4901050000000  0.5536110000000 1.0
C      1  0.5420390000000  0.5230510000000  0.5215930000000 1.0
C      1  0.4770820000000  0.5421230000000  0.4783410000000 1.0
C      1  0.4575540000000  0.4767180000000  0.5217960000000 1.0
C      1  0.5232260000000  0.4579520000000  0.4783100000000 1.0
C      1  0.4345740000000  0.4557820000000  0.4677970000000 1.0
C      1  0.5441540000000  0.4346740000000  0.5322350000000 1.0
C      1  0.5654050000000  0.5441760000000  0.4677180000000 1.0
C      1  0.4558570000000  0.5653540000000  0.5322450000000 1.0
C      1  0.5733880000000  0.4974370000000  0.4604480000000 1.0
C      1  0.5025810000000  0.5733070000000  0.5395060000000 1.0
C      1  0.4267120000000  0.5025370000000  0.4605450000000 1.0
C      1  0.4974000000000  0.4267010000000  0.5394900000000 1.0
C      1  0.5538390000000  0.4562300000000  0.4847300000000 1.0
C      1  0.5436900000000  0.5536690000000  0.5151750000000 1.0
C      1  0.4464340000000  0.5436280000000  0.4848170000000 1.0
C      1  0.4559940000000  0.4461140000000  0.5153560000000 1.0
C      1  0.4759530000000  0.4850830000000  0.4703900000000 1.0
C      1  0.5148290000000  0.4760820000000  0.5297050000000 1.0
C      1  0.5240700000000  0.5148670000000  0.4702080000000 1.0
C      1  0.4850850000000  0.5239690000000  0.5296440000000 1.0
C      1  0.4080860000000  0.4831370000000  0.4996980000000 1.0
C      1  0.5168830000000  0.4083130000000  0.5002790000000 1.0
C      1  0.5917450000000  0.5168730000000  0.4996970000000 1.0
C      1  0.4831830000000  0.5917740000000  0.5002960000000 1.0
C      1  0.5164480000000  0.5768500000000  0.4658930000000 1.0
C      1  0.4230910000000  0.5163310000000  0.5341460000000 1.0
C      1  0.4836530000000  0.4232900000000  0.4659570000000 1.0
C      1  0.5767760000000  0.4836110000000  0.5340400000000 1.0
C      1  0.4061190000000  0.5349170000000  0.5209230000000 1.0
C      1  0.4651470000000  0.4061380000000  0.4790550000000 1.0
C      1  0.5939260000000  0.4651170000000  0.5209170000000 1.0
C      1  0.5349630000000  0.5939250000000  0.4790860000000 1.0
C      1  0.5253830000000  0.4404150000000  0.4097530000000 1.0
C      1  0.5596530000000  0.5254140000000  0.5901890000000 1.0
C      1  0.4745810000000  0.5596570000000  0.4098060000000 1.0
C      1  0.4403860000000  0.4746270000000  0.5903520000000 1.0
C      1  0.4514750000000  0.4603520000000  0.4448610000000 1.0
C      1  0.5395910000000  0.4515340000000  0.5551600000000 1.0
C      1  0.5485760000000  0.5396540000000  0.4447630000000 1.0
C      1  0.4603790000000  0.5484910000000  0.5551720000000 1.0
C      1  0.5764420000000  0.4723660000000  0.4754920000000 1.0
C      1  0.5276410000000  0.5763120000000  0.5244640000000 1.0
C      1  0.4237660000000  0.5275950000000  0.4755600000000 1.0
C      1  0.4723030000000  0.4235840000000  0.5245000000000 1.0
C      1  0.4459340000000  0.4970250000000  0.4405030000000 1.0
C      1  0.5029180000000  0.4459400000000  0.5595300000000 1.0
C      1  0.5541530000000  0.5029770000000  0.4404000000000 1.0
C      1  0.4970480000000  0.5540690000000  0.5595420000000 1.0
C      1  0.5285830000000  0.6001650000000  0.5064950000000 1.0
C      1  0.3999010000000  0.5285890000000  0.4935030000000 1.0
C      1  0.4714890000000  0.3997970000000  0.5064440000000 1.0
C      1  0.6002460000000  0.4714910000000  0.4935260000000 1.0
C      1  0.5812760000000  0.5216320000000  0.4738270000000 1.0
C      1  0.4783980000000  0.5812360000000  0.5261400000000 1.0
C      1  0.4187310000000  0.4783570000000  0.4738970000000 1.0
C      1  0.5216080000000  0.4188090000000  0.5261330000000 1.0
C      1  0.4886620000000  0.5214560000000  0.5013840000000 1.0
C      1  0.4780230000000  0.4877470000000  0.4986020000000 1.0
C      1  0.5122470000000  0.4788920000000  0.5013250000000 1.0
C      1  0.5212770000000  0.5117280000000  0.4986730000000 1.0
C      1  0.5063180000000  0.4415580000000  0.4308770000000 1.0
C      1  0.5584970000000  0.5063230000000  0.5690820000000 1.0
C      1  0.4937330000000  0.5585210000000  0.4308630000000 1.0
C      1  0.4414400000000  0.4936830000000  0.5692100000000 1.0
C      1  0.4416340000000  0.5585680000000  0.5089350000000 1.0
C      1  0.4411680000000  0.4414040000000  0.4911070000000 1.0
C      1  0.5585060000000  0.4413410000000  0.5089340000000 1.0
C      1  0.5586270000000  0.5584240000000  0.4910340000000 1.0
C      1  0.4795180000000  0.4603650000000  0.5675220000000 1.0
C      1  0.5396460000000  0.4796120000000  0.4324570000000 1.0
C      1  0.5204290000000  0.5396190000000  0.5675030000000 1.0
C      1  0.4604050000000  0.5204300000000  0.4325450000000 1.0
END
