TITL C-3623288-6813-1650 13274.6562871222 125000 -728.097089842708 0 0 122 (C1) n - 1
REM
REM in /home/nfs/bkarasulu/CARBON/AIRSS/Generating-Clusters/LCBOP/Higher-Symm/SD-CG/FIRE-CG
REM
REM
REM
REM
REM
REM ./C.cell (b20cbc046b6831c77cfcea5457e17084)
REM AIRSS Version 0.9.1 bugfix July 2018 build 013d7b7c2542+ Fri, 06 Jul 2018 19:26:36 +0100
REM compiler GCC version 9.2.1 20190827 (Red Hat 9.2.1-1)
REM options -cpp -mtune=generic -march=x86-64 -g -O0 -fpre-include=/usr/include/finclude/math-vector-fortran.h
REM seed -265134297 -1213449163 -2121358424 1197161903 -2049476637 1814321255 228798159 -636173663 623918960 1281860012 -570651257 -1845166979 1497333358 -1893078360 296864727 162734997 1225501417 -2043938968 -876978844 1250618539 -910166143 -725533610 -301944907 -1236713736 1532494924 -425488476 168654675 273199725 1419747942 -519427009 1258069059 1300374590 -2083874209
REM
CELL 1.54180   50.00000   50.00000   50.00000   90.00000   90.00000   90.00000
LATT -1
SFAC C  
C      1  0.4867540000000  0.4300190000000  0.4787690000000 1.0
C      1  0.5287130000000  0.4289550000000  0.4988630000000 1.0
C      1  0.4895150000000  0.4281930000000  0.5253870000000 1.0
C      1  0.5449050000000  0.5176910000000  0.5362390000000 1.0
C      1  0.4454390000000  0.5171270000000  0.5214230000000 1.0
C      1  0.5075780000000  0.5173710000000  0.4420170000000 1.0
C      1  0.4250760000000  0.5534540000000  0.4777360000000 1.0
C      1  0.5560810000000  0.5527840000000  0.4466020000000 1.0
C      1  0.5170370000000  0.5533480000000  0.5758700000000 1.0
C      1  0.4416330000000  0.5643170000000  0.4996210000000 1.0
C      1  0.5289090000000  0.5641230000000  0.4497030000000 1.0
C      1  0.5277950000000  0.5645470000000  0.5507340000000 1.0
C      1  0.5107580000000  0.4830510000000  0.5934520000000 1.0
C      1  0.4127290000000  0.4834670000000  0.4627630000000 1.0
C      1  0.5741080000000  0.4821140000000  0.4456860000000 1.0
C      1  0.4702530000000  0.5134860000000  0.3859100000000 1.0
C      1  0.6120790000000  0.5075090000000  0.5337180000000 1.0
C      1  0.4154790000000  0.5129750000000  0.5818780000000 1.0
C      1  0.5323570000000  0.5294380000000  0.4832940000000 1.0
C      1  0.4968130000000  0.5283630000000  0.5378600000000 1.0
C      1  0.4681680000000  0.5287000000000  0.4788770000000 1.0
C      1  0.4193820000000  0.5215430000000  0.5359770000000 1.0
C      1  0.5082260000000  0.5217160000000  0.4122050000000 1.0
C      1  0.5707150000000  0.5213550000000  0.5510190000000 1.0
C      1  0.4326940000000  0.5519410000000  0.4487190000000 1.0
C      1  0.5771190000000  0.5512900000000  0.4679980000000 1.0
C      1  0.4880340000000  0.5514490000000  0.5834880000000 1.0
C      1  0.4724050000000  0.6276170000000  0.5446780000000 1.0
C      1  0.4744420000000  0.6266960000000  0.4538680000000 1.0
C      1  0.5522330000000  0.6266190000000  0.5010970000000 1.0
C      1  0.4337680000000  0.4581340000000  0.5043480000000 1.0
C      1  0.5277620000000  0.4585570000000  0.4406300000000 1.0
C      1  0.5378240000000  0.4579660000000  0.5553430000000 1.0
C      1  0.4384410000000  0.4844810000000  0.4799690000000 1.0
C      1  0.5460390000000  0.4846120000000  0.4580330000000 1.0
C      1  0.5134210000000  0.4842020000000  0.5627460000000 1.0
C      1  0.4718870000000  0.5612390000000  0.5623710000000 1.0
C      1  0.4590520000000  0.5616920000000  0.4451700000000 1.0
C      1  0.5669140000000  0.5614560000000  0.4924370000000 1.0
C      1  0.5128350000000  0.4669520000000  0.4163630000000 1.0
C      1  0.5661660000000  0.4667600000000  0.5514870000000 1.0
C      1  0.4202170000000  0.4662510000000  0.5295180000000 1.0
C      1  0.4639920000000  0.5047560000000  0.5801800000000 1.0
C      1  0.4471720000000  0.5055250000000  0.4286990000000 1.0
C      1  0.5864650000000  0.5055240000000  0.4911670000000 1.0
C      1  0.4878640000000  0.4070560000000  0.5448970000000 1.0
C      1  0.4579230000000  0.4014470000000  0.4583900000000 1.0
C      1  0.5469720000000  0.4089780000000  0.4893750000000 1.0
C      1  0.4783240000000  0.4945460000000  0.5580590000000 1.0
C      1  0.4593590000000  0.4951100000000  0.4519720000000 1.0
C      1  0.5595590000000  0.4963420000000  0.4900890000000 1.0
C      1  0.5539470000000  0.4119520000000  0.5386690000000 1.0
C      1  0.4422200000000  0.4118760000000  0.5253800000000 1.0
C      1  0.5048240000000  0.4132020000000  0.4376710000000 1.0
C      1  0.5111420000000  0.4119630000000  0.5610610000000 1.0
C      1  0.4423370000000  0.4137000000000  0.4771830000000 1.0
C      1  0.5472640000000  0.4137190000000  0.4610310000000 1.0
C      1  0.5084420000000  0.5113000000000  0.5998750000000 1.0
C      1  0.4082770000000  0.5117730000000  0.4579230000000 1.0
C      1  0.5811280000000  0.5103250000000  0.4429470000000 1.0
C      1  0.4382750000000  0.4285040000000  0.5016320000000 1.0
C      1  0.5281710000000  0.4289590000000  0.4451740000000 1.0
C      1  0.5345970000000  0.4277830000000  0.5540280000000 1.0
C      1  0.4928310000000  0.4761700000000  0.4723020000000 1.0
C      1  0.5254730000000  0.4767290000000  0.5088240000000 1.0
C      1  0.4785090000000  0.4753710000000  0.5188800000000 1.0
C      1  0.5408760000000  0.4531610000000  0.5044550000000 1.0
C      1  0.4776680000000  0.4516470000000  0.5348410000000 1.0
C      1  0.4801360000000  0.4519470000000  0.4633140000000 1.0
C      1  0.4260650000000  0.5245300000000  0.4369580000000 1.0
C      1  0.5904040000000  0.5238620000000  0.4684410000000 1.0
C      1  0.4813400000000  0.5238220000000  0.5947050000000 1.0
C      1  0.5129530000000  0.6088970000000  0.5244580000000 1.0
C      1  0.4718190000000  0.6087820000000  0.4994190000000 1.0
C      1  0.5140860000000  0.6084710000000  0.4762250000000 1.0
C      1  0.4407260000000  0.5109930000000  0.4931830000000 1.0
C      1  0.5341330000000  0.5110270000000  0.4524760000000 1.0
C      1  0.5232040000000  0.5110310000000  0.5545280000000 1.0
C      1  0.5256250000000  0.5263410000000  0.5811400000000 1.0
C      1  0.4163150000000  0.5263790000000  0.4822840000000 1.0
C      1  0.5564220000000  0.5255450000000  0.4369200000000 1.0
C      1  0.4862110000000  0.6149080000000  0.4754710000000 1.0
C      1  0.5275960000000  0.6149110000000  0.5006140000000 1.0
C      1  0.4851170000000  0.6154200000000  0.5238550000000 1.0
C      1  0.4120490000000  0.4617870000000  0.4449280000000 1.0
C      1  0.5883990000000  0.4603450000000  0.4566570000000 1.0
C      1  0.4955800000000  0.4612870000000  0.6027140000000 1.0
C      1  0.5279790000000  0.4659580000000  0.3930400000000 1.0
C      1  0.5811700000000  0.4692630000000  0.5746620000000 1.0
C      1  0.3924610000000  0.4647700000000  0.5282290000000 1.0
C      1  0.4068660000000  0.5256220000000  0.5594770000000 1.0
C      1  0.4941120000000  0.5258520000000  0.3896350000000 1.0
C      1  0.5975380000000  0.5217750000000  0.5514770000000 1.0
C      1  0.4304780000000  0.4751780000000  0.5556000000000 1.0
C      1  0.4850140000000  0.4755860000000  0.4121710000000 1.0
C      1  0.5806110000000  0.4698500000000  0.5256510000000 1.0
C      1  0.4697610000000  0.4494270000000  0.5621680000000 1.0
C      1  0.4598680000000  0.4488310000000  0.4438340000000 1.0
C      1  0.5696690000000  0.4539720000000  0.5044320000000 1.0
C      1  0.4677870000000  0.4981810000000  0.5324190000000 1.0
C      1  0.4867600000000  0.4986540000000  0.4558460000000 1.0
C      1  0.5423390000000  0.4996100000000  0.5115580000000 1.0
C      1  0.4501430000000  0.5911140000000  0.4991970000000 1.0
C      1  0.5253230000000  0.5909240000000  0.4575390000000 1.0
C      1  0.5232340000000  0.5913940000000  0.5437090000000 1.0
C      1  0.5424890000000  0.5498660000000  0.5011860000000 1.0
C      1  0.4767680000000  0.5491780000000  0.5371620000000 1.0
C      1  0.4786210000000  0.5495120000000  0.4617210000000 1.0
C      1  0.4602680000000  0.3992540000000  0.5420480000000 1.0
C      1  0.4808630000000  0.4015410000000  0.4435250000000 1.0
C      1  0.5593070000000  0.4006010000000  0.5140430000000 1.0
C      1  0.4768570000000  0.4484290000000  0.5881040000000 1.0
C      1  0.4340250000000  0.4486400000000  0.4363650000000 1.0
C      1  0.5850110000000  0.4490700000000  0.4810660000000 1.0
C      1  0.5381730000000  0.5470910000000  0.5292940000000 1.0
C      1  0.4549720000000  0.5465550000000  0.5191070000000 1.0
C      1  0.5049990000000  0.5467900000000  0.4513910000000 1.0
C      1  0.4630190000000  0.4951100000000  0.4063230000000 1.0
C      1  0.5976630000000  0.4921460000000  0.5149610000000 1.0
C      1  0.4366510000000  0.4945150000000  0.5776730000000 1.0
C      1  0.5016520000000  0.4250420000000  0.5010740000000 1.0
C      1  0.4989550000000  0.4781870000000  0.4997450000000 1.0
END
