TITL C-3623285-6872-1850 -2.2639325629396e-07 125000 -236.291675605743 0 0 40 (Td) n - 1
REM
REM in /home/nfs/bkarasulu/CARBON/AIRSS/Generating-Clusters/LCBOP/Higher-Symm/SD-CG/FIRE-CG
REM
REM
REM
REM
REM
REM ./C.cell (b20cbc046b6831c77cfcea5457e17084)
REM AIRSS Version 0.9.1 bugfix July 2018 build 013d7b7c2542+ Fri, 06 Jul 2018 19:26:36 +0100
REM compiler GCC version 9.2.1 20190827 (Red Hat 9.2.1-1)
REM options -cpp -mtune=generic -march=x86-64 -g -O0 -fpre-include=/usr/include/finclude/math-vector-fortran.h
REM seed 1573129451 238932393 321830448 -1629742337 460897013 1023990649 1903170830 -790933973 -465534392 62814740 -1135062491 -932290030 -858462786 65313948 1575208101 1245671474 -1859738083 333113329 -302104406 537580458 -899869470 920918215 1532249130 -259276795 -167428872 -227594800 1304342910 -40823328 -937586282 -53372557 1922229777 -460749529 1320237828
REM
CELL 1.54180   50.00000   50.00000   50.00000   90.00000   90.00000   90.00000
LATT -1
SFAC C  
C      1  0.4369220000000  0.4727140000000  0.5050160000000 1.0
C      1  0.5060080000000  0.4368080000000  0.4718020000000 1.0
C      1  0.4728050000000  0.5059050000000  0.4359070000000 1.0
C      1  0.5612630000000  0.5252460000000  0.5049800000000 1.0
C      1  0.5612560000000  0.4727050000000  0.4911270000000 1.0
C      1  0.4369210000000  0.5252530000000  0.4911560000000 1.0
C      1  0.4921590000000  0.5611470000000  0.4717970000000 1.0
C      1  0.4921650000000  0.4368130000000  0.5243460000000 1.0
C      1  0.5060290000000  0.5611500000000  0.5243340000000 1.0
C      1  0.5253440000000  0.4920450000000  0.4358950000000 1.0
C      1  0.5253770000000  0.5059110000000  0.5602320000000 1.0
C      1  0.4728360000000  0.4920570000000  0.5602460000000 1.0
C      1  0.5192800000000  0.5540650000000  0.4778690000000 1.0
C      1  0.4789150000000  0.5191760000000  0.5531620000000 1.0
C      1  0.5541820000000  0.4787860000000  0.5182480000000 1.0
C      1  0.4788900000000  0.4438920000000  0.4778880000000 1.0
C      1  0.4789080000000  0.5540700000000  0.5182630000000 1.0
C      1  0.5192840000000  0.4438920000000  0.5182600000000 1.0
C      1  0.5192950000000  0.4787910000000  0.5531540000000 1.0
C      1  0.5192690000000  0.5191660000000  0.4429750000000 1.0
C      1  0.4788830000000  0.4787860000000  0.4429890000000 1.0
C      1  0.4440090000000  0.5191760000000  0.5182740000000 1.0
C      1  0.4439960000000  0.4787900000000  0.4778940000000 1.0
C      1  0.5541740000000  0.5191660000000  0.4778630000000 1.0
C      1  0.4728220000000  0.5611500000000  0.4911440000000 1.0
C      1  0.4921770000000  0.4727140000000  0.5602420000000 1.0
C      1  0.5612520000000  0.4920450000000  0.4717840000000 1.0
C      1  0.5253550000000  0.4368080000000  0.4911390000000 1.0
C      1  0.5253660000000  0.5611470000000  0.5049870000000 1.0
C      1  0.4728180000000  0.4368130000000  0.5050090000000 1.0
C      1  0.5060370000000  0.5252530000000  0.5602350000000 1.0
C      1  0.5060010000000  0.4727050000000  0.4359010000000 1.0
C      1  0.4921470000000  0.5252460000000  0.4359010000000 1.0
C      1  0.4369150000000  0.5059100000000  0.4718160000000 1.0
C      1  0.4369280000000  0.4920570000000  0.5243570000000 1.0
C      1  0.5612670000000  0.5059060000000  0.5243230000000 1.0
C      1  0.5326230000000  0.4654530000000  0.5315900000000 1.0
C      1  0.4655750000000  0.5325100000000  0.5316030000000 1.0
C      1  0.5326100000000  0.5325010000000  0.4645330000000 1.0
C      1  0.4655530000000  0.4654530000000  0.4645550000000 1.0
END
