TITL C-3623282-6910-378 0.0473015980528132 125000 -1015.04374720339 0 0 160 (C1) n - 1
REM
REM in /home/nfs/bkarasulu/CARBON/AIRSS/Generating-Clusters/LCBOP/Higher-Symm/SD-CG/FIRE-CG
REM
REM
REM
REM
REM
REM ./C.cell (b20cbc046b6831c77cfcea5457e17084)
REM AIRSS Version 0.9.1 bugfix July 2018 build 013d7b7c2542+ Fri, 06 Jul 2018 19:26:36 +0100
REM compiler GCC version 9.2.1 20190827 (Red Hat 9.2.1-1)
REM options -cpp -mtune=generic -march=x86-64 -g -O0 -fpre-include=/usr/include/finclude/math-vector-fortran.h
REM seed -278795044 -699287450 -588662831 495924982 -1096992234 697685235 -51476742 634527327 -733210220 1727469900 1947257422 -1843970928 -1223706131 1353861617 -2066004504 -1225855660 1032993377 481970625 -736869985 31150222 1570258383 -1162396491 -1332114802 691614612 -1610903306 -1972109784 -568785924 -908701667 -87276438 1549018143 -644681543 -433385281 -2085610717
REM
CELL 1.54180   50.00000   50.00000   50.00000   90.00000   90.00000   90.00000
LATT -1
SFAC C  
C      1  0.3818220000000  0.4564700000000  0.5064570000000 1.0
C      1  0.4534550000000  0.4747930000000  0.3971510000000 1.0
C      1  0.5784320000000  0.4908910000000  0.4362000000000 1.0
C      1  0.5825610000000  0.4810110000000  0.5645240000000 1.0
C      1  0.4628230000000  0.4654390000000  0.6107160000000 1.0
C      1  0.4997780000000  0.5013450000000  0.5497480000000 1.0
C      1  0.4504500000000  0.4873900000000  0.5169660000000 1.0
C      1  0.4539710000000  0.5104420000000  0.4649960000000 1.0
C      1  0.5048810000000  0.5448000000000  0.4575380000000 1.0
C      1  0.5363490000000  0.5418520000000  0.5090440000000 1.0
C      1  0.4949540000000  0.5144200000000  0.5250990000000 1.0
C      1  0.4690810000000  0.5086340000000  0.5117460000000 1.0
C      1  0.4683620000000  0.5221610000000  0.4861590000000 1.0
C      1  0.4952860000000  0.5328030000000  0.4814650000000 1.0
C      1  0.5113890000000  0.5287700000000  0.5059160000000 1.0
C      1  0.5497310000000  0.4949860000000  0.5960580000000 1.0
C      1  0.4241140000000  0.4811110000000  0.5852130000000 1.0
C      1  0.3892800000000  0.4822870000000  0.4650150000000 1.0
C      1  0.4946000000000  0.5020700000000  0.3955710000000 1.0
C      1  0.5956020000000  0.5108170000000  0.4769410000000 1.0
C      1  0.5310770000000  0.4059780000000  0.5642240000000 1.0
C      1  0.4642090000000  0.4287730000000  0.5485590000000 1.0
C      1  0.4473110000000  0.4149260000000  0.4739100000000 1.0
C      1  0.4995810000000  0.4504750000000  0.4536020000000 1.0
C      1  0.5610600000000  0.4298140000000  0.4883440000000 1.0
C      1  0.5172300000000  0.6235130000000  0.4010600000000 1.0
C      1  0.5968760000000  0.6025160000000  0.4664410000000 1.0
C      1  0.5684860000000  0.6299970000000  0.5620640000000 1.0
C      1  0.4733840000000  0.6762120000000  0.5554000000000 1.0
C      1  0.4418160000000  0.6697100000000  0.4559020000000 1.0
C      1  0.3963680000000  0.5226040000000  0.4898050000000 1.0
C      1  0.4686420000000  0.5384900000000  0.4117610000000 1.0
C      1  0.5700980000000  0.5490870000000  0.4655480000000 1.0
C      1  0.5490470000000  0.5379170000000  0.5746070000000 1.0
C      1  0.4472010000000  0.5217670000000  0.5762480000000 1.0
C      1  0.4033890000000  0.5071970000000  0.4672620000000 1.0
C      1  0.4939950000000  0.5254530000000  0.4123430000000 1.0
C      1  0.5783690000000  0.5314770000000  0.4861200000000 1.0
C      1  0.5343930000000  0.5161080000000  0.5844560000000 1.0
C      1  0.4333540000000  0.4998250000000  0.5653510000000 1.0
C      1  0.5356750000000  0.4220020000000  0.5880220000000 1.0
C      1  0.4389680000000  0.4213290000000  0.5582620000000 1.0
C      1  0.4260700000000  0.4208850000000  0.4562250000000 1.0
C      1  0.5118210000000  0.4428970000000  0.4289610000000 1.0
C      1  0.5869820000000  0.4401760000000  0.4920970000000 1.0
C      1  0.5815380000000  0.4640870000000  0.4471280000000 1.0
C      1  0.5738330000000  0.4530840000000  0.5656780000000 1.0
C      1  0.4589630000000  0.4380530000000  0.6015190000000 1.0
C      1  0.3960230000000  0.4336130000000  0.4956630000000 1.0
C      1  0.4686720000000  0.4506490000000  0.4024200000000 1.0
C      1  0.4155980000000  0.4249370000000  0.5416820000000 1.0
C      1  0.4320130000000  0.4330850000000  0.4306160000000 1.0
C      1  0.5392540000000  0.4515590000000  0.4250270000000 1.0
C      1  0.5924590000000  0.4493460000000  0.5191230000000 1.0
C      1  0.5102800000000  0.4318500000000  0.6020050000000 1.0
C      1  0.5531630000000  0.6332660000000  0.5400460000000 1.0
C      1  0.4874800000000  0.6654020000000  0.5350800000000 1.0
C      1  0.4655350000000  0.6610780000000  0.4657290000000 1.0
C      1  0.5180720000000  0.6283760000000  0.4276160000000 1.0
C      1  0.5727450000000  0.6126690000000  0.4730970000000 1.0
C      1  0.5157180000000  0.6617990000000  0.5324900000000 1.0
C      1  0.4802330000000  0.6719870000000  0.4877810000000 1.0
C      1  0.5049270000000  0.6486640000000  0.4426280000000 1.0
C      1  0.5552280000000  0.6286980000000  0.4574550000000 1.0
C      1  0.5613000000000  0.6362260000000  0.5128550000000 1.0
C      1  0.5856780000000  0.4944590000000  0.5389450000000 1.0
C      1  0.4888830000000  0.4778150000000  0.6075270000000 1.0
C      1  0.3914210000000  0.4667450000000  0.5316270000000 1.0
C      1  0.4310660000000  0.4811450000000  0.4146710000000 1.0
C      1  0.5528570000000  0.4990720000000  0.4245770000000 1.0
C      1  0.5324310000000  0.6142600000000  0.4479360000000 1.0
C      1  0.5591630000000  0.6116940000000  0.4982190000000 1.0
C      1  0.5246020000000  0.6344900000000  0.5382240000000 1.0
C      1  0.4783830000000  0.6544320000000  0.5104550000000 1.0
C      1  0.4812370000000  0.6388980000000  0.4561190000000 1.0
C      1  0.4608620000000  0.3896940000000  0.4818120000000 1.0
C      1  0.4892380000000  0.4367080000000  0.4755070000000 1.0
C      1  0.5504670000000  0.4040230000000  0.4910470000000 1.0
C      1  0.5345540000000  0.3829530000000  0.5451610000000 1.0
C      1  0.4860600000000  0.4123080000000  0.5463230000000 1.0
C      1  0.4709360000000  0.4927690000000  0.4514500000000 1.0
C      1  0.5331540000000  0.4752530000000  0.4910060000000 1.0
C      1  0.5217000000000  0.4460660000000  0.5383350000000 1.0
C      1  0.4876780000000  0.4759780000000  0.5507210000000 1.0
C      1  0.4525490000000  0.4626990000000  0.5003290000000 1.0
C      1  0.5234530000000  0.3394480000000  0.5272760000000 1.0
C      1  0.4807210000000  0.3458580000000  0.4960590000000 1.0
C      1  0.4943600000000  0.3641800000000  0.4544900000000 1.0
C      1  0.5455300000000  0.3641920000000  0.4654490000000 1.0
C      1  0.5633230000000  0.3621750000000  0.5118150000000 1.0
C      1  0.5354180000000  0.5700030000000  0.5078530000000 1.0
C      1  0.4916050000000  0.5909080000000  0.5286210000000 1.0
C      1  0.4721040000000  0.5831100000000  0.5105860000000 1.0
C      1  0.4685490000000  0.5932760000000  0.4850730000000 1.0
C      1  0.5095600000000  0.5725010000000  0.4590910000000 1.0
C      1  0.5579540000000  0.5446270000000  0.4420180000000 1.0
C      1  0.5685190000000  0.5375460000000  0.5561300000000 1.0
C      1  0.4668850000000  0.5217190000000  0.5947220000000 1.0
C      1  0.3934720000000  0.5147280000000  0.5153640000000 1.0
C      1  0.4429550000000  0.5299590000000  0.4122690000000 1.0
C      1  0.4538000000000  0.4294390000000  0.4134160000000 1.0
C      1  0.5641400000000  0.4450020000000  0.4358250000000 1.0
C      1  0.5836310000000  0.4383640000000  0.5435900000000 1.0
C      1  0.4831890000000  0.4226180000000  0.6026390000000 1.0
C      1  0.4082400000000  0.4174310000000  0.5155620000000 1.0
C      1  0.4793330000000  0.3990780000000  0.5014590000000 1.0
C      1  0.5004690000000  0.4150070000000  0.4886800000000 1.0
C      1  0.5239780000000  0.4045170000000  0.5001580000000 1.0
C      1  0.5166190000000  0.3898060000000  0.5233750000000 1.0
C      1  0.4877870000000  0.3919040000000  0.5272900000000 1.0
C      1  0.5531420000000  0.4462840000000  0.5850930000000 1.0
C      1  0.4352780000000  0.4339130000000  0.5845020000000 1.0
C      1  0.4039240000000  0.4354310000000  0.4682300000000 1.0
C      1  0.4967040000000  0.4539690000000  0.4059270000000 1.0
C      1  0.5934500000000  0.4617330000000  0.4731790000000 1.0
C      1  0.4612520000000  0.4402110000000  0.4835090000000 1.0
C      1  0.4920740000000  0.4773340000000  0.4534370000000 1.0
C      1  0.5420570000000  0.4510000000000  0.4873000000000 1.0
C      1  0.5118340000000  0.4236890000000  0.5506030000000 1.0
C      1  0.4706230000000  0.4559600000000  0.5486260000000 1.0
C      1  0.5128720000000  0.5306680000000  0.4333010000000 1.0
C      1  0.5625700000000  0.5295600000000  0.5096260000000 1.0
C      1  0.5084720000000  0.5100300000000  0.5756560000000 1.0
C      1  0.4305480000000  0.4935940000000  0.5375680000000 1.0
C      1  0.4277930000000  0.5112210000000  0.4535180000000 1.0
C      1  0.4913020000000  0.6296230000000  0.5029750000000 1.0
C      1  0.4873450000000  0.6156210000000  0.4756240000000 1.0
C      1  0.5154300000000  0.6001900000000  0.4697930000000 1.0
C      1  0.5310250000000  0.5986490000000  0.4992780000000 1.0
C      1  0.5109460000000  0.6132490000000  0.5203120000000 1.0
C      1  0.5003020000000  0.3375600000000  0.5130380000000 1.0
C      1  0.4738210000000  0.3639930000000  0.4743930000000 1.0
C      1  0.5213210000000  0.3623620000000  0.4536410000000 1.0
C      1  0.5587810000000  0.3767770000000  0.4873470000000 1.0
C      1  0.5450040000000  0.3578800000000  0.5338650000000 1.0
C      1  0.5511460000000  0.6587170000000  0.4974140000000 1.0
C      1  0.5270430000000  0.6724220000000  0.5074530000000 1.0
C      1  0.5087860000000  0.6776470000000  0.4838380000000 1.0
C      1  0.5215450000000  0.6654650000000  0.4599610000000 1.0
C      1  0.5478760000000  0.6546230000000  0.4682150000000 1.0
C      1  0.4032290000000  0.4926660000000  0.5296610000000 1.0
C      1  0.4292510000000  0.5084280000000  0.4247660000000 1.0
C      1  0.5410840000000  0.5247630000000  0.4309610000000 1.0
C      1  0.5739060000000  0.5205010000000  0.5342750000000 1.0
C      1  0.4893030000000  0.5046710000000  0.5963550000000 1.0
C      1  0.5125150000000  0.4610560000000  0.6063700000000 1.0
C      1  0.4021520000000  0.4492450000000  0.5519390000000 1.0
C      1  0.4187000000000  0.4594690000000  0.4291450000000 1.0
C      1  0.5370320000000  0.4784660000000  0.4128350000000 1.0
C      1  0.5958550000000  0.4786450000000  0.5175570000000 1.0
C      1  0.5390510000000  0.4688620000000  0.5986540000000 1.0
C      1  0.4152270000000  0.4552770000000  0.5775080000000 1.0
C      1  0.4008520000000  0.4601310000000  0.4518980000000 1.0
C      1  0.5111800000000  0.4795510000000  0.4002070000000 1.0
C      1  0.5985510000000  0.4858240000000  0.4898080000000 1.0
C      1  0.4691460000000  0.4947560000000  0.3844980000000 1.0
C      1  0.5964550000000  0.5089700000000  0.4483730000000 1.0
C      1  0.5770160000000  0.4951000000000  0.5882870000000 1.0
C      1  0.4390690000000  0.4808940000000  0.6095360000000 1.0
C      1  0.3722880000000  0.4744460000000  0.4866170000000 1.0
END
