TITL C-3623283-6828-963 -3.04895268693399e-07 125000 -122.210156704923 0 0 21 (C3v) n - 1
REM
REM in /home/nfs/bkarasulu/CARBON/AIRSS/Generating-Clusters/LCBOP/Higher-Symm/SD-CG/FIRE-CG
REM
REM
REM
REM
REM
REM ./C.cell (b20cbc046b6831c77cfcea5457e17084)
REM AIRSS Version 0.9.1 bugfix July 2018 build 013d7b7c2542+ Fri, 06 Jul 2018 19:26:36 +0100
REM compiler GCC version 9.2.1 20190827 (Red Hat 9.2.1-1)
REM options -cpp -mtune=generic -march=x86-64 -g -O0 -fpre-include=/usr/include/finclude/math-vector-fortran.h
REM seed -1742540019 -1470074053 -764526901 -1370142475 50610435 849136701 -2114034904 -1534427318 1316225678 -1515250066 -879553846 1722115593 -1213016967 -1939631805 -275710963 394037731 868202234 1346456884 -1611618193 -1059971207 1903222128 -350811102 1199191752 1262389380 912010731 1743068949 1834135733 108577345 1223884150 -540338747 480354732 -1309948066 -1274658442
REM
CELL 1.54180   50.00000   50.00000   50.00000   90.00000   90.00000   90.00000
LATT -1
SFAC C  
C      1  0.4702510000000  0.5179280000000  0.5543040000000 1.0
C      1  0.4705430000000  0.5381370000000  0.4568860000000 1.0
C      1  0.4702530000000  0.4439130000000  0.4888310000000 1.0
C      1  0.5027830000000  0.4865580000000  0.5367530000000 1.0
C      1  0.5026280000000  0.5385160000000  0.4932280000000 1.0
C      1  0.5024370000000  0.4749570000000  0.4700900000000 1.0
C      1  0.4809230000000  0.4474020000000  0.5137130000000 1.0
C      1  0.4805150000000  0.5377830000000  0.5386340000000 1.0
C      1  0.4809250000000  0.5146720000000  0.4475760000000 1.0
C      1  0.5027840000000  0.4651620000000  0.5178270000000 1.0
C      1  0.5024350000000  0.5327420000000  0.5212060000000 1.0
C      1  0.5026290000000  0.5020210000000  0.4609450000000 1.0
C      1  0.5186740000000  0.5206480000000  0.4766580000000 1.0
C      1  0.5185960000000  0.4694050000000  0.4937260000000 1.0
C      1  0.5185950000000  0.5099610000000  0.5296020000000 1.0
C      1  0.4805180000000  0.4570430000000  0.4672130000000 1.0
C      1  0.4809220000000  0.4928070000000  0.5538780000000 1.0
C      1  0.4809240000000  0.5502410000000  0.4790400000000 1.0
C      1  0.5442400000000  0.4791050000000  0.4952950000000 1.0
C      1  0.5442390000000  0.5072210000000  0.5201660000000 1.0
C      1  0.5441840000000  0.5137760000000  0.4844290000000 1.0
END
