TITL C-3623285-6872-211 -10064.5929901199 125000 -777.128072146733 0 0 129 (C1) n - 1
REM
REM in /home/nfs/bkarasulu/CARBON/AIRSS/Generating-Clusters/LCBOP/Higher-Symm/SD-CG/FIRE-CG
REM
REM
REM
REM
REM
REM ./C.cell (b20cbc046b6831c77cfcea5457e17084)
REM AIRSS Version 0.9.1 bugfix July 2018 build 013d7b7c2542+ Fri, 06 Jul 2018 19:26:36 +0100
REM compiler GCC version 9.2.1 20190827 (Red Hat 9.2.1-1)
REM options -cpp -mtune=generic -march=x86-64 -g -O0 -fpre-include=/usr/include/finclude/math-vector-fortran.h
REM seed -333391849 -1420640689 -1553541394 1300193275 814160754 -1134050515 48766840 1218252313 -1991020693 -1638686293 -134690614 67982773 -587060150 527164099 1593509783 -1426411977 -617326251 1459904003 1856476508 -342201506 -676457846 -511982944 -708910031 -2070948945 787932500 659623332 -1912743215 1411035577 2067015840 2014630834 -554643697 1322687337 142944905
REM
CELL 1.54180   50.00000   50.00000   50.00000   90.00000   90.00000   90.00000
LATT -1
SFAC C  
C      1  0.4975270000000  0.5883880000000  0.4720660000000 1.0
C      1  0.5327330000000  0.5911790000000  0.5235120000000 1.0
C      1  0.4597370000000  0.5935740000000  0.5272160000000 1.0
C      1  0.5004730000000  0.4052180000000  0.4646450000000 1.0
C      1  0.4610250000000  0.4077950000000  0.5253070000000 1.0
C      1  0.5267060000000  0.4191550000000  0.5202830000000 1.0
C      1  0.5338430000000  0.5529640000000  0.4258470000000 1.0
C      1  0.5453930000000  0.5400630000000  0.5646860000000 1.0
C      1  0.4161380000000  0.5434740000000  0.5137270000000 1.0
C      1  0.4681840000000  0.4514600000000  0.4269590000000 1.0
C      1  0.4492100000000  0.4594140000000  0.5663700000000 1.0
C      1  0.5845960000000  0.4529190000000  0.5127410000000 1.0
C      1  0.5667030000000  0.5687930000000  0.4942900000000 1.0
C      1  0.4723390000000  0.5648720000000  0.5645100000000 1.0
C      1  0.4564380000000  0.5691050000000  0.4519590000000 1.0
C      1  0.4332860000000  0.4327820000000  0.4932800000000 1.0
C      1  0.5232250000000  0.4351870000000  0.5659730000000 1.0
C      1  0.5408540000000  0.4309000000000  0.4488760000000 1.0
C      1  0.4979460000000  0.4870090000000  0.5828610000000 1.0
C      1  0.4283900000000  0.4811590000000  0.4582940000000 1.0
C      1  0.5792090000000  0.4832330000000  0.4598320000000 1.0
C      1  0.5000820000000  0.5170740000000  0.5820010000000 1.0
C      1  0.5765880000000  0.5205600000000  0.4561990000000 1.0
C      1  0.4258110000000  0.5166080000000  0.4622250000000 1.0
C      1  0.5292260000000  0.4550510000000  0.4881720000000 1.0
C      1  0.4897440000000  0.4518560000000  0.5089810000000 1.0
C      1  0.5017690000000  0.4567260000000  0.4847530000000 1.0
C      1  0.4866100000000  0.5498680000000  0.5003840000000 1.0
C      1  0.5115440000000  0.5415240000000  0.4922950000000 1.0
C      1  0.5134190000000  0.5425330000000  0.4642510000000 1.0
C      1  0.4538870000000  0.4317520000000  0.4717380000000 1.0
C      1  0.5478780000000  0.4349100000000  0.4784580000000 1.0
C      1  0.4930130000000  0.4350330000000  0.5635020000000 1.0
C      1  0.5489090000000  0.5715590000000  0.4705990000000 1.0
C      1  0.4423000000000  0.5688770000000  0.4790210000000 1.0
C      1  0.5010360000000  0.5632890000000  0.5563350000000 1.0
C      1  0.4780880000000  0.4603750000000  0.5712800000000 1.0
C      1  0.4514080000000  0.4540680000000  0.4508320000000 1.0
C      1  0.5773260000000  0.4560290000000  0.4847760000000 1.0
C      1  0.5162730000000  0.5388340000000  0.5670450000000 1.0
C      1  0.5543160000000  0.5493170000000  0.4479230000000 1.0
C      1  0.4266450000000  0.5434750000000  0.4864440000000 1.0
C      1  0.4733450000000  0.5213630000000  0.4205860000000 1.0
C      1  0.5767360000000  0.5203360000000  0.5137710000000 1.0
C      1  0.4508470000000  0.5190750000000  0.5535600000000 1.0
C      1  0.5228540000000  0.4695620000000  0.4182170000000 1.0
C      1  0.4269250000000  0.4825330000000  0.5141130000000 1.0
C      1  0.5516860000000  0.4799970000000  0.5503930000000 1.0
C      1  0.5648580000000  0.5262710000000  0.5797750000000 1.0
C      1  0.3937020000000  0.5293170000000  0.5233030000000 1.0
C      1  0.5315940000000  0.5387170000000  0.4016580000000 1.0
C      1  0.4290310000000  0.4722560000000  0.5813450000000 1.0
C      1  0.6054670000000  0.4676900000000  0.5250130000000 1.0
C      1  0.4677040000000  0.4682760000000  0.4041470000000 1.0
C      1  0.5118760000000  0.5179900000000  0.4520140000000 1.0
C      1  0.5265640000000  0.5267360000000  0.5107420000000 1.0
C      1  0.4693220000000  0.5281530000000  0.5061190000000 1.0
C      1  0.4942800000000  0.4717180000000  0.4627110000000 1.0
C      1  0.4767660000000  0.4740180000000  0.5203110000000 1.0
C      1  0.5405320000000  0.4766240000000  0.5008520000000 1.0
C      1  0.4762830000000  0.4947320000000  0.4645610000000 1.0
C      1  0.5452200000000  0.4980660000000  0.4824110000000 1.0
C      1  0.4895740000000  0.4971710000000  0.5324630000000 1.0
C      1  0.5306740000000  0.4979190000000  0.4575210000000 1.0
C      1  0.4638740000000  0.5047120000000  0.4884930000000 1.0
C      1  0.5163490000000  0.5051120000000  0.5277110000000 1.0
C      1  0.5676340000000  0.4381990000000  0.5320380000000 1.0
C      1  0.4386260000000  0.4445180000000  0.5441190000000 1.0
C      1  0.4911460000000  0.4340410000000  0.4282260000000 1.0
C      1  0.4298790000000  0.5580960000000  0.5343530000000 1.0
C      1  0.5566000000000  0.5560130000000  0.5440040000000 1.0
C      1  0.5091870000000  0.5599800000000  0.4405530000000 1.0
C      1  0.4514600000000  0.5729220000000  0.5453740000000 1.0
C      1  0.4861200000000  0.5760660000000  0.4481910000000 1.0
C      1  0.5546220000000  0.5724280000000  0.5213550000000 1.0
C      1  0.5416730000000  0.4293430000000  0.5424710000000 1.0
C      1  0.5118170000000  0.4223870000000  0.4440340000000 1.0
C      1  0.4402610000000  0.4274820000000  0.5214650000000 1.0
C      1  0.5605540000000  0.4445700000000  0.4329320000000 1.0
C      1  0.5301800000000  0.4495220000000  0.5896070000000 1.0
C      1  0.4089370000000  0.4438460000000  0.4835880000000 1.0
C      1  0.4400550000000  0.5547270000000  0.4334650000000 1.0
C      1  0.4686530000000  0.5541350000000  0.5905600000000 1.0
C      1  0.5915260000000  0.5569810000000  0.4862730000000 1.0
C      1  0.5000280000000  0.4283480000000  0.5206410000000 1.0
C      1  0.4681720000000  0.3950890000000  0.5004790000000 1.0
C      1  0.5210350000000  0.3933480000000  0.4805000000000 1.0
C      1  0.4860010000000  0.6036600000000  0.5341110000000 1.0
C      1  0.5308810000000  0.6067310000000  0.4998140000000 1.0
C      1  0.4830430000000  0.5770440000000  0.4937720000000 1.0
C      1  0.4702860000000  0.5186350000000  0.5336810000000 1.0
C      1  0.4850690000000  0.5121640000000  0.4438390000000 1.0
C      1  0.5523940000000  0.5196150000000  0.5001630000000 1.0
C      1  0.5358540000000  0.4842040000000  0.5279430000000 1.0
C      1  0.5174450000000  0.4754660000000  0.4448780000000 1.0
C      1  0.4534830000000  0.4837120000000  0.5059340000000 1.0
C      1  0.4067540000000  0.4662400000000  0.4682540000000 1.0
C      1  0.5745250000000  0.4678100000000  0.4368760000000 1.0
C      1  0.5189220000000  0.4732480000000  0.5964920000000 1.0
C      1  0.5958490000000  0.5351020000000  0.4702910000000 1.0
C      1  0.4268330000000  0.5314590000000  0.4383930000000 1.0
C      1  0.4809160000000  0.5311550000000  0.5985900000000 1.0
C      1  0.4831340000000  0.4184520000000  0.5414070000000 1.0
C      1  0.4736240000000  0.4095260000000  0.4757220000000 1.0
C      1  0.5381810000000  0.4110280000000  0.4951130000000 1.0
C      1  0.5090790000000  0.5866310000000  0.5399160000000 1.0
C      1  0.5263770000000  0.5916980000000  0.4756390000000 1.0
C      1  0.4563890000000  0.5853790000000  0.4992970000000 1.0
C      1  0.6236980000000  0.5387780000000  0.5281980000000 1.0
C      1  0.4194140000000  0.5358480000000  0.5921490000000 1.0
C      1  0.4577110000000  0.5460290000000  0.3766620000000 1.0
C      1  0.3787390000000  0.4638430000000  0.5234830000000 1.0
C      1  0.5811830000000  0.4580090000000  0.5881010000000 1.0
C      1  0.5405770000000  0.4508120000000  0.3722850000000 1.0
C      1  0.4816280000000  0.4836040000000  0.3868920000000 1.0
C      1  0.6132900000000  0.4828320000000  0.5458020000000 1.0
C      1  0.4047840000000  0.4836670000000  0.5790620000000 1.0
C      1  0.5191500000000  0.5203850000000  0.3864230000000 1.0
C      1  0.3839680000000  0.5162530000000  0.5446890000000 1.0
C      1  0.5893870000000  0.5152580000000  0.5785020000000 1.0
C      1  0.6007650000000  0.5274860000000  0.5227700000000 1.0
C      1  0.4339400000000  0.5250190000000  0.5732700000000 1.0
C      1  0.4655740000000  0.5337460000000  0.3982990000000 1.0
C      1  0.4020220000000  0.4752500000000  0.5200910000000 1.0
C      1  0.5669280000000  0.4708190000000  0.5702650000000 1.0
C      1  0.5316610000000  0.4608160000000  0.3946570000000 1.0
C      1  0.5009500000000  0.5013860000000  0.3806750000000 1.0
C      1  0.3880190000000  0.4996150000000  0.5654000000000 1.0
C      1  0.6075160000000  0.4999880000000  0.5657430000000 1.0
END
