TITL C-3623288-6813-1376 1242.22001991033 125000 -1028.31099236529 0 0 168 (C1) n - 1
REM
REM in /home/nfs/bkarasulu/CARBON/AIRSS/Generating-Clusters/LCBOP/Higher-Symm/SD-CG/FIRE-CG
REM
REM
REM
REM
REM
REM ./C.cell (b20cbc046b6831c77cfcea5457e17084)
REM AIRSS Version 0.9.1 bugfix July 2018 build 013d7b7c2542+ Fri, 06 Jul 2018 19:26:36 +0100
REM compiler GCC version 9.2.1 20190827 (Red Hat 9.2.1-1)
REM options -cpp -mtune=generic -march=x86-64 -g -O0 -fpre-include=/usr/include/finclude/math-vector-fortran.h
REM seed 1859589137 186334056 334064711 -1985119702 -619549023 -866204540 369203699 1456558137 -632477597 -1783979141 1573599821 -1378865004 2027659647 445392908 1241638749 1500315732 1191134660 -177063922 -574451839 -456517176 1269243465 699568591 -1725291139 1602554016 -674465647 731773653 1479062376 921776855 102653581 3278840 -688577908 1847782391 -1861412637
REM
CELL 1.54180   50.00000   50.00000   50.00000   90.00000   90.00000   90.00000
LATT -1
SFAC C  
C      1  0.5467130000000  0.5566230000000  0.5410740000000 1.0
C      1  0.4376230000000  0.5092410000000  0.5363570000000 1.0
C      1  0.5249050000000  0.4425740000000  0.5302710000000 1.0
C      1  0.3867530000000  0.4836470000000  0.4665800000000 1.0
C      1  0.5646300000000  0.4253280000000  0.4552070000000 1.0
C      1  0.5431730000000  0.5987920000000  0.4542920000000 1.0
C      1  0.4603720000000  0.5842720000000  0.5388400000000 1.0
C      1  0.4561010000000  0.4168840000000  0.5427530000000 1.0
C      1  0.5976530000000  0.4949390000000  0.5503320000000 1.0
C      1  0.5628060000000  0.5486890000000  0.5913580000000 1.0
C      1  0.4144290000000  0.5211670000000  0.5731550000000 1.0
C      1  0.5212300000000  0.4126780000000  0.5635120000000 1.0
C      1  0.5554540000000  0.4441780000000  0.4056870000000 1.0
C      1  0.5488230000000  0.5779500000000  0.4056360000000 1.0
C      1  0.3964860000000  0.4817400000000  0.4151130000000 1.0
C      1  0.5486920000000  0.5477170000000  0.4850950000000 1.0
C      1  0.4481640000000  0.5118510000000  0.4785610000000 1.0
C      1  0.5147190000000  0.4516320000000  0.4776870000000 1.0
C      1  0.4374720000000  0.4735970000000  0.5709710000000 1.0
C      1  0.5518650000000  0.4568300000000  0.5687050000000 1.0
C      1  0.5106200000000  0.5547330000000  0.5764040000000 1.0
C      1  0.4833290000000  0.6399640000000  0.4519330000000 1.0
C      1  0.3707160000000  0.3997450000000  0.4896450000000 1.0
C      1  0.6241400000000  0.4511750000000  0.4798650000000 1.0
C      1  0.5676420000000  0.5341220000000  0.5385330000000 1.0
C      1  0.4555330000000  0.5318520000000  0.5337750000000 1.0
C      1  0.4971610000000  0.4509920000000  0.5312710000000 1.0
C      1  0.4052520000000  0.5250620000000  0.3941500000000 1.0
C      1  0.5165540000000  0.4218180000000  0.3856020000000 1.0
C      1  0.5942130000000  0.5600230000000  0.3996170000000 1.0
C      1  0.4548110000000  0.3915250000000  0.5310070000000 1.0
C      1  0.6224490000000  0.5056010000000  0.5425460000000 1.0
C      1  0.4435450000000  0.5984170000000  0.5212940000000 1.0
C      1  0.5291560000000  0.4337980000000  0.4064570000000 1.0
C      1  0.5719410000000  0.5642800000000  0.4145430000000 1.0
C      1  0.4081640000000  0.5074700000000  0.4146890000000 1.0
C      1  0.3905300000000  0.4193300000000  0.4506800000000 1.0
C      1  0.5998560000000  0.4803330000000  0.4493220000000 1.0
C      1  0.4841520000000  0.5951890000000  0.4299790000000 1.0
C      1  0.5196570000000  0.4622720000000  0.4485030000000 1.0
C      1  0.5440680000000  0.5459040000000  0.4546060000000 1.0
C      1  0.4473940000000  0.5002880000000  0.4491600000000 1.0
C      1  0.5011670000000  0.6380390000000  0.4988480000000 1.0
C      1  0.3789150000000  0.4367970000000  0.5238910000000 1.0
C      1  0.5981470000000  0.4227220000000  0.5157800000000 1.0
C      1  0.4705750000000  0.6170870000000  0.4414360000000 1.0
C      1  0.3899980000000  0.3985870000000  0.4693250000000 1.0
C      1  0.6210840000000  0.4760700000000  0.4671890000000 1.0
C      1  0.4860460000000  0.4041940000000  0.4838070000000 1.0
C      1  0.5992740000000  0.5499220000000  0.5024330000000 1.0
C      1  0.4202780000000  0.5588300000000  0.4900440000000 1.0
C      1  0.3858190000000  0.5121570000000  0.4718270000000 1.0
C      1  0.5436600000000  0.4040630000000  0.4580610000000 1.0
C      1  0.5709410000000  0.5978500000000  0.4645990000000 1.0
C      1  0.4378560000000  0.6122450000000  0.4990800000000 1.0
C      1  0.4424220000000  0.3780570000000  0.5114640000000 1.0
C      1  0.6402150000000  0.5093970000000  0.5229770000000 1.0
C      1  0.4699640000000  0.4399510000000  0.5322170000000 1.0
C      1  0.5723740000000  0.5038650000000  0.5381910000000 1.0
C      1  0.4693820000000  0.5571790000000  0.5338920000000 1.0
C      1  0.6240960000000  0.5415940000000  0.4925640000000 1.0
C      1  0.4176650000000  0.5802610000000  0.4719920000000 1.0
C      1  0.4604650000000  0.3986290000000  0.4732540000000 1.0
C      1  0.4813540000000  0.5032980000000  0.5740030000000 1.0
C      1  0.5006150000000  0.4894590000000  0.5598590000000 1.0
C      1  0.5254420000000  0.5161130000000  0.5380320000000 1.0
C      1  0.5720980000000  0.4194620000000  0.5056150000000 1.0
C      1  0.5179450000000  0.6166010000000  0.4926640000000 1.0
C      1  0.3889650000000  0.4580320000000  0.5085760000000 1.0
C      1  0.5284140000000  0.5226650000000  0.6075690000000 1.0
C      1  0.4487280000000  0.5072730000000  0.6041570000000 1.0
C      1  0.5098030000000  0.4519550000000  0.5902180000000 1.0
C      1  0.3660270000000  0.4157610000000  0.5105300000000 1.0
C      1  0.6174500000000  0.4324600000000  0.4976460000000 1.0
C      1  0.4898370000000  0.6500130000000  0.4760700000000 1.0
C      1  0.5435950000000  0.4531400000000  0.4880190000000 1.0
C      1  0.5280550000000  0.5692130000000  0.4911170000000 1.0
C      1  0.4278620000000  0.4840820000000  0.4921090000000 1.0
C      1  0.4554480000000  0.5360650000000  0.5973190000000 1.0
C      1  0.4832610000000  0.4412240000000  0.5848280000000 1.0
C      1  0.5509370000000  0.5042580000000  0.5992720000000 1.0
C      1  0.5444080000000  0.4814740000000  0.5836630000000 1.0
C      1  0.4844490000000  0.5423640000000  0.5965630000000 1.0
C      1  0.4614870000000  0.4629060000000  0.5861700000000 1.0
C      1  0.5692100000000  0.4441360000000  0.4325390000000 1.0
C      1  0.5333340000000  0.5906230000000  0.4281270000000 1.0
C      1  0.3886710000000  0.4699760000000  0.4416420000000 1.0
C      1  0.4958490000000  0.3865040000000  0.5023950000000 1.0
C      1  0.5922820000000  0.5462940000000  0.5292530000000 1.0
C      1  0.4107410000000  0.5622950000000  0.5153610000000 1.0
C      1  0.4309720000000  0.5438180000000  0.5831400000000 1.0
C      1  0.4918510000000  0.4148350000000  0.5724210000000 1.0
C      1  0.5726860000000  0.5230500000000  0.5951290000000 1.0
C      1  0.5306630000000  0.4141870000000  0.5347420000000 1.0
C      1  0.5571950000000  0.5827040000000  0.5333060000000 1.0
C      1  0.4105970000000  0.5175720000000  0.5446970000000 1.0
C      1  0.5580700000000  0.4818290000000  0.5242930000000 1.0
C      1  0.4971950000000  0.5566110000000  0.5266220000000 1.0
C      1  0.4515320000000  0.4608140000000  0.5246490000000 1.0
C      1  0.4421760000000  0.4806410000000  0.5430220000000 1.0
C      1  0.5470570000000  0.4600490000000  0.5400570000000 1.0
C      1  0.5173480000000  0.5568940000000  0.5480410000000 1.0
C      1  0.4230340000000  0.5128330000000  0.4379460000000 1.0
C      1  0.5180540000000  0.4377230000000  0.4319830000000 1.0
C      1  0.5682790000000  0.5557170000000  0.4410130000000 1.0
C      1  0.4477590000000  0.4659800000000  0.4974470000000 1.0
C      1  0.5527270000000  0.4784610000000  0.4960280000000 1.0
C      1  0.5033940000000  0.5569130000000  0.4983190000000 1.0
C      1  0.5746760000000  0.6085050000000  0.4910930000000 1.0
C      1  0.3804660000000  0.5189190000000  0.4996100000000 1.0
C      1  0.5425310000000  0.3913490000000  0.4853810000000 1.0
C      1  0.5101320000000  0.5520240000000  0.4093220000000 1.0
C      1  0.4236100000000  0.4446220000000  0.4223200000000 1.0
C      1  0.5597500000000  0.4902790000000  0.4156900000000 1.0
C      1  0.5151130000000  0.5370340000000  0.4527300000000 1.0
C      1  0.4577060000000  0.4727860000000  0.4504020000000 1.0
C      1  0.5317070000000  0.4888250000000  0.4513540000000 1.0
C      1  0.4354960000000  0.4211980000000  0.5616950000000 1.0
C      1  0.5996310000000  0.4707850000000  0.5646620000000 1.0
C      1  0.4765000000000  0.6020380000000  0.5541160000000 1.0
C      1  0.4937830000000  0.6405550000000  0.5257990000000 1.0
C      1  0.3878500000000  0.4331040000000  0.5501420000000 1.0
C      1  0.6028520000000  0.4253440000000  0.5432480000000 1.0
C      1  0.5154850000000  0.5272560000000  0.4247220000000 1.0
C      1  0.4484920000000  0.4526190000000  0.4328860000000 1.0
C      1  0.5353620000000  0.5037820000000  0.4263740000000 1.0
C      1  0.4260470000000  0.4973050000000  0.5866920000000 1.0
C      1  0.5330420000000  0.4352250000000  0.5797370000000 1.0
C      1  0.5339850000000  0.5487350000000  0.5929030000000 1.0
C      1  0.4952280000000  0.5379230000000  0.4768850000000 1.0
C      1  0.4674440000000  0.4654390000000  0.4769260000000 1.0
C      1  0.5451580000000  0.4978900000000  0.4763120000000 1.0
C      1  0.5648790000000  0.4353010000000  0.4825010000000 1.0
C      1  0.5273110000000  0.5947480000000  0.4783840000000 1.0
C      1  0.4016890000000  0.4737850000000  0.4893170000000 1.0
C      1  0.4955860000000  0.4799660000000  0.5335940000000 1.0
C      1  0.5198070000000  0.5134110000000  0.5116750000000 1.0
C      1  0.4956280000000  0.4953110000000  0.5054740000000 1.0
C      1  0.5161810000000  0.4783130000000  0.5811790000000 1.0
C      1  0.5008040000000  0.5257750000000  0.6147490000000 1.0
C      1  0.4701640000000  0.4893090000000  0.5969670000000 1.0
C      1  0.5182850000000  0.4147190000000  0.4496130000000 1.0
C      1  0.5816930000000  0.5714440000000  0.4614960000000 1.0
C      1  0.4081910000000  0.5251270000000  0.4595250000000 1.0
C      1  0.3899440000000  0.5186840000000  0.5252230000000 1.0
C      1  0.5484160000000  0.4031630000000  0.5125600000000 1.0
C      1  0.5682250000000  0.6006170000000  0.5163090000000 1.0
C      1  0.4875940000000  0.6256300000000  0.5472470000000 1.0
C      1  0.4094140000000  0.4261840000000  0.5641940000000 1.0
C      1  0.6037730000000  0.4445470000000  0.5617930000000 1.0
C      1  0.4122530000000  0.4614020000000  0.4015320000000 1.0
C      1  0.5569780000000  0.4708330000000  0.3942520000000 1.0
C      1  0.5307760000000  0.5607700000000  0.3906900000000 1.0
C      1  0.4441460000000  0.6138020000000  0.4501780000000 1.0
C      1  0.4133690000000  0.3836040000000  0.4727780000000 1.0
C      1  0.6365160000000  0.4976910000000  0.4761630000000 1.0
C      1  0.4277140000000  0.5343900000000  0.4789260000000 1.0
C      1  0.5031710000000  0.4234180000000  0.4729360000000 1.0
C      1  0.5780290000000  0.5556400000000  0.4854650000000 1.0
C      1  0.4386230000000  0.3846780000000  0.4843810000000 1.0
C      1  0.6376460000000  0.5172390000000  0.4961070000000 1.0
C      1  0.4308600000000  0.6048230000000  0.4728710000000 1.0
C      1  0.5388280000000  0.5205660000000  0.4922010000000 1.0
C      1  0.4778440000000  0.5159590000000  0.4876000000000 1.0
C      1  0.4938400000000  0.4707500000000  0.4867130000000 1.0
C      1  0.5768110000000  0.4734830000000  0.4350860000000 1.0
C      1  0.5060010000000  0.5783850000000  0.4246530000000 1.0
C      1  0.4008210000000  0.4429940000000  0.4408560000000 1.0
END
