TITL C-3623285-6872-368 -0.000156662184981112 125000 -562.441506793381 0 0 89 (C3) n - 1
REM
REM in /home/nfs/bkarasulu/CARBON/AIRSS/Generating-Clusters/LCBOP/Higher-Symm/SD-CG/FIRE-CG
REM
REM
REM
REM
REM
REM ./C.cell (b20cbc046b6831c77cfcea5457e17084)
REM AIRSS Version 0.9.1 bugfix July 2018 build 013d7b7c2542+ Fri, 06 Jul 2018 19:26:36 +0100
REM compiler GCC version 9.2.1 20190827 (Red Hat 9.2.1-1)
REM options -cpp -mtune=generic -march=x86-64 -g -O0 -fpre-include=/usr/include/finclude/math-vector-fortran.h
REM seed 1617802036 -248269466 -1213027789 -240682794 -1579221286 2012557258 -1460216478 -910752774 -1742832909 -721742942 833820415 1279409491 942134317 1601130904 2071711028 1675150393 -1089310956 638985272 516398948 -1609442527 -1548247473 527161970 1985227424 -2106002348 1856298852 527304826 -1406240031 -224047950 1643539197 1066949603 -69934525 938259270 338108447
REM
CELL 1.54180   50.00000   50.00000   50.00000   90.00000   90.00000   90.00000
LATT -1
SFAC C  
C      1  0.5312170000000  0.4741810000000  0.5038300000000 1.0
C      1  0.4624130000000  0.4851620000000  0.5038000000000 1.0
C      1  0.5063250000000  0.5392580000000  0.5038620000000 1.0
C      1  0.5164200000000  0.5659650000000  0.5110220000000 1.0
C      1  0.5492980000000  0.4520740000000  0.5109600000000 1.0
C      1  0.4342260000000  0.4805470000000  0.5109170000000 1.0
C      1  0.4360820000000  0.5578480000000  0.3867390000000 1.0
C      1  0.5824630000000  0.5258990000000  0.3867970000000 1.0
C      1  0.4816040000000  0.4151040000000  0.3866630000000 1.0
C      1  0.4965160000000  0.4421880000000  0.5526170000000 1.0
C      1  0.4520460000000  0.5311360000000  0.5526560000000 1.0
C      1  0.5513130000000  0.5251740000000  0.5527060000000 1.0
C      1  0.5837500000000  0.4765790000000  0.4884440000000 1.0
C      1  0.4382260000000  0.4384920000000  0.4883370000000 1.0
C      1  0.4780050000000  0.5835630000000  0.4884610000000 1.0
C      1  0.5568330000000  0.5426430000000  0.5008640000000 1.0
C      1  0.5088950000000  0.4287530000000  0.5007570000000 1.0
C      1  0.4342320000000  0.5272130000000  0.5007850000000 1.0
C      1  0.4756100000000  0.5763280000000  0.5375180000000 1.0
C      1  0.5786710000000  0.4821950000000  0.5375080000000 1.0
C      1  0.4456190000000  0.4400080000000  0.5374050000000 1.0
C      1  0.5066320000000  0.5527320000000  0.4286820000000 1.0
C      1  0.5427490000000  0.4672940000000  0.4286410000000 1.0
C      1  0.4506990000000  0.4787350000000  0.4285990000000 1.0
C      1  0.4335950000000  0.4645830000000  0.4435160000000 1.0
C      1  0.5029240000000  0.5745970000000  0.4436320000000 1.0
C      1  0.5635350000000  0.4595490000000  0.4435840000000 1.0
C      1  0.5808120000000  0.5048270000000  0.4862710000000 1.0
C      1  0.4641600000000  0.4269160000000  0.4861510000000 1.0
C      1  0.4550130000000  0.5668960000000  0.4862450000000 1.0
C      1  0.5747390000000  0.4654910000000  0.5136160000000 1.0
C      1  0.4331240000000  0.4518010000000  0.5135280000000 1.0
C      1  0.4920760000000  0.5812880000000  0.5136530000000 1.0
C      1  0.5800860000000  0.4618840000000  0.4645640000000 1.0
C      1  0.4273380000000  0.4490500000000  0.4644710000000 1.0
C      1  0.4925970000000  0.5877510000000  0.4646050000000 1.0
C      1  0.5221640000000  0.4294580000000  0.5467580000000 1.0
C      1  0.4281990000000  0.5152980000000  0.5467670000000 1.0
C      1  0.5495220000000  0.5537540000000  0.5468610000000 1.0
C      1  0.5620970000000  0.4300050000000  0.5794370000000 1.0
C      1  0.4086990000000  0.4803920000000  0.5793890000000 1.0
C      1  0.5290340000000  0.5880450000000  0.5795310000000 1.0
C      1  0.4711450000000  0.5011130000000  0.4820210000000 1.0
C      1  0.5157780000000  0.5237540000000  0.4820620000000 1.0
C      1  0.5130690000000  0.4737810000000  0.4820250000000 1.0
C      1  0.5471370000000  0.5728410000000  0.5671070000000 1.0
C      1  0.5398820000000  0.4219480000000  0.5669960000000 1.0
C      1  0.4128320000000  0.5036780000000  0.5669840000000 1.0
C      1  0.5030800000000  0.5941120000000  0.5775620000000 1.0
C      1  0.5803290000000  0.4494510000000  0.5775020000000 1.0
C      1  0.4164240000000  0.4548820000000  0.5774160000000 1.0
C      1  0.5648020000000  0.5157570000000  0.4642470000000 1.0
C      1  0.4816360000000  0.4353500000000  0.4641450000000 1.0
C      1  0.4535840000000  0.5475780000000  0.4642090000000 1.0
C      1  0.5266120000000  0.5133070000000  0.5635960000000 1.0
C      1  0.4985870000000  0.4694960000000  0.5635500000000 1.0
C      1  0.4746580000000  0.5156710000000  0.5635690000000 1.0
C      1  0.4823690000000  0.5890900000000  0.5614750000000 1.0
C      1  0.5863390000000  0.4699230000000  0.5614480000000 1.0
C      1  0.4311530000000  0.4394660000000  0.5613410000000 1.0
C      1  0.5222070000000  0.4853080000000  0.5563920000000 1.0
C      1  0.4765430000000  0.4873210000000  0.5563690000000 1.0
C      1  0.5011180000000  0.5258610000000  0.5564090000000 1.0
C      1  0.5432680000000  0.5303440000000  0.4769210000000 1.0
C      1  0.5050320000000  0.4466870000000  0.4768400000000 1.0
C      1  0.4517000000000  0.5216280000000  0.4768640000000 1.0
C      1  0.5435440000000  0.5600690000000  0.5192250000000 1.0
C      1  0.5306280000000  0.4315190000000  0.5191270000000 1.0
C      1  0.4257580000000  0.5069800000000  0.5191220000000 1.0
C      1  0.5258470000000  0.4860970000000  0.5282010000000 1.0
C      1  0.4754130000000  0.4838170000000  0.5281720000000 1.0
C      1  0.4986550000000  0.5286350000000  0.5282160000000 1.0
C      1  0.5217400000000  0.4816170000000  0.4204650000000 1.0
C      1  0.4736090000000  0.4897800000000  0.4204440000000 1.0
C      1  0.5047440000000  0.5273810000000  0.4204880000000 1.0
C      1  0.4797800000000  0.4278630000000  0.4375930000000 1.0
C      1  0.4480330000000  0.5529700000000  0.4376640000000 1.0
C      1  0.5722520000000  0.5179100000000  0.4377080000000 1.0
C      1  0.5752300000000  0.5216020000000  0.5096950000000 1.0
C      1  0.4814730000000  0.4233270000000  0.5095740000000 1.0
C      1  0.4432430000000  0.5536600000000  0.5096450000000 1.0
C      1  0.4806340000000  0.4206410000000  0.4121170000000 1.0
C      1  0.4413570000000  0.5558800000000  0.4121910000000 1.0
C      1  0.5781160000000  0.5222750000000  0.4122430000000 1.0
C      1  0.4737870000000  0.4330780000000  0.5356490000000 1.0
C      1  0.4555250000000  0.5554010000000  0.5357250000000 1.0
C      1  0.5705910000000  0.5100540000000  0.5357570000000 1.0
C      1  0.5000320000000  0.4995930000000  0.4196240000000 1.0
C      1  0.5000000000000  0.4995530000000  0.4770000000000 1.0
END
