TITL C-3623283-6828-1235 475736.088194852 125000 -952.342376878022 0 0 157 (C1) n - 1
REM
REM in /home/nfs/bkarasulu/CARBON/AIRSS/Generating-Clusters/LCBOP/Higher-Symm/SD-CG/FIRE-CG
REM
REM
REM
REM
REM
REM ./C.cell (b20cbc046b6831c77cfcea5457e17084)
REM AIRSS Version 0.9.1 bugfix July 2018 build 013d7b7c2542+ Fri, 06 Jul 2018 19:26:36 +0100
REM compiler GCC version 9.2.1 20190827 (Red Hat 9.2.1-1)
REM options -cpp -mtune=generic -march=x86-64 -g -O0 -fpre-include=/usr/include/finclude/math-vector-fortran.h
REM seed 1551783957 -1044192676 -753559071 -1137212676 -443306738 2004724372 -2021401600 1600973335 -274972005 -1207111728 2079914317 -1876716524 755785599 1609166351 767392445 45846057 -1013358094 -848258946 -868975553 -428087439 -1580382795 748651518 193873019 307966126 -1953918501 -2069879341 -522609801 -2056884475 -382743651 -250014771 772272652 -1649182482 885441665
REM
CELL 1.54180   50.00000   50.00000   50.00000   90.00000   90.00000   90.00000
LATT -1
SFAC C  
C      1  0.4903520000000  0.4736280000000  0.6103880000000 1.0
C      1  0.5076510000000  0.4655220000000  0.3937460000000 1.0
C      1  0.5297090000000  0.4947540000000  0.4823980000000 1.0
C      1  0.4616970000000  0.4876360000000  0.5270320000000 1.0
C      1  0.4983720000000  0.5083080000000  0.4431990000000 1.0
C      1  0.5081480000000  0.5056410000000  0.5564640000000 1.0
C      1  0.4509110000000  0.4656040000000  0.5419500000000 1.0
C      1  0.5424730000000  0.4700060000000  0.4795030000000 1.0
C      1  0.4047660000000  0.5460040000000  0.5319070000000 1.0
C      1  0.5965830000000  0.5545420000000  0.4555960000000 1.0
C      1  0.5347990000000  0.4134930000000  0.5312300000000 1.0
C      1  0.4753820000000  0.4117630000000  0.4652190000000 1.0
C      1  0.4616100000000  0.5128410000000  0.6141330000000 1.0
C      1  0.5368550000000  0.5036220000000  0.3821150000000 1.0
C      1  0.5720750000000  0.4601220000000  0.5661070000000 1.0
C      1  0.4212940000000  0.4631070000000  0.4519570000000 1.0
C      1  0.5348310000000  0.4752010000000  0.3902770000000 1.0
C      1  0.4650240000000  0.4852600000000  0.6065700000000 1.0
C      1  0.5582780000000  0.5986170000000  0.5164000000000 1.0
C      1  0.4476950000000  0.5934040000000  0.4777150000000 1.0
C      1  0.4006760000000  0.5383080000000  0.3865630000000 1.0
C      1  0.5933870000000  0.5171230000000  0.6022360000000 1.0
C      1  0.4874370000000  0.4360820000000  0.5492070000000 1.0
C      1  0.5243560000000  0.4217110000000  0.4540080000000 1.0
C      1  0.5820660000000  0.5822580000000  0.5606170000000 1.0
C      1  0.4452850000000  0.5824820000000  0.4304320000000 1.0
C      1  0.5954020000000  0.5421580000000  0.5928080000000 1.0
C      1  0.4111630000000  0.5594920000000  0.3995810000000 1.0
C      1  0.5636060000000  0.4264990000000  0.4788600000000 1.0
C      1  0.4506830000000  0.3932010000000  0.5148180000000 1.0
C      1  0.4875030000000  0.4872290000000  0.4304680000000 1.0
C      1  0.5206540000000  0.4834730000000  0.5702120000000 1.0
C      1  0.4280030000000  0.5203300000000  0.5841920000000 1.0
C      1  0.5612940000000  0.5135020000000  0.4183360000000 1.0
C      1  0.4460210000000  0.4708140000000  0.5919320000000 1.0
C      1  0.5571400000000  0.4639490000000  0.4049580000000 1.0
C      1  0.5934830000000  0.4895080000000  0.4667350000000 1.0
C      1  0.3904710000000  0.4746530000000  0.5522580000000 1.0
C      1  0.4856420000000  0.5443430000000  0.4985530000000 1.0
C      1  0.5365190000000  0.5389670000000  0.5131190000000 1.0
C      1  0.6215000000000  0.5226250000000  0.4814610000000 1.0
C      1  0.3925740000000  0.5063520000000  0.5076790000000 1.0
C      1  0.4650350000000  0.5273440000000  0.4037170000000 1.0
C      1  0.5376130000000  0.5400080000000  0.5791800000000 1.0
C      1  0.4849790000000  0.3984890000000  0.5813940000000 1.0
C      1  0.5161260000000  0.4183380000000  0.4048380000000 1.0
C      1  0.5822080000000  0.4252590000000  0.4998030000000 1.0
C      1  0.4374960000000  0.4161800000000  0.5110360000000 1.0
C      1  0.4292470000000  0.4433860000000  0.4318380000000 1.0
C      1  0.5688610000000  0.4320970000000  0.5622300000000 1.0
C      1  0.5013020000000  0.5305880000000  0.5428860000000 1.0
C      1  0.4968770000000  0.5333040000000  0.4507990000000 1.0
C      1  0.4973060000000  0.4389160000000  0.4006560000000 1.0
C      1  0.5103750000000  0.3979150000000  0.5904840000000 1.0
C      1  0.5281730000000  0.4652750000000  0.6403930000000 1.0
C      1  0.4668470000000  0.5000360000000  0.3931980000000 1.0
C      1  0.5821990000000  0.5518860000000  0.5015300000000 1.0
C      1  0.4295270000000  0.5428070000000  0.4886630000000 1.0
C      1  0.4295170000000  0.5517110000000  0.5462700000000 1.0
C      1  0.5687290000000  0.5529740000000  0.4473020000000 1.0
C      1  0.5079590000000  0.5827360000000  0.4342170000000 1.0
C      1  0.4942810000000  0.5575480000000  0.5523580000000 1.0
C      1  0.5700670000000  0.5949320000000  0.5402710000000 1.0
C      1  0.4604900000000  0.5911810000000  0.4524710000000 1.0
C      1  0.4905580000000  0.4863820000000  0.4020800000000 1.0
C      1  0.5021100000000  0.4721330000000  0.6363600000000 1.0
C      1  0.4922780000000  0.5475550000000  0.4719500000000 1.0
C      1  0.5081130000000  0.5358440000000  0.5156590000000 1.0
C      1  0.4512030000000  0.5823290000000  0.5035980000000 1.0
C      1  0.5497000000000  0.5858330000000  0.4926400000000 1.0
C      1  0.4084120000000  0.4610670000000  0.5699790000000 1.0
C      1  0.5808440000000  0.4666850000000  0.4528920000000 1.0
C      1  0.4981450000000  0.5960830000000  0.4825790000000 1.0
C      1  0.5001860000000  0.5919630000000  0.5096520000000 1.0
C      1  0.3906070000000  0.5035830000000  0.5568860000000 1.0
C      1  0.6019640000000  0.5071670000000  0.4433660000000 1.0
C      1  0.5272010000000  0.4112750000000  0.4282320000000 1.0
C      1  0.4760480000000  0.4168230000000  0.5638890000000 1.0
C      1  0.4498680000000  0.5383200000000  0.5301840000000 1.0
C      1  0.5516060000000  0.5411930000000  0.4681540000000 1.0
C      1  0.4483960000000  0.4709720000000  0.4607080000000 1.0
C      1  0.5492740000000  0.4778690000000  0.5745660000000 1.0
C      1  0.5066790000000  0.4440090000000  0.4588620000000 1.0
C      1  0.5033570000000  0.4454900000000  0.5281530000000 1.0
C      1  0.5075050000000  0.4646700000000  0.5888160000000 1.0
C      1  0.4641720000000  0.4752270000000  0.4383280000000 1.0
C      1  0.4053540000000  0.4722270000000  0.4742090000000 1.0
C      1  0.5946620000000  0.4723370000000  0.5800100000000 1.0
C      1  0.5526280000000  0.5302620000000  0.5582370000000 1.0
C      1  0.4443830000000  0.5348940000000  0.4225060000000 1.0
C      1  0.4419310000000  0.5689680000000  0.5660260000000 1.0
C      1  0.5526070000000  0.5666810000000  0.4280770000000 1.0
C      1  0.5443510000000  0.5963580000000  0.4667680000000 1.0
C      1  0.4488240000000  0.5975820000000  0.5273920000000 1.0
C      1  0.5987780000000  0.5651120000000  0.4824840000000 1.0
C      1  0.4071140000000  0.5540800000000  0.5041210000000 1.0
C      1  0.5821050000000  0.4476310000000  0.5173080000000 1.0
C      1  0.4347210000000  0.4403940000000  0.4972830000000 1.0
C      1  0.5520100000000  0.5559750000000  0.4940200000000 1.0
C      1  0.4558520000000  0.5513730000000  0.5040210000000 1.0
C      1  0.5861710000000  0.4997660000000  0.4207190000000 1.0
C      1  0.4035790000000  0.5059450000000  0.5840640000000 1.0
C      1  0.5575060000000  0.4811390000000  0.6040250000000 1.0
C      1  0.4193940000000  0.4902100000000  0.3854570000000 1.0
C      1  0.5145520000000  0.5491340000000  0.5914780000000 1.0
C      1  0.4865140000000  0.5463730000000  0.4016840000000 1.0
C      1  0.4736020000000  0.3825610000000  0.5055020000000 1.0
C      1  0.5390270000000  0.4124330000000  0.4769420000000 1.0
C      1  0.5617910000000  0.4530730000000  0.4681320000000 1.0
C      1  0.4380570000000  0.4597130000000  0.5666540000000 1.0
C      1  0.5362020000000  0.5870760000000  0.4411550000000 1.0
C      1  0.4465970000000  0.5943940000000  0.5542480000000 1.0
C      1  0.5459600000000  0.5263780000000  0.3979250000000 1.0
C      1  0.4477460000000  0.5339940000000  0.6006030000000 1.0
C      1  0.4040960000000  0.5120240000000  0.3822920000000 1.0
C      1  0.5853320000000  0.4902950000000  0.6010760000000 1.0
C      1  0.4444670000000  0.4810290000000  0.3942400000000 1.0
C      1  0.5435710000000  0.4591310000000  0.6172580000000 1.0
C      1  0.5044880000000  0.4940720000000  0.4947120000000 1.0
C      1  0.4815490000000  0.4888220000000  0.5073580000000 1.0
C      1  0.5554390000000  0.4564300000000  0.5232900000000 1.0
C      1  0.4554330000000  0.4521010000000  0.4803820000000 1.0
C      1  0.4445940000000  0.5092320000000  0.5640300000000 1.0
C      1  0.5443720000000  0.5062880000000  0.4395150000000 1.0
C      1  0.4329320000000  0.5608490000000  0.4174070000000 1.0
C      1  0.5914270000000  0.5642740000000  0.5781590000000 1.0
C      1  0.4608940000000  0.4196850000000  0.4375670000000 1.0
C      1  0.5459300000000  0.4144570000000  0.5597520000000 1.0
C      1  0.5407520000000  0.5151530000000  0.4656050000000 1.0
C      1  0.4540110000000  0.5121020000000  0.5383630000000 1.0
C      1  0.4892190000000  0.5916350000000  0.4546860000000 1.0
C      1  0.4983200000000  0.5797360000000  0.5341500000000 1.0
C      1  0.5820890000000  0.5235350000000  0.5116260000000 1.0
C      1  0.4234960000000  0.5206050000000  0.4715010000000 1.0
C      1  0.4910560000000  0.3944670000000  0.4869050000000 1.0
C      1  0.5231060000000  0.4021740000000  0.4989900000000 1.0
C      1  0.4823750000000  0.4400440000000  0.4762360000000 1.0
C      1  0.5313170000000  0.4424570000000  0.5274520000000 1.0
C      1  0.5296350000000  0.4175450000000  0.5841450000000 1.0
C      1  0.4713900000000  0.4348250000000  0.4137410000000 1.0
C      1  0.5572060000000  0.5252590000000  0.5301170000000 1.0
C      1  0.4343160000000  0.5215080000000  0.4453210000000 1.0
C      1  0.5776970000000  0.4712250000000  0.4236600000000 1.0
C      1  0.4076030000000  0.4791290000000  0.5947620000000 1.0
C      1  0.5985530000000  0.5064780000000  0.4921830000000 1.0
C      1  0.4054400000000  0.5001250000000  0.4826270000000 1.0
C      1  0.4598720000000  0.5565040000000  0.5864930000000 1.0
C      1  0.5362760000000  0.5521820000000  0.4074400000000 1.0
C      1  0.4504320000000  0.4581250000000  0.4140540000000 1.0
C      1  0.5272590000000  0.4434150000000  0.5974440000000 1.0
C      1  0.4886780000000  0.5573610000000  0.5805670000000 1.0
C      1  0.5081860000000  0.5617220000000  0.4120840000000 1.0
C      1  0.6134150000000  0.5312520000000  0.4540360000000 1.0
C      1  0.3930260000000  0.5196200000000  0.5334920000000 1.0
C      1  0.4092810000000  0.4531940000000  0.4953470000000 1.0
C      1  0.6052930000000  0.4599720000000  0.5245050000000 1.0
C      1  0.4924480000000  0.4426560000000  0.5032540000000 1.0
END
