TITL C-3623287-7182-1775 70537.265513842 125000 -945.61466072073 0 0 156 (Ci) n - 1
REM
REM in /home/nfs/bkarasulu/CARBON/AIRSS/Generating-Clusters/LCBOP/Higher-Symm/SD-CG/FIRE-CG
REM
REM
REM
REM
REM
REM ./C.cell (b20cbc046b6831c77cfcea5457e17084)
REM AIRSS Version 0.9.1 bugfix July 2018 build 013d7b7c2542+ Fri, 06 Jul 2018 19:26:36 +0100
REM compiler GCC version 9.2.1 20190827 (Red Hat 9.2.1-1)
REM options -cpp -mtune=generic -march=x86-64 -g -O0 -fpre-include=/usr/include/finclude/math-vector-fortran.h
REM seed -1664905103 26343815 -1060336340 -435970207 930169904 -1233304008 -244791191 -1952145049 -781749569 -1059749278 1479986601 -1306786242 219906644 2064007018 -613382113 1015556276 -1912997050 -124342901 -944137630 -921760759 -1961567611 -53529879 55071863 -105312689 629041301 906909387 196881822 -1404375154 1865796981 -1851538280 1217722091 745200419 142351842
REM
CELL 1.54180   50.00000   50.00000   50.00000   90.00000   90.00000   90.00000
LATT -1
SFAC C  
C      1  0.5102170000000  0.5166960000000  0.4211660000000 1.0
C      1  0.5138250000000  0.4272420000000  0.4846490000000 1.0
C      1  0.5176190000000  0.4837600000000  0.5782550000000 1.0
C      1  0.5134380000000  0.5749640000000  0.5184290000000 1.0
C      1  0.4825620000000  0.5162420000000  0.4217480000000 1.0
C      1  0.4867430000000  0.4250350000000  0.4815700000000 1.0
C      1  0.4899650000000  0.4833060000000  0.5788370000000 1.0
C      1  0.4863570000000  0.5727580000000  0.5153500000000 1.0
C      1  0.5626040000000  0.4974620000000  0.5827680000000 1.0
C      1  0.5592520000000  0.5817480000000  0.5061390000000 1.0
C      1  0.5575080000000  0.5068320000000  0.4145410000000 1.0
C      1  0.5581280000000  0.4257320000000  0.4997700000000 1.0
C      1  0.4426740000000  0.4931700000000  0.5854610000000 1.0
C      1  0.4420530000000  0.5742670000000  0.5002300000000 1.0
C      1  0.4375770000000  0.5025390000000  0.4172330000000 1.0
C      1  0.4409300000000  0.4182510000000  0.4938600000000 1.0
C      1  0.4863200000000  0.4752510000000  0.5032950000000 1.0
C      1  0.4813520000000  0.5225180000000  0.5348240000000 1.0
C      1  0.4916980000000  0.5162120000000  0.4796270000000 1.0
C      1  0.4911050000000  0.4851470000000  0.4740650000000 1.0
C      1  0.5084820000000  0.4837860000000  0.5203740000000 1.0
C      1  0.5090760000000  0.5148520000000  0.5259360000000 1.0
C      1  0.5138600000000  0.5247470000000  0.4967070000000 1.0
C      1  0.5188280000000  0.4774820000000  0.4651770000000 1.0
C      1  0.4159160000000  0.4590080000000  0.5171480000000 1.0
C      1  0.4137090000000  0.5160740000000  0.5420100000000 1.0
C      1  0.4086410000000  0.5404070000000  0.4806940000000 1.0
C      1  0.4091790000000  0.4803820000000  0.4577620000000 1.0
C      1  0.5915390000000  0.4595930000000  0.5193070000000 1.0
C      1  0.5910020000000  0.5196180000000  0.5422380000000 1.0
C      1  0.5842670000000  0.5409920000000  0.4828530000000 1.0
C      1  0.5864720000000  0.4839270000000  0.4579900000000 1.0
C      1  0.4888760000000  0.5468020000000  0.5733570000000 1.0
C      1  0.4870460000000  0.5586090000000  0.4581730000000 1.0
C      1  0.4828810000000  0.4565180000000  0.4299600000000 1.0
C      1  0.4849030000000  0.4402390000000  0.5384460000000 1.0
C      1  0.5173010000000  0.5434850000000  0.5700390000000 1.0
C      1  0.5152790000000  0.5597580000000  0.4615550000000 1.0
C      1  0.5113040000000  0.4532020000000  0.4266420000000 1.0
C      1  0.5131360000000  0.4413890000000  0.5418280000000 1.0
C      1  0.5853620000000  0.4961790000000  0.5608010000000 1.0
C      1  0.5783130000000  0.5576860000000  0.5071980000000 1.0
C      1  0.5749400000000  0.5070410000000  0.4418180000000 1.0
C      1  0.5808470000000  0.4450280000000  0.4965280000000 1.0
C      1  0.4252420000000  0.4929600000000  0.5581830000000 1.0
C      1  0.4193340000000  0.5549720000000  0.5034720000000 1.0
C      1  0.4148170000000  0.5038210000000  0.4391990000000 1.0
C      1  0.4218700000000  0.4423140000000  0.4928030000000 1.0
C      1  0.6093610000000  0.4796330000000  0.5107300000000 1.0
C      1  0.6067540000000  0.5115140000000  0.5190580000000 1.0
C      1  0.6031860000000  0.5207230000000  0.4899100000000 1.0
C      1  0.6043840000000  0.4934710000000  0.4787350000000 1.0
C      1  0.3969960000000  0.4792770000000  0.5100910000000 1.0
C      1  0.3957980000000  0.5065290000000  0.5212660000000 1.0
C      1  0.3908200000000  0.5203670000000  0.4892710000000 1.0
C      1  0.3934270000000  0.4884860000000  0.4809430000000 1.0
C      1  0.4451740000000  0.5090550000000  0.5092650000000 1.0
C      1  0.4614710000000  0.5296990000000  0.5176100000000 1.0
C      1  0.4511820000000  0.5104460000000  0.4618070000000 1.0
C      1  0.4421860000000  0.5006230000000  0.4845870000000 1.0
C      1  0.5490030000000  0.4895590000000  0.5381980000000 1.0
C      1  0.5579940000000  0.4993760000000  0.5154160000000 1.0
C      1  0.5550070000000  0.4909440000000  0.4907370000000 1.0
C      1  0.5387100000000  0.4703000000000  0.4823910000000 1.0
C      1  0.4491180000000  0.4626380000000  0.5895570000000 1.0
C      1  0.4468180000000  0.5872490000000  0.5295130000000 1.0
C      1  0.4433970000000  0.5337240000000  0.4087670000000 1.0
C      1  0.4465000000000  0.4088930000000  0.4642710000000 1.0
C      1  0.5567840000000  0.4662770000000  0.5912340000000 1.0
C      1  0.5536810000000  0.5911080000000  0.5357260000000 1.0
C      1  0.5510640000000  0.5373640000000  0.4104440000000 1.0
C      1  0.5533640000000  0.4127520000000  0.4704840000000 1.0
C      1  0.5301410000000  0.4696090000000  0.6011690000000 1.0
C      1  0.5225550000000  0.5987240000000  0.5356640000000 1.0
C      1  0.5205560000000  0.5384520000000  0.4015160000000 1.0
C      1  0.5272470000000  0.4028340000000  0.4748610000000 1.0
C      1  0.4796260000000  0.4615500000000  0.5984850000000 1.0
C      1  0.4729350000000  0.5971670000000  0.5251350000000 1.0
C      1  0.4700400000000  0.5303920000000  0.3988330000000 1.0
C      1  0.4776270000000  0.4012770000000  0.4643330000000 1.0
C      1  0.5231940000000  0.4374810000000  0.5670700000000 1.0
C      1  0.5327530000000  0.5673460000000  0.5692650000000 1.0
C      1  0.5296590000000  0.5663560000000  0.4382440000000 1.0
C      1  0.5209340000000  0.4280970000000  0.4342150000000 1.0
C      1  0.4705230000000  0.4336450000000  0.5617580000000 1.0
C      1  0.4792190000000  0.5719000000000  0.5657710000000 1.0
C      1  0.4769650000000  0.5625120000000  0.4329310000000 1.0
C      1  0.4674290000000  0.4326560000000  0.4307330000000 1.0
C      1  0.4662160000000  0.4336320000000  0.4977010000000 1.0
C      1  0.4696120000000  0.5020780000000  0.5746100000000 1.0
C      1  0.4665530000000  0.5539840000000  0.5012720000000 1.0
C      1  0.4624490000000  0.4999660000000  0.4368330000000 1.0
C      1  0.5336280000000  0.4460150000000  0.4987290000000 1.0
C      1  0.5377320000000  0.5000350000000  0.5631680000000 1.0
C      1  0.5339660000000  0.5663660000000  0.5023000000000 1.0
C      1  0.5305700000000  0.4979250000000  0.4253920000000 1.0
C      1  0.4454680000000  0.3922100000000  0.5086170000000 1.0
C      1  0.4459030000000  0.5025020000000  0.6146900000000 1.0
C      1  0.4501410000000  0.5985670000000  0.4824340000000 1.0
C      1  0.4470260000000  0.4883420000000  0.3907390000000 1.0
C      1  0.5500400000000  0.4014290000000  0.5175620000000 1.0
C      1  0.5531550000000  0.5116590000000  0.6092620000000 1.0
C      1  0.5547150000000  0.6077870000000  0.4913780000000 1.0
C      1  0.5542780000000  0.4974990000000  0.3853130000000 1.0
C      1  0.4758670000000  0.4767870000000  0.4481980000000 1.0
C      1  0.4738960000000  0.4526310000000  0.5154540000000 1.0
C      1  0.4757100000000  0.5251620000000  0.5620100000000 1.0
C      1  0.4760560000000  0.5409020000000  0.4764150000000 1.0
C      1  0.5244710000000  0.4748400000000  0.4379920000000 1.0
C      1  0.5241210000000  0.4590910000000  0.5235840000000 1.0
C      1  0.5243150000000  0.5232140000000  0.5518030000000 1.0
C      1  0.5262860000000  0.5473660000000  0.4845470000000 1.0
C      1  0.4426850000000  0.5507050000000  0.4312200000000 1.0
C      1  0.4419200000000  0.4328500000000  0.4467720000000 1.0
C      1  0.4449240000000  0.4476860000000  0.5644410000000 1.0
C      1  0.4463230000000  0.5683200000000  0.5501060000000 1.0
C      1  0.5552580000000  0.5523150000000  0.4355610000000 1.0
C      1  0.5538850000000  0.4316850000000  0.4499050000000 1.0
C      1  0.5575170000000  0.4493030000000  0.5687820000000 1.0
C      1  0.5582610000000  0.5671520000000  0.5532270000000 1.0
C      1  0.5122100000000  0.5240190000000  0.3757380000000 1.0
C      1  0.5159430000000  0.3806830000000  0.4884360000000 1.0
C      1  0.5175330000000  0.4804600000000  0.6243780000000 1.0
C      1  0.5134550000000  0.6210870000000  0.5164220000000 1.0
C      1  0.4826490000000  0.5195420000000  0.3756240000000 1.0
C      1  0.4867260000000  0.3789120000000  0.4835710000000 1.0
C      1  0.4879720000000  0.4759820000000  0.6242640000000 1.0
C      1  0.4842390000000  0.6193160000000  0.5115570000000 1.0
C      1  0.4280660000000  0.4638360000000  0.5448490000000 1.0
C      1  0.4233400000000  0.5443750000000  0.5369980000000 1.0
C      1  0.4183080000000  0.5368200000000  0.4522980000000 1.0
C      1  0.4233210000000  0.4532290000000  0.4623580000000 1.0
C      1  0.5818730000000  0.4631800000000  0.5477030000000 1.0
C      1  0.5768610000000  0.5467720000000  0.5376420000000 1.0
C      1  0.5721160000000  0.5361650000000  0.4551520000000 1.0
C      1  0.5768420000000  0.4556280000000  0.4630020000000 1.0
C      1  0.4895210000000  0.6278370000000  0.4647590000000 1.0
C      1  0.4882240000000  0.4740720000000  0.3616820000000 1.0
C      1  0.4839350000000  0.3690560000000  0.5310120000000 1.0
C      1  0.4851010000000  0.5216520000000  0.6402220000000 1.0
C      1  0.5162470000000  0.6309360000000  0.4689790000000 1.0
C      1  0.5150800000000  0.4783490000000  0.3597810000000 1.0
C      1  0.5106610000000  0.3721540000000  0.5352330000000 1.0
C      1  0.5119570000000  0.5259280000000  0.6383210000000 1.0
C      1  0.4705760000000  0.4993200000000  0.6300660000000 1.0
C      1  0.4718460000000  0.6183220000000  0.4847210000000 1.0
C      1  0.4700600000000  0.4928290000000  0.3727330000000 1.0
C      1  0.4696140000000  0.3764110000000  0.5075410000000 1.0
C      1  0.5301210000000  0.5071720000000  0.6272690000000 1.0
C      1  0.5305680000000  0.6235840000000  0.4924520000000 1.0
C      1  0.5296060000000  0.5006810000000  0.3699370000000 1.0
C      1  0.5283360000000  0.3816740000000  0.5152730000000 1.0
C      1  0.4912250000000  0.4366720000000  0.5839850000000 1.0
C      1  0.5113050000000  0.5883560000000  0.5624280000000 1.0
C      1  0.5089580000000  0.5633300000000  0.4160160000000 1.0
C      1  0.4888790000000  0.4116490000000  0.4375690000000 1.0
END
