TITL C-3623289-7120-1061 6577.51746906505 125000 -861.729417142554 0 0 146 (C1) n - 1
REM
REM in /home/nfs/bkarasulu/CARBON/AIRSS/Generating-Clusters/LCBOP/Higher-Symm/SD-CG/FIRE-CG
REM
REM
REM
REM
REM
REM ./C.cell (b20cbc046b6831c77cfcea5457e17084)
REM AIRSS Version 0.9.1 bugfix July 2018 build 013d7b7c2542+ Fri, 06 Jul 2018 19:26:36 +0100
REM compiler GCC version 9.2.1 20190827 (Red Hat 9.2.1-1)
REM options -cpp -mtune=generic -march=x86-64 -g -O0 -fpre-include=/usr/include/finclude/math-vector-fortran.h
REM seed -182710958 1497864898 -1630480116 -1166006820 -1628709345 1865100509 2129098140 -1205963706 679168878 179845041 450161325 1891220335 -1825373882 -171817974 390598775 1935290297 995061402 -360428229 1052749170 -227654268 -94720137 -1020619749 -1236056191 -1350745795 -1852320936 -2088556723 1405931678 1128461481 -1869651832 -1172358130 1796402882 -1074524614 1616244497
REM
CELL 1.54180   50.00000   50.00000   50.00000   90.00000   90.00000   90.00000
LATT -1
SFAC C  
C      1  0.5705010000000  0.5385510000000  0.4290850000000 1.0
C      1  0.5729190000000  0.4502310000000  0.4458630000000 1.0
C      1  0.5695180000000  0.4298060000000  0.5332210000000 1.0
C      1  0.5726650000000  0.5075510000000  0.5786460000000 1.0
C      1  0.5765690000000  0.5702950000000  0.5141100000000 1.0
C      1  0.4318740000000  0.5243710000000  0.4235820000000 1.0
C      1  0.4330220000000  0.4377230000000  0.4344790000000 1.0
C      1  0.4242960000000  0.4283650000000  0.5251150000000 1.0
C      1  0.4363990000000  0.5129970000000  0.5801230000000 1.0
C      1  0.4158210000000  0.5714390000000  0.5319920000000 1.0
C      1  0.5402440000000  0.4562670000000  0.4940030000000 1.0
C      1  0.5436740000000  0.4874520000000  0.5384310000000 1.0
C      1  0.5451660000000  0.5402410000000  0.5332430000000 1.0
C      1  0.5441050000000  0.5401710000000  0.4759930000000 1.0
C      1  0.5405560000000  0.4914920000000  0.4523560000000 1.0
C      1  0.4517980000000  0.4535550000000  0.4871070000000 1.0
C      1  0.4513710000000  0.4721850000000  0.5316820000000 1.0
C      1  0.4580790000000  0.5221640000000  0.5291320000000 1.0
C      1  0.4444560000000  0.5475860000000  0.4823800000000 1.0
C      1  0.4648480000000  0.5047120000000  0.4653490000000 1.0
C      1  0.4867850000000  0.4878420000000  0.5543840000000 1.0
C      1  0.4747880000000  0.5674190000000  0.5307660000000 1.0
C      1  0.4879200000000  0.5505490000000  0.4710200000000 1.0
C      1  0.4713400000000  0.4662250000000  0.4411470000000 1.0
C      1  0.4858420000000  0.4384320000000  0.5148230000000 1.0
C      1  0.5011640000000  0.5062490000000  0.5679510000000 1.0
C      1  0.4992160000000  0.5575430000000  0.5200250000000 1.0
C      1  0.4988800000000  0.5440720000000  0.4469000000000 1.0
C      1  0.4928250000000  0.4535000000000  0.4477910000000 1.0
C      1  0.5061890000000  0.4494100000000  0.5270040000000 1.0
C      1  0.5466930000000  0.4304760000000  0.4817870000000 1.0
C      1  0.5454530000000  0.4646800000000  0.5564780000000 1.0
C      1  0.5541230000000  0.5471670000000  0.5601180000000 1.0
C      1  0.5498080000000  0.5681270000000  0.4722720000000 1.0
C      1  0.5486970000000  0.4959210000000  0.4255050000000 1.0
C      1  0.4544630000000  0.4276540000000  0.4741930000000 1.0
C      1  0.4480580000000  0.4545150000000  0.5567820000000 1.0
C      1  0.4611580000000  0.5475250000000  0.5509260000000 1.0
C      1  0.4464150000000  0.5758170000000  0.4886420000000 1.0
C      1  0.4634710000000  0.4933630000000  0.4362840000000 1.0
C      1  0.4562260000000  0.4114940000000  0.5330620000000 1.0
C      1  0.4624090000000  0.5103980000000  0.5959890000000 1.0
C      1  0.4788830000000  0.5964930000000  0.5288240000000 1.0
C      1  0.4611880000000  0.5433050000000  0.4167470000000 1.0
C      1  0.4633710000000  0.4290380000000  0.4205360000000 1.0
C      1  0.5386530000000  0.4135410000000  0.5383430000000 1.0
C      1  0.5416750000000  0.5088020000000  0.5954720000000 1.0
C      1  0.5462950000000  0.5889150000000  0.5213210000000 1.0
C      1  0.5391130000000  0.5480950000000  0.4163220000000 1.0
C      1  0.5430460000000  0.4381980000000  0.4299400000000 1.0
C      1  0.4746080000000  0.4486550000000  0.4026220000000 1.0
C      1  0.4680510000000  0.3947640000000  0.5135560000000 1.0
C      1  0.4706130000000  0.4837470000000  0.6023120000000 1.0
C      1  0.4834630000000  0.6033430000000  0.5562300000000 1.0
C      1  0.4667210000000  0.5697800000000  0.4298290000000 1.0
C      1  0.5328430000000  0.4514750000000  0.4072120000000 1.0
C      1  0.5283170000000  0.3967430000000  0.5177250000000 1.0
C      1  0.5285750000000  0.4839970000000  0.6024960000000 1.0
C      1  0.5373430000000  0.5922820000000  0.5483790000000 1.0
C      1  0.5267550000000  0.5731860000000  0.4250650000000 1.0
C      1  0.5577040000000  0.4944780000000  0.4750320000000 1.0
C      1  0.5639600000000  0.4762860000000  0.4979040000000 1.0
C      1  0.5665800000000  0.4952890000000  0.5221570000000 1.0
C      1  0.5608040000000  0.5236000000000  0.5145330000000 1.0
C      1  0.5656330000000  0.5219370000000  0.4842920000000 1.0
C      1  0.4369910000000  0.4991740000000  0.4751500000000 1.0
C      1  0.4287900000000  0.4747890000000  0.4895430000000 1.0
C      1  0.4271960000000  0.4828960000000  0.5177850000000 1.0
C      1  0.4287340000000  0.5192020000000  0.5157650000000 1.0
C      1  0.4239850000000  0.5253590000000  0.4865420000000 1.0
C      1  0.4890300000000  0.4736200000000  0.3985440000000 1.0
C      1  0.4856710000000  0.3953950000000  0.4905970000000 1.0
C      1  0.4840160000000  0.4606020000000  0.5916980000000 1.0
C      1  0.4945160000000  0.5825580000000  0.5732440000000 1.0
C      1  0.4821750000000  0.5876290000000  0.4495140000000 1.0
C      1  0.5177550000000  0.4740920000000  0.3979760000000 1.0
C      1  0.5145020000000  0.3967950000000  0.4926820000000 1.0
C      1  0.5132690000000  0.4618230000000  0.5920280000000 1.0
C      1  0.5232930000000  0.5803240000000  0.5712140000000 1.0
C      1  0.5128600000000  0.5872380000000  0.4469340000000 1.0
C      1  0.4702890000000  0.4439500000000  0.5713140000000 1.0
C      1  0.4792100000000  0.5571060000000  0.5775130000000 1.0
C      1  0.4711170000000  0.5917620000000  0.4788230000000 1.0
C      1  0.4779230000000  0.4984360000000  0.4095960000000 1.0
C      1  0.4742540000000  0.4083800000000  0.4674690000000 1.0
C      1  0.5267690000000  0.4481380000000  0.5709190000000 1.0
C      1  0.5354680000000  0.5558620000000  0.5800260000000 1.0
C      1  0.5293550000000  0.5880030000000  0.4712750000000 1.0
C      1  0.5301310000000  0.4995210000000  0.4043400000000 1.0
C      1  0.5286310000000  0.4109370000000  0.4717580000000 1.0
C      1  0.5172630000000  0.5434030000000  0.5354650000000 1.0
C      1  0.5219740000000  0.5326580000000  0.4909850000000 1.0
C      1  0.5138080000000  0.4975520000000  0.4562540000000 1.0
C      1  0.5140400000000  0.4647810000000  0.4871120000000 1.0
C      1  0.5195520000000  0.4936550000000  0.5249570000000 1.0
C      1  0.4782890000000  0.5207620000000  0.5068830000000 1.0
C      1  0.4688820000000  0.5309720000000  0.4798070000000 1.0
C      1  0.5015560000000  0.4903580000000  0.4803040000000 1.0
C      1  0.4643900000000  0.4551000000000  0.5115220000000 1.0
C      1  0.4631560000000  0.4961160000000  0.5430140000000 1.0
C      1  0.5860070000000  0.4340800000000  0.5019970000000 1.0
C      1  0.5868090000000  0.4832350000000  0.5617490000000 1.0
C      1  0.5930320000000  0.5469860000000  0.5370100000000 1.0
C      1  0.5887510000000  0.5496440000000  0.4571770000000 1.0
C      1  0.5888100000000  0.4825680000000  0.4413640000000 1.0
C      1  0.4121150000000  0.4319000000000  0.4904270000000 1.0
C      1  0.4150580000000  0.4867610000000  0.5659920000000 1.0
C      1  0.4126030000000  0.5479960000000  0.5484540000000 1.0
C      1  0.4107590000000  0.5355870000000  0.4390170000000 1.0
C      1  0.4205100000000  0.4670550000000  0.4332760000000 1.0
C      1  0.5731670000000  0.4562830000000  0.5554200000000 1.0
C      1  0.5798350000000  0.5379920000000  0.5638360000000 1.0
C      1  0.5781150000000  0.5690540000000  0.4783880000000 1.0
C      1  0.5753030000000  0.5042500000000  0.4249370000000 1.0
C      1  0.5741280000000  0.4299940000000  0.4750770000000 1.0
C      1  0.4216650000000  0.4509210000000  0.5550810000000 1.0
C      1  0.4345470000000  0.5401330000000  0.5665130000000 1.0
C      1  0.4286110000000  0.5825320000000  0.5104870000000 1.0
C      1  0.4344260000000  0.4945510000000  0.4273070000000 1.0
C      1  0.4281470000000  0.4235490000000  0.4642610000000 1.0
C      1  0.4035010000000  0.4969310000000  0.5438190000000 1.0
C      1  0.4060560000000  0.5235290000000  0.5350180000000 1.0
C      1  0.4039500000000  0.5324150000000  0.4654060000000 1.0
C      1  0.3988630000000  0.4660980000000  0.4537440000000 1.0
C      1  0.4044040000000  0.4593660000000  0.4812530000000 1.0
C      1  0.5935550000000  0.4970540000000  0.5362030000000 1.0
C      1  0.6069110000000  0.5220180000000  0.5300730000000 1.0
C      1  0.5927810000000  0.5243500000000  0.4707160000000 1.0
C      1  0.6032090000000  0.4990560000000  0.4609360000000 1.0
C      1  0.5899570000000  0.4618030000000  0.5008840000000 1.0
C      1  0.5214950000000  0.5972630000000  0.4977190000000 1.0
C      1  0.5197080000000  0.5273630000000  0.4027520000000 1.0
C      1  0.5205460000000  0.4160250000000  0.4441950000000 1.0
C      1  0.5181570000000  0.4230280000000  0.5586980000000 1.0
C      1  0.5233230000000  0.5339690000000  0.5959730000000 1.0
C      1  0.4907850000000  0.6009840000000  0.5016530000000 1.0
C      1  0.4843220000000  0.5264450000000  0.4051090000000 1.0
C      1  0.4857990000000  0.4115400000000  0.4406080000000 1.0
C      1  0.4822260000000  0.4216900000000  0.5573830000000 1.0
C      1  0.4870380000000  0.5361720000000  0.5957310000000 1.0
C      1  0.5050460000000  0.5190300000000  0.4425520000000 1.0
C      1  0.5070590000000  0.5288590000000  0.5560750000000 1.0
C      1  0.5015240000000  0.4461100000000  0.4713340000000 1.0
C      1  0.5023550000000  0.4746340000000  0.5362910000000 1.0
C      1  0.5040200000000  0.5547570000000  0.4931640000000 1.0
C      1  0.5068210000000  0.5090220000000  0.5028090000000 1.0
END
