TITL C-3623285-6872-1116 -195.0782272429 125000 -1027.51287734824 0 0 167 (C1) n - 1
REM
REM in /home/nfs/bkarasulu/CARBON/AIRSS/Generating-Clusters/LCBOP/Higher-Symm/SD-CG/FIRE-CG
REM
REM
REM
REM
REM
REM ./C.cell (b20cbc046b6831c77cfcea5457e17084)
REM AIRSS Version 0.9.1 bugfix July 2018 build 013d7b7c2542+ Fri, 06 Jul 2018 19:26:36 +0100
REM compiler GCC version 9.2.1 20190827 (Red Hat 9.2.1-1)
REM options -cpp -mtune=generic -march=x86-64 -g -O0 -fpre-include=/usr/include/finclude/math-vector-fortran.h
REM seed 1275313171 457141742 -2085193437 -710047964 101404696 422338812 -1105051558 -1443236516 111651831 -1304461674 -1960510853 -469557007 881770472 1804474423 -1554148576 14833297 -19336073 1141412510 986677434 915892695 -496418015 -2043448621 1214846908 -1569976674 -2135464571 424913839 347365750 1939197952 599611084 -936025115 -176396994 -537947196 -372996733
REM
CELL 1.54180   50.00000   50.00000   50.00000   90.00000   90.00000   90.00000
LATT -1
SFAC C  
C      1  0.4303960000000  0.5095480000000  0.4195850000000 1.0
C      1  0.4902010000000  0.4446710000000  0.4657520000000 1.0
C      1  0.4627150000000  0.4783750000000  0.4547750000000 1.0
C      1  0.4151680000000  0.4149980000000  0.4739110000000 1.0
C      1  0.5509330000000  0.4409390000000  0.5833370000000 1.0
C      1  0.4245700000000  0.4744440000000  0.5175970000000 1.0
C      1  0.4450610000000  0.4665410000000  0.5371960000000 1.0
C      1  0.4341470000000  0.5393080000000  0.6137210000000 1.0
C      1  0.4493720000000  0.6020460000000  0.4649040000000 1.0
C      1  0.5816180000000  0.5745640000000  0.5835400000000 1.0
C      1  0.4343950000000  0.5689980000000  0.5734910000000 1.0
C      1  0.4815670000000  0.3780100000000  0.5451390000000 1.0
C      1  0.5450890000000  0.5816320000000  0.4350020000000 1.0
C      1  0.4618820000000  0.4170640000000  0.4185730000000 1.0
C      1  0.3885960000000  0.5100540000000  0.4907010000000 1.0
C      1  0.4168880000000  0.5084520000000  0.4810490000000 1.0
C      1  0.4981130000000  0.5053370000000  0.4229090000000 1.0
C      1  0.4362970000000  0.4836710000000  0.5823210000000 1.0
C      1  0.5521010000000  0.6108830000000  0.4874770000000 1.0
C      1  0.5505890000000  0.3607480000000  0.5080580000000 1.0
C      1  0.4186640000000  0.3982930000000  0.5852810000000 1.0
C      1  0.4667520000000  0.5742930000000  0.3673250000000 1.0
C      1  0.3923510000000  0.5507140000000  0.5148790000000 1.0
C      1  0.4083190000000  0.5756900000000  0.4598230000000 1.0
C      1  0.5060090000000  0.5276860000000  0.6070700000000 1.0
C      1  0.5688100000000  0.4636800000000  0.5253150000000 1.0
C      1  0.4780620000000  0.5224220000000  0.4676330000000 1.0
C      1  0.3845540000000  0.5388460000000  0.4905550000000 1.0
C      1  0.6358980000000  0.4920120000000  0.4479550000000 1.0
C      1  0.4122690000000  0.4181610000000  0.5006830000000 1.0
C      1  0.5073670000000  0.5887560000000  0.5177560000000 1.0
C      1  0.3817890000000  0.4822050000000  0.4927800000000 1.0
C      1  0.4887340000000  0.6321310000000  0.4675320000000 1.0
C      1  0.4709930000000  0.4597670000000  0.5284820000000 1.0
C      1  0.4546370000000  0.5299540000000  0.3836690000000 1.0
C      1  0.5746420000000  0.4536420000000  0.5848200000000 1.0
C      1  0.5852860000000  0.5253600000000  0.4159000000000 1.0
C      1  0.4660010000000  0.5446090000000  0.5097640000000 1.0
C      1  0.5964970000000  0.5952450000000  0.5908050000000 1.0
C      1  0.4810770000000  0.5195870000000  0.5152390000000 1.0
C      1  0.5038340000000  0.6288920000000  0.4913210000000 1.0
C      1  0.5905790000000  0.4172460000000  0.5368460000000 1.0
C      1  0.4398240000000  0.4067800000000  0.4622760000000 1.0
C      1  0.5658160000000  0.5530360000000  0.5750200000000 1.0
C      1  0.4909890000000  0.4679600000000  0.6236200000000 1.0
C      1  0.5602180000000  0.4429490000000  0.4836330000000 1.0
C      1  0.5665750000000  0.5784330000000  0.4535970000000 1.0
C      1  0.4936130000000  0.5749590000000  0.4218260000000 1.0
C      1  0.5843720000000  0.3917320000000  0.5325850000000 1.0
C      1  0.4732510000000  0.5482100000000  0.4804640000000 1.0
C      1  0.4108810000000  0.4899060000000  0.4269800000000 1.0
C      1  0.4644810000000  0.4720280000000  0.6219890000000 1.0
C      1  0.5229340000000  0.5349110000000  0.4509330000000 1.0
C      1  0.4304490000000  0.5072260000000  0.5668030000000 1.0
C      1  0.4334930000000  0.5327060000000  0.4372510000000 1.0
C      1  0.5020190000000  0.4173140000000  0.5735740000000 1.0
C      1  0.5769060000000  0.4912330000000  0.5229150000000 1.0
C      1  0.4705240000000  0.5915310000000  0.3481470000000 1.0
C      1  0.5458740000000  0.4968880000000  0.4630660000000 1.0
C      1  0.4353430000000  0.4102890000000  0.5664480000000 1.0
C      1  0.5169360000000  0.5234930000000  0.5506330000000 1.0
C      1  0.4959920000000  0.4479020000000  0.5203320000000 1.0
C      1  0.5221170000000  0.5512330000000  0.5552610000000 1.0
C      1  0.4933880000000  0.4880350000000  0.4009380000000 1.0
C      1  0.5468250000000  0.5392980000000  0.4925160000000 1.0
C      1  0.5109060000000  0.4666110000000  0.3932550000000 1.0
C      1  0.5044840000000  0.4408200000000  0.4058330000000 1.0
C      1  0.5128210000000  0.4797850000000  0.6134260000000 1.0
C      1  0.5180170000000  0.4893670000000  0.5185870000000 1.0
C      1  0.3961340000000  0.4696110000000  0.5148000000000 1.0
C      1  0.5956670000000  0.4972040000000  0.5012390000000 1.0
C      1  0.5786820000000  0.5308210000000  0.5619890000000 1.0
C      1  0.6379610000000  0.5597130000000  0.4606080000000 1.0
C      1  0.5856700000000  0.4433840000000  0.5351160000000 1.0
C      1  0.4562730000000  0.3744650000000  0.5019660000000 1.0
C      1  0.3816540000000  0.4704070000000  0.4665660000000 1.0
C      1  0.5320490000000  0.6285120000000  0.4897910000000 1.0
C      1  0.5072900000000  0.4659600000000  0.4705910000000 1.0
C      1  0.4544770000000  0.5187590000000  0.5570130000000 1.0
C      1  0.4679540000000  0.5642600000000  0.4154920000000 1.0
C      1  0.4764810000000  0.5046640000000  0.4912870000000 1.0
C      1  0.5370820000000  0.5225670000000  0.4723150000000 1.0
C      1  0.4787440000000  0.5031070000000  0.4449300000000 1.0
C      1  0.5620850000000  0.5625370000000  0.4982980000000 1.0
C      1  0.4481280000000  0.5061170000000  0.3972760000000 1.0
C      1  0.5296230000000  0.4150780000000  0.4486210000000 1.0
C      1  0.4640180000000  0.6102680000000  0.5162070000000 1.0
C      1  0.4946550000000  0.4203960000000  0.4793570000000 1.0
C      1  0.5108570000000  0.5759980000000  0.4928830000000 1.0
C      1  0.4763560000000  0.4343990000000  0.4017100000000 1.0
C      1  0.5196160000000  0.5809770000000  0.4259920000000 1.0
C      1  0.5698960000000  0.3717320000000  0.5226950000000 1.0
C      1  0.4584540000000  0.4266520000000  0.5095010000000 1.0
C      1  0.4573580000000  0.3793770000000  0.5305510000000 1.0
C      1  0.4477760000000  0.6052730000000  0.4932840000000 1.0
C      1  0.6091330000000  0.4929230000000  0.4531750000000 1.0
C      1  0.4656420000000  0.4497330000000  0.4525100000000 1.0
C      1  0.6297720000000  0.5136230000000  0.5298510000000 1.0
C      1  0.5301600000000  0.4742790000000  0.4581920000000 1.0
C      1  0.4032340000000  0.3871200000000  0.6030610000000 1.0
C      1  0.5050840000000  0.5124650000000  0.5279890000000 1.0
C      1  0.5875000000000  0.5581350000000  0.5093550000000 1.0
C      1  0.5515990000000  0.4231770000000  0.4654320000000 1.0
C      1  0.4328750000000  0.4888640000000  0.4938960000000 1.0
C      1  0.4463780000000  0.5595310000000  0.4341160000000 1.0
C      1  0.6073990000000  0.5441860000000  0.4947590000000 1.0
C      1  0.4180890000000  0.5507520000000  0.5224240000000 1.0
C      1  0.6167410000000  0.4813170000000  0.5674370000000 1.0
C      1  0.4476370000000  0.5750490000000  0.5489020000000 1.0
C      1  0.5242580000000  0.5044250000000  0.5709940000000 1.0
C      1  0.4529580000000  0.4250250000000  0.4442020000000 1.0
C      1  0.5235470000000  0.5498860000000  0.6031410000000 1.0
C      1  0.5904130000000  0.5043190000000  0.4353780000000 1.0
C      1  0.4776830000000  0.4305800000000  0.5796470000000 1.0
C      1  0.4923570000000  0.5678700000000  0.4754950000000 1.0
C      1  0.5979030000000  0.4816290000000  0.4773270000000 1.0
C      1  0.5208430000000  0.4614060000000  0.5159590000000 1.0
C      1  0.3995390000000  0.5502830000000  0.4680140000000 1.0
C      1  0.4485190000000  0.4906620000000  0.6080900000000 1.0
C      1  0.4688460000000  0.6195770000000  0.4541150000000 1.0
C      1  0.5101070000000  0.4017620000000  0.4648800000000 1.0
C      1  0.3941380000000  0.4759840000000  0.4430240000000 1.0
C      1  0.4519390000000  0.3849510000000  0.4770320000000 1.0
C      1  0.5179150000000  0.5028190000000  0.5984550000000 1.0
C      1  0.6219900000000  0.5070940000000  0.5566110000000 1.0
C      1  0.5701270000000  0.5118670000000  0.5419500000000 1.0
C      1  0.6117610000000  0.5553520000000  0.4681780000000 1.0
C      1  0.5368050000000  0.4584990000000  0.4355210000000 1.0
C      1  0.5635620000000  0.4984240000000  0.4419680000000 1.0
C      1  0.5305280000000  0.3616960000000  0.4905860000000 1.0
C      1  0.5135770000000  0.5736140000000  0.5404950000000 1.0
C      1  0.6112730000000  0.6155240000000  0.5978770000000 1.0
C      1  0.5273950000000  0.4286430000000  0.5790410000000 1.0
C      1  0.5476550000000  0.4533030000000  0.5081230000000 1.0
C      1  0.5483230000000  0.5182680000000  0.4151930000000 1.0
C      1  0.6142740000000  0.5185260000000  0.5062740000000 1.0
C      1  0.5908100000000  0.5631750000000  0.4488960000000 1.0
C      1  0.5922340000000  0.5510310000000  0.4231950000000 1.0
C      1  0.4546460000000  0.5192420000000  0.6131770000000 1.0
C      1  0.6060850000000  0.5272210000000  0.5686550000000 1.0
C      1  0.5308800000000  0.4694250000000  0.3748510000000 1.0
C      1  0.4381070000000  0.3993240000000  0.5401360000000 1.0
C      1  0.4339030000000  0.4174970000000  0.5186420000000 1.0
C      1  0.4551740000000  0.6009870000000  0.5412660000000 1.0
C      1  0.4113210000000  0.5266160000000  0.5746150000000 1.0
C      1  0.4606760000000  0.4559610000000  0.3903070000000 1.0
C      1  0.5980830000000  0.4658200000000  0.5793830000000 1.0
C      1  0.4578610000000  0.4854220000000  0.4828490000000 1.0
C      1  0.4193190000000  0.5295060000000  0.4617950000000 1.0
C      1  0.4220780000000  0.5487400000000  0.5894420000000 1.0
C      1  0.4410390000000  0.4605950000000  0.5656170000000 1.0
C      1  0.5219890000000  0.5218520000000  0.4254900000000 1.0
C      1  0.4735320000000  0.5307600000000  0.5718950000000 1.0
C      1  0.4352030000000  0.5810950000000  0.4511110000000 1.0
C      1  0.4502350000000  0.4342380000000  0.5732030000000 1.0
C      1  0.4453550000000  0.5563700000000  0.5266630000000 1.0
C      1  0.5233430000000  0.4342630000000  0.4270760000000 1.0
C      1  0.4923330000000  0.6129810000000  0.5127360000000 1.0
C      1  0.4656120000000  0.4836890000000  0.3940130000000 1.0
C      1  0.4986980000000  0.3927870000000  0.5597090000000 1.0
C      1  0.4632360000000  0.5562910000000  0.3882990000000 1.0
C      1  0.4859740000000  0.4240750000000  0.5056560000000 1.0
C      1  0.4785000000000  0.5286990000000  0.5998670000000 1.0
C      1  0.5605360000000  0.5850440000000  0.4807110000000 1.0
C      1  0.5377800000000  0.5549290000000  0.5789200000000 1.0
C      1  0.5150380000000  0.3759190000000  0.4742030000000 1.0
C      1  0.5841340000000  0.4569510000000  0.4764960000000 1.0
END
