TITL C-3623283-6828-1375 98849.912977337 125000 -1043.47480150946 0 0 172 (C1) n - 1
REM
REM in /home/nfs/bkarasulu/CARBON/AIRSS/Generating-Clusters/LCBOP/Higher-Symm/SD-CG/FIRE-CG
REM
REM
REM
REM
REM
REM ./C.cell (b20cbc046b6831c77cfcea5457e17084)
REM AIRSS Version 0.9.1 bugfix July 2018 build 013d7b7c2542+ Fri, 06 Jul 2018 19:26:36 +0100
REM compiler GCC version 9.2.1 20190827 (Red Hat 9.2.1-1)
REM options -cpp -mtune=generic -march=x86-64 -g -O0 -fpre-include=/usr/include/finclude/math-vector-fortran.h
REM seed 271375047 688133253 -1355531307 1116089481 1332002574 -654674386 1872543943 1930031943 336899018 558611916 900395322 -92873878 284978394 1354065340 -274667368 1508311812 -1990332621 -2062814870 1631724042 125112619 -1062666459 -1118552931 1878940032 -59639986 1076873828 -447201889 -511059410 1002714447 1671250539 -1862336162 -696659291 24217281 760632724
REM
CELL 1.54180   50.00000   50.00000   50.00000   90.00000   90.00000   90.00000
LATT -1
SFAC C  
C      1  0.5410560000000  0.4535840000000  0.4696230000000 1.0
C      1  0.5253140000000  0.4207900000000  0.5234690000000 1.0
C      1  0.5147950000000  0.6275290000000  0.5334470000000 1.0
C      1  0.3954450000000  0.4537390000000  0.4471130000000 1.0
C      1  0.4829870000000  0.3846170000000  0.4153450000000 1.0
C      1  0.5311660000000  0.5390120000000  0.4349320000000 1.0
C      1  0.4335280000000  0.5163060000000  0.5391120000000 1.0
C      1  0.4250890000000  0.4838510000000  0.5898810000000 1.0
C      1  0.4934120000000  0.5407890000000  0.5023340000000 1.0
C      1  0.5695800000000  0.3760790000000  0.5235230000000 1.0
C      1  0.5872310000000  0.4989660000000  0.5430570000000 1.0
C      1  0.4853250000000  0.4932730000000  0.6117130000000 1.0
C      1  0.5614990000000  0.3856370000000  0.5474140000000 1.0
C      1  0.4526950000000  0.4888200000000  0.4064040000000 1.0
C      1  0.4633650000000  0.5113960000000  0.6134460000000 1.0
C      1  0.5748140000000  0.5855430000000  0.5542910000000 1.0
C      1  0.4808850000000  0.4820020000000  0.4086260000000 1.0
C      1  0.4989360000000  0.3926510000000  0.4960040000000 1.0
C      1  0.4777170000000  0.5185300000000  0.4944620000000 1.0
C      1  0.5323940000000  0.5219730000000  0.6037430000000 1.0
C      1  0.4741220000000  0.5975430000000  0.5451340000000 1.0
C      1  0.5778720000000  0.5290360000000  0.4092200000000 1.0
C      1  0.4315750000000  0.4799420000000  0.4270160000000 1.0
C      1  0.5506150000000  0.4979050000000  0.4851830000000 1.0
C      1  0.5384870000000  0.4716010000000  0.5835020000000 1.0
C      1  0.4808960000000  0.5572360000000  0.3997080000000 1.0
C      1  0.5482230000000  0.4589470000000  0.4260500000000 1.0
C      1  0.4956010000000  0.4736400000000  0.5528550000000 1.0
C      1  0.5742630000000  0.5772330000000  0.4964070000000 1.0
C      1  0.4014970000000  0.5166840000000  0.4573110000000 1.0
C      1  0.4706960000000  0.5061320000000  0.4517250000000 1.0
C      1  0.5332350000000  0.4459380000000  0.5413270000000 1.0
C      1  0.4220790000000  0.5868750000000  0.4448310000000 1.0
C      1  0.4741940000000  0.4020030000000  0.4860260000000 1.0
C      1  0.5769040000000  0.5310370000000  0.4575880000000 1.0
C      1  0.3900460000000  0.5063830000000  0.4818330000000 1.0
C      1  0.5107510000000  0.4705100000000  0.5074540000000 1.0
C      1  0.5770550000000  0.4190670000000  0.4705870000000 1.0
C      1  0.5038150000000  0.5427140000000  0.5643330000000 1.0
C      1  0.4939390000000  0.4030240000000  0.5493380000000 1.0
C      1  0.5807550000000  0.4642990000000  0.4424940000000 1.0
C      1  0.4466680000000  0.4654400000000  0.5008420000000 1.0
C      1  0.4473940000000  0.5195440000000  0.4443660000000 1.0
C      1  0.4038500000000  0.5887180000000  0.4675680000000 1.0
C      1  0.5583060000000  0.4765230000000  0.4676590000000 1.0
C      1  0.5214840000000  0.5261140000000  0.3821920000000 1.0
C      1  0.5315460000000  0.5045190000000  0.5457280000000 1.0
C      1  0.5273470000000  0.5737540000000  0.4822050000000 1.0
C      1  0.5501220000000  0.5928120000000  0.5429520000000 1.0
C      1  0.5150900000000  0.4470610000000  0.3992470000000 1.0
C      1  0.4676320000000  0.4141250000000  0.5488030000000 1.0
C      1  0.4417150000000  0.6027620000000  0.4329710000000 1.0
C      1  0.3997720000000  0.4805620000000  0.4883190000000 1.0
C      1  0.5719770000000  0.3768410000000  0.4966610000000 1.0
C      1  0.4430420000000  0.4592140000000  0.5501330000000 1.0
C      1  0.5805520000000  0.4520520000000  0.5515240000000 1.0
C      1  0.4680920000000  0.4428000000000  0.4586620000000 1.0
C      1  0.5077290000000  0.5166900000000  0.5561190000000 1.0
C      1  0.5576200000000  0.4338400000000  0.5561430000000 1.0
C      1  0.4226560000000  0.4543420000000  0.4386520000000 1.0
C      1  0.4919900000000  0.4525740000000  0.4429590000000 1.0
C      1  0.4636740000000  0.4675050000000  0.4783530000000 1.0
C      1  0.5139510000000  0.5852250000000  0.6419350000000 1.0
C      1  0.4017700000000  0.5450070000000  0.4542640000000 1.0
C      1  0.4711590000000  0.5826430000000  0.5963310000000 1.0
C      1  0.5642860000000  0.4553250000000  0.5078790000000 1.0
C      1  0.5612210000000  0.4886750000000  0.5801500000000 1.0
C      1  0.4442230000000  0.5436350000000  0.4296790000000 1.0
C      1  0.5476990000000  0.5290350000000  0.4547520000000 1.0
C      1  0.5671600000000  0.5031220000000  0.4049030000000 1.0
C      1  0.4913400000000  0.4559200000000  0.4144740000000 1.0
C      1  0.4593820000000  0.5085280000000  0.5525560000000 1.0
C      1  0.5878850000000  0.4544290000000  0.5231520000000 1.0
C      1  0.5567700000000  0.5197200000000  0.5329040000000 1.0
C      1  0.3825190000000  0.6191050000000  0.5626030000000 1.0
C      1  0.5565380000000  0.5791590000000  0.4464870000000 1.0
C      1  0.3832190000000  0.5224420000000  0.5051250000000 1.0
C      1  0.6089630000000  0.4712050000000  0.5122340000000 1.0
C      1  0.5380870000000  0.4645430000000  0.5175010000000 1.0
C      1  0.4219620000000  0.5586890000000  0.4381420000000 1.0
C      1  0.5340730000000  0.5695710000000  0.5377960000000 1.0
C      1  0.5072320000000  0.5779050000000  0.4370100000000 1.0
C      1  0.5424020000000  0.4169630000000  0.5024060000000 1.0
C      1  0.5677160000000  0.3914410000000  0.4728530000000 1.0
C      1  0.5000920000000  0.5025280000000  0.4132910000000 1.0
C      1  0.5309820000000  0.4783460000000  0.4319740000000 1.0
C      1  0.5156790000000  0.4654620000000  0.4573080000000 1.0
C      1  0.3887410000000  0.4601240000000  0.4725860000000 1.0
C      1  0.5326360000000  0.5672770000000  0.4336960000000 1.0
C      1  0.4792400000000  0.5810120000000  0.4829400000000 1.0
C      1  0.6206860000000  0.5209880000000  0.5166880000000 1.0
C      1  0.4768430000000  0.4136260000000  0.4604910000000 1.0
C      1  0.4248620000000  0.4188280000000  0.5675140000000 1.0
C      1  0.4331950000000  0.5090500000000  0.5102320000000 1.0
C      1  0.4804400000000  0.4937500000000  0.4768330000000 1.0
C      1  0.4381970000000  0.5002830000000  0.6066700000000 1.0
C      1  0.4172070000000  0.5910550000000  0.5354100000000 1.0
C      1  0.4775340000000  0.4658140000000  0.6051810000000 1.0
C      1  0.5803550000000  0.4794730000000  0.5618500000000 1.0
C      1  0.5684550000000  0.5357850000000  0.5600010000000 1.0
C      1  0.5266470000000  0.5471790000000  0.6149500000000 1.0
C      1  0.4697160000000  0.6029870000000  0.4295200000000 1.0
C      1  0.4363120000000  0.5706860000000  0.5337630000000 1.0
C      1  0.5560170000000  0.5179810000000  0.5841790000000 1.0
C      1  0.5332020000000  0.4960060000000  0.3972870000000 1.0
C      1  0.6094570000000  0.4966070000000  0.5258780000000 1.0
C      1  0.4810420000000  0.3987270000000  0.4371690000000 1.0
C      1  0.3991290000000  0.6068910000000  0.5466330000000 1.0
C      1  0.5340570000000  0.5208140000000  0.4780620000000 1.0
C      1  0.4248760000000  0.4829460000000  0.5012790000000 1.0
C      1  0.4785090000000  0.5655870000000  0.5063810000000 1.0
C      1  0.5418040000000  0.3934140000000  0.4570530000000 1.0
C      1  0.4383540000000  0.4365560000000  0.4553170000000 1.0
C      1  0.4502290000000  0.5150750000000  0.3931850000000 1.0
C      1  0.5835940000000  0.5595390000000  0.5457720000000 1.0
C      1  0.4659740000000  0.4452720000000  0.5916590000000 1.0
C      1  0.4854970000000  0.4996120000000  0.5575930000000 1.0
C      1  0.4489630000000  0.4079250000000  0.4982440000000 1.0
C      1  0.4809930000000  0.5630430000000  0.6137880000000 1.0
C      1  0.4043260000000  0.4066450000000  0.4774850000000 1.0
C      1  0.5810520000000  0.5715070000000  0.4341670000000 1.0
C      1  0.5261310000000  0.4701420000000  0.3831680000000 1.0
C      1  0.4881520000000  0.4651450000000  0.5265560000000 1.0
C      1  0.4697740000000  0.5950760000000  0.5728470000000 1.0
C      1  0.5274630000000  0.4743540000000  0.6088770000000 1.0
C      1  0.5078850000000  0.5240720000000  0.4286350000000 1.0
C      1  0.3824150000000  0.5503080000000  0.4987790000000 1.0
C      1  0.5139990000000  0.4993750000000  0.6118420000000 1.0
C      1  0.5868080000000  0.5266040000000  0.4846680000000 1.0
C      1  0.4222980000000  0.4049890000000  0.5433110000000 1.0
C      1  0.4094010000000  0.4993810000000  0.5475070000000 1.0
C      1  0.4500510000000  0.5246010000000  0.4951120000000 1.0
C      1  0.5006250000000  0.5895000000000  0.4642710000000 1.0
C      1  0.5031150000000  0.5444740000000  0.3852230000000 1.0
C      1  0.3871420000000  0.5094340000000  0.5312720000000 1.0
C      1  0.4293450000000  0.5451360000000  0.5422970000000 1.0
C      1  0.4467950000000  0.4062020000000  0.5272160000000 1.0
C      1  0.5187290000000  0.3876820000000  0.4743700000000 1.0
C      1  0.5487140000000  0.4146210000000  0.4341100000000 1.0
C      1  0.5900940000000  0.5610940000000  0.5160690000000 1.0
C      1  0.4593630000000  0.4610450000000  0.5255590000000 1.0
C      1  0.5395150000000  0.5469450000000  0.5215940000000 1.0
C      1  0.4513180000000  0.4345570000000  0.5676410000000 1.0
C      1  0.4673950000000  0.5387550000000  0.6173940000000 1.0
C      1  0.5047020000000  0.4018160000000  0.5226440000000 1.0
C      1  0.4294990000000  0.4178050000000  0.4777460000000 1.0
C      1  0.5831640000000  0.4833510000000  0.4174660000000 1.0
C      1  0.5477870000000  0.4062740000000  0.5617670000000 1.0
C      1  0.4567280000000  0.5413510000000  0.4040100000000 1.0
C      1  0.6148420000000  0.4682530000000  0.4845570000000 1.0
C      1  0.5747640000000  0.4287880000000  0.4439340000000 1.0
C      1  0.3923120000000  0.5631450000000  0.4755260000000 1.0
C      1  0.5221260000000  0.4665250000000  0.5604410000000 1.0
C      1  0.5182520000000  0.4027020000000  0.5667840000000 1.0
C      1  0.5364430000000  0.4347720000000  0.4161830000000 1.0
C      1  0.4223200000000  0.4775360000000  0.5621570000000 1.0
C      1  0.5537220000000  0.5802130000000  0.4756730000000 1.0
C      1  0.4234610000000  0.5032710000000  0.4436990000000 1.0
C      1  0.5692480000000  0.5104920000000  0.5014470000000 1.0
C      1  0.6055970000000  0.4659180000000  0.4592120000000 1.0
C      1  0.5075340000000  0.5656320000000  0.6240230000000 1.0
C      1  0.4636480000000  0.5768910000000  0.5282150000000 1.0
C      1  0.5394470000000  0.6179450000000  0.5375120000000 1.0
C      1  0.4856180000000  0.6142820000000  0.4522610000000 1.0
C      1  0.4896860000000  0.6186440000000  0.5353810000000 1.0
C      1  0.4852320000000  0.5800550000000  0.4179510000000 1.0
C      1  0.5857580000000  0.5434210000000  0.4328430000000 1.0
C      1  0.5136730000000  0.5659320000000  0.5564650000000 1.0
C      1  0.5062740000000  0.4809030000000  0.4811250000000 1.0
C      1  0.5228910000000  0.5440640000000  0.4957500000000 1.0
C      1  0.6043330000000  0.5397440000000  0.5030320000000 1.0
C      1  0.5578550000000  0.4354680000000  0.4868000000000 1.0
END
