TITL C-3623286-7563-58 0.0372763849152809 125000 -1110.0061246193 0 0 183 (C1) n - 1
REM
REM in /home/nfs/bkarasulu/CARBON/AIRSS/Generating-Clusters/LCBOP/Higher-Symm/SD-CG/FIRE-CG
REM
REM
REM
REM
REM
REM ./C.cell (b20cbc046b6831c77cfcea5457e17084)
REM AIRSS Version 0.9.1 bugfix July 2018 build 013d7b7c2542+ Fri, 06 Jul 2018 19:26:36 +0100
REM compiler GCC version 9.2.1 20190827 (Red Hat 9.2.1-1)
REM options -cpp -mtune=generic -march=x86-64 -g -O0 -fpre-include=/usr/include/finclude/math-vector-fortran.h
REM seed -1610479236 -68802093 1963099608 -985451583 -2105006065 987124412 575960999 -535283095 1273040230 348663441 -1165665340 -1033042953 120177020 1488353314 603755180 1618710321 -1422229688 -1309608435 269043341 -675612506 -2064376683 29770027 374717074 1551759677 2071117405 -415843523 724415771 -152267841 1485292258 726821207 860952349 1248390178 2125590471
REM
CELL 1.54180   50.00000   50.00000   50.00000   90.00000   90.00000   90.00000
LATT -1
SFAC C  
C      1  0.5381450000000  0.4432510000000  0.5788710000000 1.0
C      1  0.5507750000000  0.4428770000000  0.4250240000000 1.0
C      1  0.4079450000000  0.4406640000000  0.4939930000000 1.0
C      1  0.5396430000000  0.5584890000000  0.5837930000000 1.0
C      1  0.5496220000000  0.5577910000000  0.4251420000000 1.0
C      1  0.4119670000000  0.5562730000000  0.4935760000000 1.0
C      1  0.4702140000000  0.4266390000000  0.5242820000000 1.0
C      1  0.5328200000000  0.4326720000000  0.5072710000000 1.0
C      1  0.4930710000000  0.4277590000000  0.4669700000000 1.0
C      1  0.4773900000000  0.5686940000000  0.5239080000000 1.0
C      1  0.5342520000000  0.5728610000000  0.5142640000000 1.0
C      1  0.4925280000000  0.5703520000000  0.4637530000000 1.0
C      1  0.4618850000000  0.5376480000000  0.6074860000000 1.0
C      1  0.6115980000000  0.5399500000000  0.4781210000000 1.0
C      1  0.4257000000000  0.5365020000000  0.4133340000000 1.0
C      1  0.4616080000000  0.4612280000000  0.6070910000000 1.0
C      1  0.6118850000000  0.4637340000000  0.4785690000000 1.0
C      1  0.4271220000000  0.4603750000000  0.4150710000000 1.0
C      1  0.5353570000000  0.3811500000000  0.4344430000000 1.0
C      1  0.4227110000000  0.3793750000000  0.5050190000000 1.0
C      1  0.5371840000000  0.3822780000000  0.5569600000000 1.0
C      1  0.5322390000000  0.6192400000000  0.4338160000000 1.0
C      1  0.4306910000000  0.6176410000000  0.5023500000000 1.0
C      1  0.5414890000000  0.6196670000000  0.5651970000000 1.0
C      1  0.4625350000000  0.5620140000000  0.5893500000000 1.0
C      1  0.5962800000000  0.5644190000000  0.4872150000000 1.0
C      1  0.4416460000000  0.5611050000000  0.4218170000000 1.0
C      1  0.4610040000000  0.4369260000000  0.5887610000000 1.0
C      1  0.5958940000000  0.4395760000000  0.4877640000000 1.0
C      1  0.4423470000000  0.4361640000000  0.4245850000000 1.0
C      1  0.5621820000000  0.5306130000000  0.4730300000000 1.0
C      1  0.4442220000000  0.5274100000000  0.4580340000000 1.0
C      1  0.4935610000000  0.5268660000000  0.5707740000000 1.0
C      1  0.5643000000000  0.4748020000000  0.4705030000000 1.0
C      1  0.4441830000000  0.4716040000000  0.4616180000000 1.0
C      1  0.4911640000000  0.4711200000000  0.5680310000000 1.0
C      1  0.5047260000000  0.5248250000000  0.5966460000000 1.0
C      1  0.5780090000000  0.5259840000000  0.4499270000000 1.0
C      1  0.4162300000000  0.5237090000000  0.4565680000000 1.0
C      1  0.5034140000000  0.4750340000000  0.5933030000000 1.0
C      1  0.5804500000000  0.4763290000000  0.4474380000000 1.0
C      1  0.4161620000000  0.4738700000000  0.4577180000000 1.0
C      1  0.4870630000000  0.5271080000000  0.3990570000000 1.0
C      1  0.4208240000000  0.5286750000000  0.5610460000000 1.0
C      1  0.5970720000000  0.5305480000000  0.5370520000000 1.0
C      1  0.4863130000000  0.4697440000000  0.4016070000000 1.0
C      1  0.4181860000000  0.4712240000000  0.5638720000000 1.0
C      1  0.5922420000000  0.4729230000000  0.5382930000000 1.0
C      1  0.4603560000000  0.4084870000000  0.5070960000000 1.0
C      1  0.5233400000000  0.4149420000000  0.5250960000000 1.0
C      1  0.5135220000000  0.4104640000000  0.4648560000000 1.0
C      1  0.4658760000000  0.5858120000000  0.5066680000000 1.0
C      1  0.5242470000000  0.5905490000000  0.5318860000000 1.0
C      1  0.5121780000000  0.5885510000000  0.4642040000000 1.0
C      1  0.5935800000000  0.5742170000000  0.5160540000000 1.0
C      1  0.4684080000000  0.5706050000000  0.4103450000000 1.0
C      1  0.4405520000000  0.5716850000000  0.5705700000000 1.0
C      1  0.5913140000000  0.4299100000000  0.5162350000000 1.0
C      1  0.4692030000000  0.4264180000000  0.4140190000000 1.0
C      1  0.4371620000000  0.4273550000000  0.5719000000000 1.0
C      1  0.5563000000000  0.5774880000000  0.4467860000000 1.0
C      1  0.4281290000000  0.5750580000000  0.4767020000000 1.0
C      1  0.5174260000000  0.5779200000000  0.5787950000000 1.0
C      1  0.5574060000000  0.4240820000000  0.4473080000000 1.0
C      1  0.4235260000000  0.4210370000000  0.4775160000000 1.0
C      1  0.5156970000000  0.4242390000000  0.5728540000000 1.0
C      1  0.4233390000000  0.3793410000000  0.5554370000000 1.0
C      1  0.5818370000000  0.3811810000000  0.5338330000000 1.0
C      1  0.4908480000000  0.3786000000000  0.4111410000000 1.0
C      1  0.4297960000000  0.6199880000000  0.5525940000000 1.0
C      1  0.5834010000000  0.6213860000000  0.5368170000000 1.0
C      1  0.4888480000000  0.6190910000000  0.4080880000000 1.0
C      1  0.3560880000000  0.4733630000000  0.5005360000000 1.0
C      1  0.5708050000000  0.4714940000000  0.6227430000000 1.0
C      1  0.5687550000000  0.4748720000000  0.3747890000000 1.0
C      1  0.3588170000000  0.5266800000000  0.5026770000000 1.0
C      1  0.5733570000000  0.5248790000000  0.6235150000000 1.0
C      1  0.5731420000000  0.5281700000000  0.3765620000000 1.0
C      1  0.5319370000000  0.5335080000000  0.5990230000000 1.0
C      1  0.5668730000000  0.5334840000000  0.4246580000000 1.0
C      1  0.4014350000000  0.5319990000000  0.4795720000000 1.0
C      1  0.5307950000000  0.4671080000000  0.5952660000000 1.0
C      1  0.5680400000000  0.4674490000000  0.4231920000000 1.0
C      1  0.3993500000000  0.4655330000000  0.4793540000000 1.0
C      1  0.5712800000000  0.4886420000000  0.3515080000000 1.0
C      1  0.3357380000000  0.4870850000000  0.5121670000000 1.0
C      1  0.5915610000000  0.4834710000000  0.6355290000000 1.0
C      1  0.5736390000000  0.5157160000000  0.3524230000000 1.0
C      1  0.3371530000000  0.5142120000000  0.5133030000000 1.0
C      1  0.5929010000000  0.5106230000000  0.6358650000000 1.0
C      1  0.5390640000000  0.4870800000000  0.5533000000000 1.0
C      1  0.5258990000000  0.4855370000000  0.4349260000000 1.0
C      1  0.4325970000000  0.4871880000000  0.5081870000000 1.0
C      1  0.5419990000000  0.5127930000000  0.5553630000000 1.0
C      1  0.5263120000000  0.5117150000000  0.4348630000000 1.0
C      1  0.4348340000000  0.5130700000000  0.5076400000000 1.0
C      1  0.4661470000000  0.4688330000000  0.5557930000000 1.0
C      1  0.5645280000000  0.4728810000000  0.4983860000000 1.0
C      1  0.4683420000000  0.4702250000000  0.4475730000000 1.0
C      1  0.4694350000000  0.5284720000000  0.5566510000000 1.0
C      1  0.5642370000000  0.5320290000000  0.5009260000000 1.0
C      1  0.4673790000000  0.5301140000000  0.4425460000000 1.0
C      1  0.5373930000000  0.4036610000000  0.4512750000000 1.0
C      1  0.4366550000000  0.4009780000000  0.4935680000000 1.0
C      1  0.5223010000000  0.4056210000000  0.5517940000000 1.0
C      1  0.5355320000000  0.5970380000000  0.4508020000000 1.0
C      1  0.4429060000000  0.5942700000000  0.4924280000000 1.0
C      1  0.5245080000000  0.5979880000000  0.5592290000000 1.0
C      1  0.4856550000000  0.4716000000000  0.5156240000000 1.0
C      1  0.5212080000000  0.4788240000000  0.4906680000000 1.0
C      1  0.4925100000000  0.4730480000000  0.4874580000000 1.0
C      1  0.4975650000000  0.5225870000000  0.5224560000000 1.0
C      1  0.5195890000000  0.5270970000000  0.5068230000000 1.0
C      1  0.4853880000000  0.5256060000000  0.4819400000000 1.0
C      1  0.4361750000000  0.5996680000000  0.5687230000000 1.0
C      1  0.5932910000000  0.6021150000000  0.5211470000000 1.0
C      1  0.4718530000000  0.5985380000000  0.4064090000000 1.0
C      1  0.4315910000000  0.3995360000000  0.5708630000000 1.0
C      1  0.5925690000000  0.4019500000000  0.5209130000000 1.0
C      1  0.4730330000000  0.3985230000000  0.4105290000000 1.0
C      1  0.6055660000000  0.4866070000000  0.4595710000000 1.0
C      1  0.4142250000000  0.4833490000000  0.4295270000000 1.0
C      1  0.4807770000000  0.4845190000000  0.6101470000000 1.0
C      1  0.6041570000000  0.5166050000000  0.4606040000000 1.0
C      1  0.4135430000000  0.5133180000000  0.4288470000000 1.0
C      1  0.4811690000000  0.5145850000000  0.6116940000000 1.0
C      1  0.3813030000000  0.5142750000000  0.4899070000000 1.0
C      1  0.5505760000000  0.5143530000000  0.6096840000000 1.0
C      1  0.5696530000000  0.5157770000000  0.4021900000000 1.0
C      1  0.3799990000000  0.4843900000000  0.4891960000000 1.0
C      1  0.5494730000000  0.4844520000000  0.6085900000000 1.0
C      1  0.5685400000000  0.4859240000000  0.4012040000000 1.0
C      1  0.5154330000000  0.3716480000000  0.4191330000000 1.0
C      1  0.4186360000000  0.3714100000000  0.5303240000000 1.0
C      1  0.5610220000000  0.3732110000000  0.5486260000000 1.0
C      1  0.5125020000000  0.6273040000000  0.4175090000000 1.0
C      1  0.4265360000000  0.6272680000000  0.5270560000000 1.0
C      1  0.5646890000000  0.6281910000000  0.5546890000000 1.0
C      1  0.6088340000000  0.4874090000000  0.5557880000000 1.0
C      1  0.4937190000000  0.4840490000000  0.3785220000000 1.0
C      1  0.3956970000000  0.4875800000000  0.5678950000000 1.0
C      1  0.6115650000000  0.5143510000000  0.5549140000000 1.0
C      1  0.4945600000000  0.5110700000000  0.3772740000000 1.0
C      1  0.3970670000000  0.5145740000000  0.5663180000000 1.0
C      1  0.4513040000000  0.5326560000000  0.5129980000000 1.0
C      1  0.5455350000000  0.5375910000000  0.5445150000000 1.0
C      1  0.5150340000000  0.5322930000000  0.4467830000000 1.0
C      1  0.4396120000000  0.4625150000000  0.5175380000000 1.0
C      1  0.5345730000000  0.4683280000000  0.5356600000000 1.0
C      1  0.5148720000000  0.4651020000000  0.4473390000000 1.0
C      1  0.5781640000000  0.5756110000000  0.4662870000000 1.0
C      1  0.4329180000000  0.5728280000000  0.4478940000000 1.0
C      1  0.4894980000000  0.5741670000000  0.5863250000000 1.0
C      1  0.5788230000000  0.4275650000000  0.4666820000000 1.0
C      1  0.4315630000000  0.4243670000000  0.4496150000000 1.0
C      1  0.4881240000000  0.4257280000000  0.5828570000000 1.0
C      1  0.4179560000000  0.4440500000000  0.5229310000000 1.0
C      1  0.5633680000000  0.4407160000000  0.5621260000000 1.0
C      1  0.5231920000000  0.4386830000000  0.4119620000000 1.0
C      1  0.4141210000000  0.5598900000000  0.5237110000000 1.0
C      1  0.5594920000000  0.5561520000000  0.5605930000000 1.0
C      1  0.5224260000000  0.5601460000000  0.4111150000000 1.0
C      1  0.4932960000000  0.5545440000000  0.4050620000000 1.0
C      1  0.4237700000000  0.5555300000000  0.5517760000000 1.0
C      1  0.5884270000000  0.5576740000000  0.5402790000000 1.0
C      1  0.4934950000000  0.4427960000000  0.4079610000000 1.0
C      1  0.4196690000000  0.4439560000000  0.5537490000000 1.0
C      1  0.5830810000000  0.4458910000000  0.5401440000000 1.0
C      1  0.4745230000000  0.5397820000000  0.5293940000000 1.0
C      1  0.5411870000000  0.5443200000000  0.5160150000000 1.0
C      1  0.4898680000000  0.5417160000000  0.4583880000000 1.0
C      1  0.4657970000000  0.4553670000000  0.5287610000000 1.0
C      1  0.5385890000000  0.4617420000000  0.5075740000000 1.0
C      1  0.4906780000000  0.4565900000000  0.4627320000000 1.0
C      1  0.5826010000000  0.5162560000000  0.5162820000000 1.0
C      1  0.4739370000000  0.5133040000000  0.4207540000000 1.0
C      1  0.4453950000000  0.5137030000000  0.5620220000000 1.0
C      1  0.5810570000000  0.4876950000000  0.5162640000000 1.0
C      1  0.4741800000000  0.4847000000000  0.4231610000000 1.0
C      1  0.4437510000000  0.4850990000000  0.5629110000000 1.0
C      1  0.5273020000000  0.5060710000000  0.4899240000000 1.0
C      1  0.4931340000000  0.4954030000000  0.5287930000000 1.0
C      1  0.4801430000000  0.4997300000000  0.4813150000000 1.0
END
