TITL C-3623288-6813-2007 12605.8731647489 125000 -1116.95737665823 0 0 183 (C1) n - 1
REM
REM in /home/nfs/bkarasulu/CARBON/AIRSS/Generating-Clusters/LCBOP/Higher-Symm/SD-CG/FIRE-CG
REM
REM
REM
REM
REM
REM ./C.cell (b20cbc046b6831c77cfcea5457e17084)
REM AIRSS Version 0.9.1 bugfix July 2018 build 013d7b7c2542+ Fri, 06 Jul 2018 19:26:36 +0100
REM compiler GCC version 9.2.1 20190827 (Red Hat 9.2.1-1)
REM options -cpp -mtune=generic -march=x86-64 -g -O0 -fpre-include=/usr/include/finclude/math-vector-fortran.h
REM seed -337923888 1090608746 -1021745572 -69223727 1884463920 -1007748353 -1140993314 487106792 844062584 -1037281080 -904207955 -1130605243 -939567310 567816451 990164941 1104925346 -1898443877 -2030959337 2109669209 -1537821008 -1014010094 1894728073 1445840272 -767591301 862352112 460381998 -1843276013 -1761056079 -2124249569 -363738008 -934869116 1373613815 -617139531
REM
CELL 1.54180   50.00000   50.00000   50.00000   90.00000   90.00000   90.00000
LATT -1
SFAC C  
C      1  0.5638510000000  0.4599540000000  0.4824210000000 1.0
C      1  0.5726010000000  0.5275390000000  0.4886730000000 1.0
C      1  0.5594520000000  0.4954620000000  0.5463950000000 1.0
C      1  0.5153140000000  0.5464570000000  0.3876370000000 1.0
C      1  0.5115860000000  0.5626380000000  0.5981280000000 1.0
C      1  0.5072790000000  0.3836100000000  0.5120130000000 1.0
C      1  0.5540270000000  0.4682640000000  0.5081840000000 1.0
C      1  0.5596800000000  0.5064380000000  0.4740280000000 1.0
C      1  0.5495800000000  0.5150090000000  0.5294150000000 1.0
C      1  0.5525280000000  0.5017700000000  0.5754460000000 1.0
C      1  0.5504920000000  0.4340080000000  0.4711660000000 1.0
C      1  0.5476640000000  0.5655870000000  0.4495240000000 1.0
C      1  0.6235670000000  0.4164380000000  0.4568930000000 1.0
C      1  0.5918890000000  0.5445210000000  0.4785310000000 1.0
C      1  0.6290900000000  0.5131180000000  0.5756590000000 1.0
C      1  0.5075950000000  0.5956270000000  0.4874980000000 1.0
C      1  0.5143040000000  0.4572950000000  0.6026210000000 1.0
C      1  0.5092060000000  0.4583830000000  0.4268260000000 1.0
C      1  0.4043630000000  0.4896010000000  0.4449880000000 1.0
C      1  0.4066730000000  0.5500950000000  0.5227460000000 1.0
C      1  0.4059310000000  0.4534640000000  0.5384210000000 1.0
C      1  0.3887130000000  0.4801310000000  0.4675300000000 1.0
C      1  0.3908730000000  0.5372720000000  0.5017460000000 1.0
C      1  0.3891530000000  0.4769870000000  0.5385030000000 1.0
C      1  0.5551390000000  0.4756090000000  0.5892980000000 1.0
C      1  0.5504680000000  0.4359400000000  0.4409940000000 1.0
C      1  0.5506690000000  0.5860430000000  0.4694450000000 1.0
C      1  0.4821810000000  0.4870260000000  0.4798190000000 1.0
C      1  0.4816740000000  0.5334730000000  0.5043280000000 1.0
C      1  0.4809130000000  0.4889920000000  0.5302170000000 1.0
C      1  0.4690280000000  0.3963870000000  0.4476590000000 1.0
C      1  0.4735860000000  0.5975560000000  0.4206150000000 1.0
C      1  0.4693770000000  0.5026150000000  0.6332160000000 1.0
C      1  0.4421000000000  0.4652400000000  0.5028920000000 1.0
C      1  0.4464960000000  0.5203130000000  0.4735040000000 1.0
C      1  0.4413220000000  0.5148850000000  0.5368100000000 1.0
C      1  0.5359130000000  0.5979930000000  0.4905320000000 1.0
C      1  0.5383490000000  0.4523810000000  0.5889150000000 1.0
C      1  0.5378620000000  0.4529870000000  0.4222630000000 1.0
C      1  0.4163190000000  0.4437400000000  0.4344550000000 1.0
C      1  0.4166230000000  0.5844770000000  0.4881620000000 1.0
C      1  0.4181310000000  0.4621350000000  0.5849130000000 1.0
C      1  0.4191970000000  0.5381560000000  0.5725350000000 1.0
C      1  0.4221700000000  0.4205380000000  0.5048550000000 1.0
C      1  0.4261910000000  0.5335350000000  0.4288560000000 1.0
C      1  0.5891080000000  0.5322530000000  0.5565640000000 1.0
C      1  0.5927260000000  0.4145440000000  0.4939800000000 1.0
C      1  0.5951870000000  0.5489800000000  0.4324110000000 1.0
C      1  0.5583760000000  0.5286960000000  0.3937900000000 1.0
C      1  0.5504730000000  0.5710910000000  0.5671150000000 1.0
C      1  0.5503070000000  0.3938560000000  0.5269750000000 1.0
C      1  0.5237210000000  0.3604210000000  0.4699850000000 1.0
C      1  0.5317580000000  0.5943900000000  0.3847780000000 1.0
C      1  0.5436930000000  0.5523040000000  0.6348160000000 1.0
C      1  0.4626000000000  0.5572910000000  0.5013620000000 1.0
C      1  0.4663490000000  0.4748130000000  0.5526090000000 1.0
C      1  0.4620830000000  0.4754780000000  0.4597690000000 1.0
C      1  0.5950610000000  0.4078990000000  0.5216750000000 1.0
C      1  0.6008500000000  0.5281440000000  0.4136630000000 1.0
C      1  0.5788150000000  0.5500740000000  0.5357830000000 1.0
C      1  0.4718530000000  0.4753270000000  0.6211600000000 1.0
C      1  0.4719010000000  0.4214880000000  0.4296050000000 1.0
C      1  0.4751760000000  0.6046830000000  0.4488100000000 1.0
C      1  0.4968940000000  0.4355220000000  0.5501420000000 1.0
C      1  0.5060700000000  0.4867430000000  0.4178440000000 1.0
C      1  0.4950770000000  0.5903240000000  0.5140750000000 1.0
C      1  0.4617310000000  0.3838910000000  0.5274740000000 1.0
C      1  0.4695010000000  0.5348130000000  0.3780240000000 1.0
C      1  0.4234510000000  0.6592110000000  0.5500710000000 1.0
C      1  0.5224120000000  0.3959430000000  0.5361780000000 1.0
C      1  0.5307200000000  0.5200510000000  0.3891360000000 1.0
C      1  0.5219150000000  0.5777490000000  0.5651960000000 1.0
C      1  0.4944110000000  0.4366190000000  0.5223780000000 1.0
C      1  0.4996860000000  0.5101630000000  0.4326060000000 1.0
C      1  0.4845230000000  0.5357660000000  0.5516380000000 1.0
C      1  0.4331530000000  0.6436080000000  0.5315780000000 1.0
C      1  0.4560930000000  0.3937820000000  0.5524360000000 1.0
C      1  0.4608180000000  0.5094770000000  0.3768790000000 1.0
C      1  0.4526320000000  0.4857790000000  0.4350860000000 1.0
C      1  0.4678720000000  0.5846920000000  0.5076380000000 1.0
C      1  0.4767490000000  0.4506970000000  0.5640590000000 1.0
C      1  0.5200080000000  0.4330560000000  0.4808370000000 1.0
C      1  0.5219940000000  0.5505650000000  0.4494420000000 1.0
C      1  0.5180760000000  0.5115350000000  0.5772000000000 1.0
C      1  0.4875290000000  0.5541870000000  0.3879990000000 1.0
C      1  0.4906320000000  0.5499660000000  0.6147440000000 1.0
C      1  0.4791720000000  0.3817120000000  0.5041390000000 1.0
C      1  0.4720040000000  0.4277390000000  0.5095290000000 1.0
C      1  0.4772080000000  0.5265900000000  0.4298580000000 1.0
C      1  0.4697920000000  0.5414630000000  0.5742300000000 1.0
C      1  0.4116720000000  0.5774710000000  0.5147580000000 1.0
C      1  0.4110610000000  0.4441570000000  0.5651650000000 1.0
C      1  0.4060890000000  0.4678840000000  0.4254240000000 1.0
C      1  0.4390790000000  0.5562380000000  0.4424770000000 1.0
C      1  0.4328530000000  0.5158540000000  0.5877410000000 1.0
C      1  0.4362500000000  0.4203970000000  0.4791490000000 1.0
C      1  0.4959250000000  0.5633610000000  0.4520510000000 1.0
C      1  0.4951610000000  0.5019110000000  0.5909070000000 1.0
C      1  0.4960060000000  0.4308270000000  0.4665640000000 1.0
C      1  0.6246660000000  0.4510970000000  0.4902500000000 1.0
C      1  0.6346000000000  0.5367340000000  0.4624330000000 1.0
C      1  0.6245630000000  0.5135070000000  0.5278270000000 1.0
C      1  0.4959510000000  0.4782170000000  0.6055040000000 1.0
C      1  0.4942930000000  0.4375790000000  0.4394500000000 1.0
C      1  0.4953030000000  0.5895470000000  0.4624850000000 1.0
C      1  0.5488350000000  0.4748190000000  0.4063650000000 1.0
C      1  0.5401920000000  0.6002170000000  0.5194390000000 1.0
C      1  0.5414380000000  0.4301760000000  0.5701880000000 1.0
C      1  0.5693260000000  0.5747160000000  0.5463240000000 1.0
C      1  0.5726170000000  0.4058630000000  0.5391810000000 1.0
C      1  0.5797920000000  0.5125110000000  0.4030120000000 1.0
C      1  0.5681850000000  0.5603620000000  0.4292940000000 1.0
C      1  0.5694350000000  0.5277210000000  0.5785420000000 1.0
C      1  0.5659120000000  0.4105930000000  0.4836560000000 1.0
C      1  0.5354090000000  0.5508620000000  0.5043750000000 1.0
C      1  0.5786990000000  0.4516460000000  0.5482490000000 1.0
C      1  0.5829780000000  0.4805200000000  0.4401030000000 1.0
C      1  0.4726230000000  0.3833900000000  0.4735220000000 1.0
C      1  0.4788680000000  0.5788940000000  0.4010170000000 1.0
C      1  0.4793150000000  0.5287360000000  0.6292040000000 1.0
C      1  0.4230490000000  0.5617620000000  0.4690850000000 1.0
C      1  0.4219130000000  0.4902550000000  0.5757390000000 1.0
C      1  0.4222320000000  0.4422160000000  0.4636410000000 1.0
C      1  0.4686160000000  0.4766700000000  0.5060770000000 1.0
C      1  0.4727110000000  0.5151860000000  0.4814760000000 1.0
C      1  0.4708180000000  0.5194510000000  0.5301660000000 1.0
C      1  0.5578200000000  0.5563370000000  0.4028520000000 1.0
C      1  0.5561910000000  0.5516860000000  0.5874710000000 1.0
C      1  0.5508780000000  0.3907820000000  0.4979300000000 1.0
C      1  0.6143670000000  0.5195570000000  0.5534700000000 1.0
C      1  0.6138260000000  0.4272450000000  0.4800590000000 1.0
C      1  0.6089940000000  0.5472170000000  0.4569430000000 1.0
C      1  0.5111360000000  0.5360570000000  0.5087950000000 1.0
C      1  0.5100850000000  0.4891260000000  0.5273120000000 1.0
C      1  0.5132870000000  0.4865370000000  0.4813680000000 1.0
C      1  0.5110500000000  0.5268840000000  0.5553150000000 1.0
C      1  0.5151800000000  0.4447450000000  0.5060280000000 1.0
C      1  0.5203090000000  0.5220110000000  0.4488660000000 1.0
C      1  0.4699020000000  0.5517890000000  0.4421510000000 1.0
C      1  0.4621920000000  0.5186030000000  0.5886630000000 1.0
C      1  0.4652830000000  0.4251440000000  0.4825780000000 1.0
C      1  0.4575330000000  0.4407980000000  0.4129530000000 1.0
C      1  0.4565080000000  0.6139510000000  0.4680400000000 1.0
C      1  0.4594630000000  0.4510230000000  0.6100480000000 1.0
C      1  0.5267580000000  0.4930960000000  0.3980360000000 1.0
C      1  0.5155720000000  0.5905530000000  0.5360040000000 1.0
C      1  0.5185260000000  0.4177090000000  0.5565670000000 1.0
C      1  0.5239770000000  0.4726520000000  0.5069550000000 1.0
C      1  0.5313470000000  0.5055050000000  0.4687000000000 1.0
C      1  0.5208460000000  0.5163300000000  0.5298660000000 1.0
C      1  0.6336060000000  0.5030820000000  0.5032330000000 1.0
C      1  0.6314330000000  0.4755170000000  0.4982800000000 1.0
C      1  0.6421080000000  0.5200730000000  0.4822860000000 1.0
C      1  0.4412330000000  0.4891980000000  0.5522570000000 1.0
C      1  0.4398120000000  0.4645030000000  0.4739360000000 1.0
C      1  0.4412100000000  0.5454250000000  0.4861460000000 1.0
C      1  0.3716780000000  0.5184810000000  0.5062500000000 1.0
C      1  0.3717700000000  0.4852140000000  0.5192340000000 1.0
C      1  0.3698580000000  0.4923140000000  0.4827670000000 1.0
C      1  0.4430900000000  0.6270810000000  0.5134130000000 1.0
C      1  0.4553370000000  0.4100530000000  0.5745460000000 1.0
C      1  0.4565060000000  0.4851010000000  0.3872180000000 1.0
C      1  0.5267460000000  0.3774370000000  0.4909120000000 1.0
C      1  0.5344490000000  0.5683300000000  0.3918240000000 1.0
C      1  0.5376760000000  0.5550050000000  0.6084140000000 1.0
C      1  0.5727200000000  0.4819120000000  0.4662550000000 1.0
C      1  0.5614110000000  0.5372780000000  0.5141890000000 1.0
C      1  0.5669390000000  0.4719200000000  0.5333090000000 1.0
C      1  0.3951920000000  0.4527380000000  0.4741860000000 1.0
C      1  0.3970760000000  0.5453800000000  0.4743030000000 1.0
C      1  0.3950500000000  0.4941070000000  0.5608680000000 1.0
C      1  0.4238360000000  0.4469830000000  0.5171760000000 1.0
C      1  0.4300510000000  0.5077300000000  0.4448590000000 1.0
C      1  0.4218170000000  0.5355500000000  0.5432660000000 1.0
C      1  0.4058700000000  0.5584650000000  0.5849870000000 1.0
C      1  0.4072310000000  0.3997000000000  0.5140970000000 1.0
C      1  0.4115780000000  0.5354530000000  0.4059740000000 1.0
C      1  0.5655260000000  0.5974260000000  0.5307480000000 1.0
C      1  0.5668660000000  0.4275220000000  0.5566010000000 1.0
C      1  0.5735000000000  0.4870010000000  0.4141340000000 1.0
C      1  0.4627130000000  0.4361620000000  0.5847720000000 1.0
C      1  0.4549000000000  0.4699700000000  0.4109840000000 1.0
C      1  0.4544630000000  0.6081490000000  0.4962300000000 1.0
END
