TITL C-3623288-6813-1679 6.05258835438338e-07 125000 -1148.15810539951 0 0 183 (C1) n - 1
REM
REM in /home/nfs/bkarasulu/CARBON/AIRSS/Generating-Clusters/LCBOP/Higher-Symm/SD-CG/FIRE-CG
REM
REM
REM
REM
REM
REM ./C.cell (b20cbc046b6831c77cfcea5457e17084)
REM AIRSS Version 0.9.1 bugfix July 2018 build 013d7b7c2542+ Fri, 06 Jul 2018 19:26:36 +0100
REM compiler GCC version 9.2.1 20190827 (Red Hat 9.2.1-1)
REM options -cpp -mtune=generic -march=x86-64 -g -O0 -fpre-include=/usr/include/finclude/math-vector-fortran.h
REM seed -73611619 -1969308211 -119675369 -266235590 -2096474838 -883653981 2056665543 -266063938 -1932204009 1996785606 1489956395 -1935873630 -1107100908 308218415 -857707453 1498907416 1518533997 453958029 -820323474 696457218 616578103 -642417860 1735404643 -45257066 -117349313 -1801387965 -23467473 -217744294 17049522 188430208 1405972033 368780984 -928478530
REM
CELL 1.54180   50.00000   50.00000   50.00000   90.00000   90.00000   90.00000
LATT -1
SFAC C  
C      1  0.5229320000000  0.4804910000000  0.4642990000000 1.0
C      1  0.4752330000000  0.5297300000000  0.4534170000000 1.0
C      1  0.5211950000000  0.5265290000000  0.5432900000000 1.0
C      1  0.4763150000000  0.4815680000000  0.5352410000000 1.0
C      1  0.4912770000000  0.4372690000000  0.5104780000000 1.0
C      1  0.5071690000000  0.5639470000000  0.5121550000000 1.0
C      1  0.4941570000000  0.5632410000000  0.4884630000000 1.0
C      1  0.5082680000000  0.4367300000000  0.4887860000000 1.0
C      1  0.5062790000000  0.5667000000000  0.4627520000000 1.0
C      1  0.4957610000000  0.4364810000000  0.4629980000000 1.0
C      1  0.5036420000000  0.4374900000000  0.5362840000000 1.0
C      1  0.4946170000000  0.5669030000000  0.5375880000000 1.0
C      1  0.5023080000000  0.4621570000000  0.4509390000000 1.0
C      1  0.4982670000000  0.5456830000000  0.4445390000000 1.0
C      1  0.5007580000000  0.5445220000000  0.5541390000000 1.0
C      1  0.4965590000000  0.4630180000000  0.5485030000000 1.0
C      1  0.5222350000000  0.4418020000000  0.4095320000000 1.0
C      1  0.4754480000000  0.5565380000000  0.4067010000000 1.0
C      1  0.5207890000000  0.5580160000000  0.5944570000000 1.0
C      1  0.4790630000000  0.4428320000000  0.5903140000000 1.0
C      1  0.4808320000000  0.4760490000000  0.4376350000000 1.0
C      1  0.5194720000000  0.5306860000000  0.4322190000000 1.0
C      1  0.4790700000000  0.5317040000000  0.5679780000000 1.0
C      1  0.5181100000000  0.4764830000000  0.5618390000000 1.0
C      1  0.4208920000000  0.4260780000000  0.5364330000000 1.0
C      1  0.5786460000000  0.5725020000000  0.5366950000000 1.0
C      1  0.4201320000000  0.5803290000000  0.4687720000000 1.0
C      1  0.5794880000000  0.4255520000000  0.4642010000000 1.0
C      1  0.5612740000000  0.5345610000000  0.5766270000000 1.0
C      1  0.4385740000000  0.4661660000000  0.5742570000000 1.0
C      1  0.5614450000000  0.4661720000000  0.4260840000000 1.0
C      1  0.4379690000000  0.5250700000000  0.4180960000000 1.0
C      1  0.5637510000000  0.4356980000000  0.4391460000000 1.0
C      1  0.4342960000000  0.5766590000000  0.4448420000000 1.0
C      1  0.5636520000000  0.5640850000000  0.5627940000000 1.0
C      1  0.4368110000000  0.4360730000000  0.5613850000000 1.0
C      1  0.4646400000000  0.4236220000000  0.5694410000000 1.0
C      1  0.5365480000000  0.5778470000000  0.5704730000000 1.0
C      1  0.4620740000000  0.5790440000000  0.4324280000000 1.0
C      1  0.5360570000000  0.4229400000000  0.4307200000000 1.0
C      1  0.5048690000000  0.4081850000000  0.5414570000000 1.0
C      1  0.4968710000000  0.5957400000000  0.5419990000000 1.0
C      1  0.5050750000000  0.5958400000000  0.4599420000000 1.0
C      1  0.4951320000000  0.4070550000000  0.4583420000000 1.0
C      1  0.5474990000000  0.5202310000000  0.5534930000000 1.0
C      1  0.4498540000000  0.4811150000000  0.5507770000000 1.0
C      1  0.5494920000000  0.4806920000000  0.4491800000000 1.0
C      1  0.4483350000000  0.5233340000000  0.4442420000000 1.0
C      1  0.5117570000000  0.4967880000000  0.5806040000000 1.0
C      1  0.4864900000000  0.5078590000000  0.5825830000000 1.0
C      1  0.5125010000000  0.5069860000000  0.4172730000000 1.0
C      1  0.4875250000000  0.4953230000000  0.4181160000000 1.0
C      1  0.4605940000000  0.4758870000000  0.4575490000000 1.0
C      1  0.5371780000000  0.5255980000000  0.4543150000000 1.0
C      1  0.4608120000000  0.5270520000000  0.5460160000000 1.0
C      1  0.5387780000000  0.4738680000000  0.5422380000000 1.0
C      1  0.5884270000000  0.5864660000000  0.4419630000000 1.0
C      1  0.4107480000000  0.4136630000000  0.4425790000000 1.0
C      1  0.5893870000000  0.4149200000000  0.5589100000000 1.0
C      1  0.4117630000000  0.5865710000000  0.5611430000000 1.0
C      1  0.6224590000000  0.4715530000000  0.4734160000000 1.0
C      1  0.3841280000000  0.5292110000000  0.4730020000000 1.0
C      1  0.6172970000000  0.5258780000000  0.5248260000000 1.0
C      1  0.3771770000000  0.4708360000000  0.5266440000000 1.0
C      1  0.4618550000000  0.4670480000000  0.5942180000000 1.0
C      1  0.5381380000000  0.5342970000000  0.5970500000000 1.0
C      1  0.4599120000000  0.5308760000000  0.4004260000000 1.0
C      1  0.5384830000000  0.4666530000000  0.4058300000000 1.0
C      1  0.4546410000000  0.5387860000000  0.4924420000000 1.0
C      1  0.5529770000000  0.4550210000000  0.4885210000000 1.0
C      1  0.4466230000000  0.4559520000000  0.5111410000000 1.0
C      1  0.5460180000000  0.5384390000000  0.5078640000000 1.0
C      1  0.5962390000000  0.5317470000000  0.5074290000000 1.0
C      1  0.3977080000000  0.4656530000000  0.5083260000000 1.0
C      1  0.6019500000000  0.4655430000000  0.4914790000000 1.0
C      1  0.4040670000000  0.5353710000000  0.4920410000000 1.0
C      1  0.4241940000000  0.4517200000000  0.4142500000000 1.0
C      1  0.5763970000000  0.5461760000000  0.4143580000000 1.0
C      1  0.4217600000000  0.5452890000000  0.5870750000000 1.0
C      1  0.5779600000000  0.4557500000000  0.5854920000000 1.0
C      1  0.6235130000000  0.4801470000000  0.4478830000000 1.0
C      1  0.3814290000000  0.5192980000000  0.4480010000000 1.0
C      1  0.6210400000000  0.5200130000000  0.5507490000000 1.0
C      1  0.3761860000000  0.4788360000000  0.5523850000000 1.0
C      1  0.5210660000000  0.5230700000000  0.5142190000000 1.0
C      1  0.4678750000000  0.4745550000000  0.5079270000000 1.0
C      1  0.5317050000000  0.4736130000000  0.4917870000000 1.0
C      1  0.4776590000000  0.5235760000000  0.4825950000000 1.0
C      1  0.4324090000000  0.4803490000000  0.4605900000000 1.0
C      1  0.5648210000000  0.5223070000000  0.4617550000000 1.0
C      1  0.4331890000000  0.5229200000000  0.5388680000000 1.0
C      1  0.5667000000000  0.4787230000000  0.5389330000000 1.0
C      1  0.5264950000000  0.5965600000000  0.5484610000000 1.0
C      1  0.4755200000000  0.4039750000000  0.5484840000000 1.0
C      1  0.5247860000000  0.4031110000000  0.4516290000000 1.0
C      1  0.4755800000000  0.5978870000000  0.4542480000000 1.0
C      1  0.4683770000000  0.4522410000000  0.3931090000000 1.0
C      1  0.5330350000000  0.5445630000000  0.3908730000000 1.0
C      1  0.4650830000000  0.5442470000000  0.6104340000000 1.0
C      1  0.5335460000000  0.4561260000000  0.6061600000000 1.0
C      1  0.5310420000000  0.4941880000000  0.3997040000000 1.0
C      1  0.4704400000000  0.5033240000000  0.3966760000000 1.0
C      1  0.5300560000000  0.5064060000000  0.6001750000000 1.0
C      1  0.4687450000000  0.4945280000000  0.6004640000000 1.0
C      1  0.5837010000000  0.5773080000000  0.5055000000000 1.0
C      1  0.4155540000000  0.4215140000000  0.5047360000000 1.0
C      1  0.5846550000000  0.4213260000000  0.4958590000000 1.0
C      1  0.4164480000000  0.5808380000000  0.4987060000000 1.0
C      1  0.5064970000000  0.4457300000000  0.6010730000000 1.0
C      1  0.4930900000000  0.5549100000000  0.6061890000000 1.0
C      1  0.5044700000000  0.5548090000000  0.3951220000000 1.0
C      1  0.4954250000000  0.4431790000000  0.3981450000000 1.0
C      1  0.6083310000000  0.5150020000000  0.5738260000000 1.0
C      1  0.3902280000000  0.4862610000000  0.5740770000000 1.0
C      1  0.6094200000000  0.4877360000000  0.4262920000000 1.0
C      1  0.3927580000000  0.5094850000000  0.4255330000000 1.0
C      1  0.5449240000000  0.3920610000000  0.5046310000000 1.0
C      1  0.4573720000000  0.6064130000000  0.5071670000000 1.0
C      1  0.5448510000000  0.6060760000000  0.4963760000000 1.0
C      1  0.4553060000000  0.3921130000000  0.4960280000000 1.0
C      1  0.5733540000000  0.5172300000000  0.4060030000000 1.0
C      1  0.4279130000000  0.4792080000000  0.4037170000000 1.0
C      1  0.5729790000000  0.4846390000000  0.5936500000000 1.0
C      1  0.4256540000000  0.5162530000000  0.5948010000000 1.0
C      1  0.5884260000000  0.4430830000000  0.5618420000000 1.0
C      1  0.4122980000000  0.5583290000000  0.5631640000000 1.0
C      1  0.5860370000000  0.5584670000000  0.4385630000000 1.0
C      1  0.4132450000000  0.4415440000000  0.4385880000000 1.0
C      1  0.4317380000000  0.5090370000000  0.4631840000000 1.0
C      1  0.5696510000000  0.4943590000000  0.4652920000000 1.0
C      1  0.4293550000000  0.4948040000000  0.5350770000000 1.0
C      1  0.5666420000000  0.5068750000000  0.5363720000000 1.0
C      1  0.5187460000000  0.3906600000000  0.5199970000000 1.0
C      1  0.4831310000000  0.6122900000000  0.5206550000000 1.0
C      1  0.5192360000000  0.6116360000000  0.4821250000000 1.0
C      1  0.4813360000000  0.3901320000000  0.4804890000000 1.0
C      1  0.4233840000000  0.4741060000000  0.5165550000000 1.0
C      1  0.5700270000000  0.5233900000000  0.5141490000000 1.0
C      1  0.4298010000000  0.5253460000000  0.4860230000000 1.0
C      1  0.5760650000000  0.4733450000000  0.4832440000000 1.0
C      1  0.5819270000000  0.6023310000000  0.4628100000000 1.0
C      1  0.4183010000000  0.3969370000000  0.4622520000000 1.0
C      1  0.5811640000000  0.3983460000000  0.5392690000000 1.0
C      1  0.4209100000000  0.6032700000000  0.5420510000000 1.0
C      1  0.4070420000000  0.5559020000000  0.5116110000000 1.0
C      1  0.5955440000000  0.4453880000000  0.5111620000000 1.0
C      1  0.4047320000000  0.4454070000000  0.4888480000000 1.0
C      1  0.5924880000000  0.5535980000000  0.4896030000000 1.0
C      1  0.4521310000000  0.5161450000000  0.6093200000000 1.0
C      1  0.5460690000000  0.4839170000000  0.6069370000000 1.0
C      1  0.4551640000000  0.4795900000000  0.3906680000000 1.0
C      1  0.5469560000000  0.5166310000000  0.3913230000000 1.0
C      1  0.4780640000000  0.5105270000000  0.5301950000000 1.0
C      1  0.5255170000000  0.4780960000000  0.5176050000000 1.0
C      1  0.4735760000000  0.4796460000000  0.4821600000000 1.0
C      1  0.5196300000000  0.5091340000000  0.4698260000000 1.0
C      1  0.5825250000000  0.5116640000000  0.5848570000000 1.0
C      1  0.4157410000000  0.4904820000000  0.5848720000000 1.0
C      1  0.5838690000000  0.4915990000000  0.4155830000000 1.0
C      1  0.4175670000000  0.5049390000000  0.4124700000000 1.0
C      1  0.5401300000000  0.5923860000000  0.5220650000000 1.0
C      1  0.4605230000000  0.4044570000000  0.5223440000000 1.0
C      1  0.5396670000000  0.4034970000000  0.4779140000000 1.0
C      1  0.4620190000000  0.5934200000000  0.4812790000000 1.0
C      1  0.5828260000000  0.5444620000000  0.4633480000000 1.0
C      1  0.4149500000000  0.4570180000000  0.4629490000000 1.0
C      1  0.5854340000000  0.4569540000000  0.5368490000000 1.0
C      1  0.4152430000000  0.5451430000000  0.5378270000000 1.0
C      1  0.4625450000000  0.4319250000000  0.5134980000000 1.0
C      1  0.5358640000000  0.5648790000000  0.5125880000000 1.0
C      1  0.4654040000000  0.5652510000000  0.4893520000000 1.0
C      1  0.5369530000000  0.4310280000000  0.4859920000000 1.0
C      1  0.4460230000000  0.4361930000000  0.4026310000000 1.0
C      1  0.5554010000000  0.5611040000000  0.4003060000000 1.0
C      1  0.4422610000000  0.5603580000000  0.6017760000000 1.0
C      1  0.5567330000000  0.4403450000000  0.5986480000000 1.0
C      1  0.5713580000000  0.4007170000000  0.5128700000000 1.0
C      1  0.4307170000000  0.6000940000000  0.5158570000000 1.0
C      1  0.5716490000000  0.5987450000000  0.4888440000000 1.0
C      1  0.4285730000000  0.4003080000000  0.4882780000000 1.0
C      1  0.5000900000000  0.3792260000000  0.5003490000000 1.0
C      1  0.5011790000000  0.6241140000000  0.5012640000000 1.0
C      1  0.5042640000000  0.5176020000000  0.4915590000000 1.0
END
