TITL C-3623286-7563-1988 3946834.71912043 125000 -1079.09023144468 0 0 191 (C1) n - 1
REM
REM in /home/nfs/bkarasulu/CARBON/AIRSS/Generating-Clusters/LCBOP/Higher-Symm/SD-CG/FIRE-CG
REM
REM
REM
REM
REM
REM ./C.cell (b20cbc046b6831c77cfcea5457e17084)
REM AIRSS Version 0.9.1 bugfix July 2018 build 013d7b7c2542+ Fri, 06 Jul 2018 19:26:36 +0100
REM compiler GCC version 9.2.1 20190827 (Red Hat 9.2.1-1)
REM options -cpp -mtune=generic -march=x86-64 -g -O0 -fpre-include=/usr/include/finclude/math-vector-fortran.h
REM seed -1281671386 1456841628 65202637 1197333708 -813921201 1043029322 1284600145 -607481213 -809528021 1710510991 789454580 354362871 1321604171 -222494158 989187845 -1613215543 1179599462 -2127973628 391062118 -1414702152 675204147 1708079193 184327821 1766693014 -1225192229 1458622835 218395776 1866241942 83682910 771484586 1976426570 957190930 267430194
REM
CELL 1.54180   50.00000   50.00000   50.00000   90.00000   90.00000   90.00000
LATT -1
SFAC C  
C      1  0.5284830000000  0.4044930000000  0.4318850000000 1.0
C      1  0.4338570000000  0.5286190000000  0.4053080000000 1.0
C      1  0.4058550000000  0.4323450000000  0.5275690000000 1.0
C      1  0.4711780000000  0.5934490000000  0.4342480000000 1.0
C      1  0.4728460000000  0.4106420000000  0.5680660000000 1.0
C      1  0.5266630000000  0.5901930000000  0.5680950000000 1.0
C      1  0.5664100000000  0.4695390000000  0.4049910000000 1.0
C      1  0.5676050000000  0.5284190000000  0.5951730000000 1.0
C      1  0.4306120000000  0.4737390000000  0.5908220000000 1.0
C      1  0.5938170000000  0.5652010000000  0.5280950000000 1.0
C      1  0.5918790000000  0.4314540000000  0.4713000000000 1.0
C      1  0.4050650000000  0.5666930000000  0.4699430000000 1.0
C      1  0.4588210000000  0.5686490000000  0.4712830000000 1.0
C      1  0.4702580000000  0.4636450000000  0.5669000000000 1.0
C      1  0.5679570000000  0.4696640000000  0.4585320000000 1.0
C      1  0.5386130000000  0.4334840000000  0.4672630000000 1.0
C      1  0.5384160000000  0.5663390000000  0.5324150000000 1.0
C      1  0.4624680000000  0.4332330000000  0.5316590000000 1.0
C      1  0.5315290000000  0.5355940000000  0.5670570000000 1.0
C      1  0.5309900000000  0.4574150000000  0.4280740000000 1.0
C      1  0.4695260000000  0.5395250000000  0.4328120000000 1.0
C      1  0.4319980000000  0.5307370000000  0.4603080000000 1.0
C      1  0.4317860000000  0.4691870000000  0.5375000000000 1.0
C      1  0.5694350000000  0.5291180000000  0.5394420000000 1.0
C      1  0.4211850000000  0.5798520000000  0.5166590000000 1.0
C      1  0.5234030000000  0.4228070000000  0.5787970000000 1.0
C      1  0.5767160000000  0.5161210000000  0.4233320000000 1.0
C      1  0.5798220000000  0.4219590000000  0.5214630000000 1.0
C      1  0.5742520000000  0.5742870000000  0.4824600000000 1.0
C      1  0.4259190000000  0.4232860000000  0.4811140000000 1.0
C      1  0.4770100000000  0.5789630000000  0.5768450000000 1.0
C      1  0.4814830000000  0.4235490000000  0.4209890000000 1.0
C      1  0.5172520000000  0.5740410000000  0.4242780000000 1.0
C      1  0.4226690000000  0.4822780000000  0.4235290000000 1.0
C      1  0.4202620000000  0.5244250000000  0.5762090000000 1.0
C      1  0.5801440000000  0.4814220000000  0.5771460000000 1.0
C      1  0.4510460000000  0.4692590000000  0.4893680000000 1.0
C      1  0.4856470000000  0.4474080000000  0.4672570000000 1.0
C      1  0.4643580000000  0.4830040000000  0.4480510000000 1.0
C      1  0.5466980000000  0.5311300000000  0.4901990000000 1.0
C      1  0.5538280000000  0.4640700000000  0.5145290000000 1.0
C      1  0.4465850000000  0.5350630000000  0.5182080000000 1.0
C      1  0.5075290000000  0.5456530000000  0.4719880000000 1.0
C      1  0.5173710000000  0.4474180000000  0.5358510000000 1.0
C      1  0.4828220000000  0.5502740000000  0.5391480000000 1.0
C      1  0.5350530000000  0.5159960000000  0.4491480000000 1.0
C      1  0.5356210000000  0.4852720000000  0.5514690000000 1.0
C      1  0.4676490000000  0.5083550000000  0.5493810000000 1.0
C      1  0.5542340000000  0.5934590000000  0.4939720000000 1.0
C      1  0.4831690000000  0.5579260000000  0.5969950000000 1.0
C      1  0.5986690000000  0.4923730000000  0.5558020000000 1.0
C      1  0.4465030000000  0.4050180000000  0.4929860000000 1.0
C      1  0.4421390000000  0.5991390000000  0.5057430000000 1.0
C      1  0.5590280000000  0.4015060000000  0.5156050000000 1.0
C      1  0.5160840000000  0.4421700000000  0.6006870000000 1.0
C      1  0.5063800000000  0.5546240000000  0.4042220000000 1.0
C      1  0.4923730000000  0.4434740000000  0.4013090000000 1.0
C      1  0.3990690000000  0.5173180000000  0.5565710000000 1.0
C      1  0.4036920000000  0.4936130000000  0.4437930000000 1.0
C      1  0.5964190000000  0.5049440000000  0.4433630000000 1.0
C      1  0.5937390000000  0.5575570000000  0.4992970000000 1.0
C      1  0.4977080000000  0.5945260000000  0.5606300000000 1.0
C      1  0.5617600000000  0.4982020000000  0.5960690000000 1.0
C      1  0.4061520000000  0.4393140000000  0.4978720000000 1.0
C      1  0.4038790000000  0.5602510000000  0.4991650000000 1.0
C      1  0.5951730000000  0.4386080000000  0.5005200000000 1.0
C      1  0.5026130000000  0.4073790000000  0.5604770000000 1.0
C      1  0.4999640000000  0.5927380000000  0.4418370000000 1.0
C      1  0.4985930000000  0.4048920000000  0.4387210000000 1.0
C      1  0.4374060000000  0.5042510000000  0.5928000000000 1.0
C      1  0.4402890000000  0.4995810000000  0.4047810000000 1.0
C      1  0.5589700000000  0.4986920000000  0.4048460000000 1.0
C      1  0.4609500000000  0.5589200000000  0.5228640000000 1.0
C      1  0.5199230000000  0.4638810000000  0.5577010000000 1.0
C      1  0.5564040000000  0.5186010000000  0.4668490000000 1.0
C      1  0.5380150000000  0.4415740000000  0.5172290000000 1.0
C      1  0.5302950000000  0.5525940000000  0.4871630000000 1.0
C      1  0.4665840000000  0.4478240000000  0.4865860000000 1.0
C      1  0.4820770000000  0.5304460000000  0.5583930000000 1.0
C      1  0.4845510000000  0.4627830000000  0.4449500000000 1.0
C      1  0.5136700000000  0.5337400000000  0.4480770000000 1.0
C      1  0.4434770000000  0.4831720000000  0.4667250000000 1.0
C      1  0.4439330000000  0.5146360000000  0.5375720000000 1.0
C      1  0.5579020000000  0.4812770000000  0.5366350000000 1.0
C      1  0.4816380000000  0.5210120000000  0.3871550000000 1.0
C      1  0.3869540000000  0.4802220000000  0.5230210000000 1.0
C      1  0.5244840000000  0.3897590000000  0.4802150000000 1.0
C      1  0.5173600000000  0.4777360000000  0.3852560000000 1.0
C      1  0.5190990000000  0.5240530000000  0.6113390000000 1.0
C      1  0.4785500000000  0.4771500000000  0.6120790000000 1.0
C      1  0.6139220000000  0.5168350000000  0.5207160000000 1.0
C      1  0.6129690000000  0.4798220000000  0.4775200000000 1.0
C      1  0.3870220000000  0.5176710000000  0.4778390000000 1.0
C      1  0.4784170000000  0.6129980000000  0.4821020000000 1.0
C      1  0.4799390000000  0.3890120000000  0.5183270000000 1.0
C      1  0.5213270000000  0.6117140000000  0.5193520000000 1.0
C      1  0.5099810000000  0.4699630000000  0.6118820000000 1.0
C      1  0.6095210000000  0.5092550000000  0.4697480000000 1.0
C      1  0.4693290000000  0.6111580000000  0.5112550000000 1.0
C      1  0.4885370000000  0.5305600000000  0.6081790000000 1.0
C      1  0.4879760000000  0.4702350000000  0.3891160000000 1.0
C      1  0.5108750000000  0.5286940000000  0.3906470000000 1.0
C      1  0.3907810000000  0.4888810000000  0.4699750000000 1.0
C      1  0.3884530000000  0.5113930000000  0.5291030000000 1.0
C      1  0.6109440000000  0.4874610000000  0.5288880000000 1.0
C      1  0.5310940000000  0.3920250000000  0.5107960000000 1.0
C      1  0.5284490000000  0.6072200000000  0.4898640000000 1.0
C      1  0.4724640000000  0.3917190000000  0.4892210000000 1.0
C      1  0.4853610000000  0.5375970000000  0.4913040000000 1.0
C      1  0.4881040000000  0.4903450000000  0.5267150000000 1.0
C      1  0.5383420000000  0.4834940000000  0.4923880000000 1.0
C      1  0.5113440000000  0.4684050000000  0.4908320000000 1.0
C      1  0.5019070000000  0.5373030000000  0.5186870000000 1.0
C      1  0.4974010000000  0.4627210000000  0.5194350000000 1.0
C      1  0.5148170000000  0.5100410000000  0.5293360000000 1.0
C      1  0.5251650000000  0.4910100000000  0.4547650000000 1.0
C      1  0.4813120000000  0.5036390000000  0.4592610000000 1.0
C      1  0.4607800000000  0.5203180000000  0.4954600000000 1.0
C      1  0.4733080000000  0.4950910000000  0.5027450000000 1.0
C      1  0.5374300000000  0.5098620000000  0.5095370000000 1.0
C      1  0.5956530000000  0.5313560000000  0.5498200000000 1.0
C      1  0.5490920000000  0.5922750000000  0.5338480000000 1.0
C      1  0.5397370000000  0.5438400000000  0.5945150000000 1.0
C      1  0.4048850000000  0.4588150000000  0.5444060000000 1.0
C      1  0.4060100000000  0.5326400000000  0.4492770000000 1.0
C      1  0.5943920000000  0.4647010000000  0.4496420000000 1.0
C      1  0.4518870000000  0.4075870000000  0.5329320000000 1.0
C      1  0.4491290000000  0.5949820000000  0.4670170000000 1.0
C      1  0.5452170000000  0.4054400000000  0.4593410000000 1.0
C      1  0.4581810000000  0.4567120000000  0.5933320000000 1.0
C      1  0.4669560000000  0.5493970000000  0.4062030000000 1.0
C      1  0.5317990000000  0.4476680000000  0.4021750000000 1.0
C      1  0.5368200000000  0.5746170000000  0.5898710000000 1.0
C      1  0.5907380000000  0.5369720000000  0.5789560000000 1.0
C      1  0.5783410000000  0.5867800000000  0.5380410000000 1.0
C      1  0.4607320000000  0.4256630000000  0.5896750000000 1.0
C      1  0.4620120000000  0.5786230000000  0.4117650000000 1.0
C      1  0.5365660000000  0.4184850000000  0.4071220000000 1.0
C      1  0.4073140000000  0.4627790000000  0.5751260000000 1.0
C      1  0.4117540000000  0.5380110000000  0.4203630000000 1.0
C      1  0.5887510000000  0.4600840000000  0.4201370000000 1.0
C      1  0.4223740000000  0.4099100000000  0.5368920000000 1.0
C      1  0.4202070000000  0.5889740000000  0.4607390000000 1.0
C      1  0.5762840000000  0.4088880000000  0.4615310000000 1.0
C      1  0.4289230000000  0.4292950000000  0.4535270000000 1.0
C      1  0.4539460000000  0.4268810000000  0.4275970000000 1.0
C      1  0.4284500000000  0.4544610000000  0.4265950000000 1.0
C      1  0.5711110000000  0.5685220000000  0.4548360000000 1.0
C      1  0.5793420000000  0.4296050000000  0.5487170000000 1.0
C      1  0.4226780000000  0.5757450000000  0.5449510000000 1.0
C      1  0.5448680000000  0.5706230000000  0.4303040000000 1.0
C      1  0.5509010000000  0.4247910000000  0.5715280000000 1.0
C      1  0.4496820000000  0.5793540000000  0.5694060000000 1.0
C      1  0.5706430000000  0.5438980000000  0.4266010000000 1.0
C      1  0.5753400000000  0.4534220000000  0.5751970000000 1.0
C      1  0.4273870000000  0.5517430000000  0.5740450000000 1.0
C      1  0.4948760000000  0.3925080000000  0.4681240000000 1.0
C      1  0.4678330000000  0.4945160000000  0.3910500000000 1.0
C      1  0.3920310000000  0.4677070000000  0.4930750000000 1.0
C      1  0.5047420000000  0.6063840000000  0.4694550000000 1.0
C      1  0.5066080000000  0.3938100000000  0.5316260000000 1.0
C      1  0.4940000000000  0.6095030000000  0.5331250000000 1.0
C      1  0.5312200000000  0.5040610000000  0.3910860000000 1.0
C      1  0.5319450000000  0.4942820000000  0.6101100000000 1.0
C      1  0.4670260000000  0.5070850000000  0.6071240000000 1.0
C      1  0.6084500000000  0.5302460000000  0.4941080000000 1.0
C      1  0.6090730000000  0.4666310000000  0.5044990000000 1.0
C      1  0.3906630000000  0.5318000000000  0.5041480000000 1.0
C      1  0.5643220000000  0.5062660000000  0.5235950000000 1.0
C      1  0.5192410000000  0.5614710000000  0.5124650000000 1.0
C      1  0.5088770000000  0.5196620000000  0.5628220000000 1.0
C      1  0.4300500000000  0.4939690000000  0.5263710000000 1.0
C      1  0.4373900000000  0.5098320000000  0.4788600000000 1.0
C      1  0.5639010000000  0.4912310000000  0.4767630000000 1.0
C      1  0.4800910000000  0.4393310000000  0.5106240000000 1.0
C      1  0.4728700000000  0.5652040000000  0.4960190000000 1.0
C      1  0.5243010000000  0.4388670000000  0.4907100000000 1.0
C      1  0.4963540000000  0.4719650000000  0.5695470000000 1.0
C      1  0.4903670000000  0.5207080000000  0.4373410000000 1.0
C      1  0.5101010000000  0.4755960000000  0.4352260000000 1.0
C      1  0.4976640000000  0.5791770000000  0.5029140000000 1.0
C      1  0.5020930000000  0.4973270000000  0.5789720000000 1.0
C      1  0.5009820000000  0.4235370000000  0.4977980000000 1.0
C      1  0.4994850000000  0.4988200000000  0.4198750000000 1.0
C      1  0.5801710000000  0.4984120000000  0.5001420000000 1.0
C      1  0.4205210000000  0.5005090000000  0.5011120000000 1.0
C      1  0.5478020000000  0.4526450000000  0.4497080000000 1.0
C      1  0.4530060000000  0.5477190000000  0.4537130000000 1.0
C      1  0.4543800000000  0.4555850000000  0.5456390000000 1.0
C      1  0.5479220000000  0.5448500000000  0.5467820000000 1.0
C      1  0.4939730000000  0.4921150000000  0.4819430000000 1.0
END
