TITL C-3623289-7120-675 1.1290012941764e-07 125000 -771.924799074252 0 0 140 (S10) n - 1
REM
REM in /home/nfs/bkarasulu/CARBON/AIRSS/Generating-Clusters/LCBOP/Higher-Symm/SD-CG/FIRE-CG
REM
REM
REM
REM
REM
REM ./C.cell (b20cbc046b6831c77cfcea5457e17084)
REM AIRSS Version 0.9.1 bugfix July 2018 build 013d7b7c2542+ Fri, 06 Jul 2018 19:26:36 +0100
REM compiler GCC version 9.2.1 20190827 (Red Hat 9.2.1-1)
REM options -cpp -mtune=generic -march=x86-64 -g -O0 -fpre-include=/usr/include/finclude/math-vector-fortran.h
REM seed 1834474358 718793368 -261527300 -485654159 1443292488 159008806 396843243 -1783524876 -190291481 -1116153829 2043081076 -1914040494 -935061177 318474249 1016633308 -1026382529 760069959 169456696 873443532 -1201020379 -1576620947 462819658 211280985 -173384080 113412938 1083502399 1663611156 -816143811 1185163286 -1878051682 -727284186 -880915871 -4799079
REM
CELL 1.54180   50.00000   50.00000   50.00000   90.00000   90.00000   90.00000
LATT -1
SFAC C  
C      1  0.5550640000000  0.5278150000000  0.4102540000000 1.0
C      1  0.5608960000000  0.4901370000000  0.5897460000000 1.0
C      1  0.5434690000000  0.4562270000000  0.4102540000000 1.0
C      1  0.5094380000000  0.4390360000000  0.5897460000000 1.0
C      1  0.4718020000000  0.4451320000000  0.4102540000000 1.0
C      1  0.4449360000000  0.4721850000000  0.5897460000000 1.0
C      1  0.4391040000000  0.5098630000000  0.4102540000000 1.0
C      1  0.4565310000000  0.5437730000000  0.5897460000000 1.0
C      1  0.4905620000000  0.5609640000000  0.4102540000000 1.0
C      1  0.5281980000000  0.5548680000000  0.5897460000000 1.0
C      1  0.5525130000000  0.4298480000000  0.5175120000000 1.0
C      1  0.5012500000000  0.4123790000000  0.4824880000000 1.0
C      1  0.4495090000000  0.4283790000000  0.5175110000000 1.0
C      1  0.4170540000000  0.4717350000000  0.4824880000000 1.0
C      1  0.4162810000000  0.5258880000000  0.5175110000000 1.0
C      1  0.4474870000000  0.5701520000000  0.4824880000000 1.0
C      1  0.4987500000000  0.5876210000000  0.5175120000000 1.0
C      1  0.5504910000000  0.5716210000000  0.4824890000000 1.0
C      1  0.5829460000000  0.5282650000000  0.5175120000000 1.0
C      1  0.5837190000000  0.4741120000000  0.4824890000000 1.0
C      1  0.5178990000000  0.4774720000000  0.3968930000000 1.0
C      1  0.5012390000000  0.4712540000000  0.6031070000000 1.0
C      1  0.4841060000000  0.4760160000000  0.3968930000000 1.0
C      1  0.4730430000000  0.4899380000000  0.6031070000000 1.0
C      1  0.4722780000000  0.5077050000000  0.3968930000000 1.0
C      1  0.4821010000000  0.5225280000000  0.6031070000000 1.0
C      1  0.4987610000000  0.5287460000000  0.3968930000000 1.0
C      1  0.5158940000000  0.5239840000000  0.6031070000000 1.0
C      1  0.5269570000000  0.5100620000000  0.3968930000000 1.0
C      1  0.5277220000000  0.4922950000000  0.6031070000000 1.0
C      1  0.5544920000000  0.3988540000000  0.4811010000000 1.0
C      1  0.4846330000000  0.3861410000000  0.5188990000000 1.0
C      1  0.4206440000000  0.4169190000000  0.4811010000000 1.0
C      1  0.3869650000000  0.4794310000000  0.5188990000000 1.0
C      1  0.3964630000000  0.5497990000000  0.4811010000000 1.0
C      1  0.4455080000000  0.6011460000000  0.5188990000000 1.0
C      1  0.5153670000000  0.6138590000000  0.4811010000000 1.0
C      1  0.5793560000000  0.5830810000000  0.5188990000000 1.0
C      1  0.6130350000000  0.5205690000000  0.4811010000000 1.0
C      1  0.6035370000000  0.4502010000000  0.5188990000000 1.0
C      1  0.5220850000000  0.5118130000000  0.5568620000000 1.0
C      1  0.5248110000000  0.4965750000000  0.4431380000000 1.0
C      1  0.5180590000000  0.4826460000000  0.5568620000000 1.0
C      1  0.5044100000000  0.4753450000000  0.4431380000000 1.0
C      1  0.4890760000000  0.4774620000000  0.5568620000000 1.0
C      1  0.4779150000000  0.4881870000000  0.4431380000000 1.0
C      1  0.4751890000000  0.5034250000000  0.5568620000000 1.0
C      1  0.4819410000000  0.5173540000000  0.4431380000000 1.0
C      1  0.4955900000000  0.5246550000000  0.5568620000000 1.0
C      1  0.5109240000000  0.5225380000000  0.4431380000000 1.0
C      1  0.4004120000000  0.4627650000000  0.5406780000000 1.0
C      1  0.3975450000000  0.5284130000000  0.4593220000000 1.0
C      1  0.4338130000000  0.5832080000000  0.5406780000000 1.0
C      1  0.4953620000000  0.6062200000000  0.4593220000000 1.0
C      1  0.5586820000000  0.5886600000000  0.5406780000000 1.0
C      1  0.5995880000000  0.5372350000000  0.4593220000000 1.0
C      1  0.6024550000000  0.4715870000000  0.5406780000000 1.0
C      1  0.5661870000000  0.4167920000000  0.4593220000000 1.0
C      1  0.5046380000000  0.3937800000000  0.5406780000000 1.0
C      1  0.4413180000000  0.4113400000000  0.4593220000000 1.0
C      1  0.4585490000000  0.4490890000000  0.5821460000000 1.0
C      1  0.4365410000000  0.4831770000000  0.4178540000000 1.0
C      1  0.4387720000000  0.5236900000000  0.5821460000000 1.0
C      1  0.4643900000000  0.5551540000000  0.4178540000000 1.0
C      1  0.5036100000000  0.5655520000000  0.5821460000000 1.0
C      1  0.5414510000000  0.5509110000000  0.4178540000000 1.0
C      1  0.5634590000000  0.5168230000000  0.5821460000000 1.0
C      1  0.5612280000000  0.4763100000000  0.4178540000000 1.0
C      1  0.5356100000000  0.4448460000000  0.5821460000000 1.0
C      1  0.4963900000000  0.4344480000000  0.4178540000000 1.0
C      1  0.4467940000000  0.5701480000000  0.5668400000000 1.0
C      1  0.4981870000000  0.5880240000000  0.4331600000000 1.0
C      1  0.5502730000000  0.5722780000000  0.5668400000000 1.0
C      1  0.5831560000000  0.5289250000000  0.4331600000000 1.0
C      1  0.5842760000000  0.4745230000000  0.5668400000000 1.0
C      1  0.5532060000000  0.4298520000000  0.4331600000000 1.0
C      1  0.5018130000000  0.4119760000000  0.5668400000000 1.0
C      1  0.4497270000000  0.4277220000000  0.4331600000000 1.0
C      1  0.4168440000000  0.4710750000000  0.5668400000000 1.0
C      1  0.4157240000000  0.5254770000000  0.4331600000000 1.0
C      1  0.4023230000000  0.5504710000000  0.5107250000000 1.0
C      1  0.4506430000000  0.5982450000000  0.4892750000000 1.0
C      1  0.5178160000000  0.6084930000000  0.5107250000000 1.0
C      1  0.5781840000000  0.5773000000000  0.4892750000000 1.0
C      1  0.6086880000000  0.5165820000000  0.5107250000000 1.0
C      1  0.5976770000000  0.4495290000000  0.4892750000000 1.0
C      1  0.5493570000000  0.4017550000000  0.5107250000000 1.0
C      1  0.4821840000000  0.3915070000000  0.4892750000000 1.0
C      1  0.4218160000000  0.4227000000000  0.5107250000000 1.0
C      1  0.3913120000000  0.4834180000000  0.4892750000000 1.0
C      1  0.4682250000000  0.6112080000000  0.4704450000000 1.0
C      1  0.5396600000000  0.6086470000000  0.5295560000000 1.0
C      1  0.5959460000000  0.5645860000000  0.4704450000000 1.0
C      1  0.6155850000000  0.4958550000000  0.5295560000000 1.0
C      1  0.5910740000000  0.4287080000000  0.4704450000000 1.0
C      1  0.5317750000000  0.3887920000000  0.5295550000000 1.0
C      1  0.4603400000000  0.3913530000000  0.4704440000000 1.0
C      1  0.4040540000000  0.4354140000000  0.5295550000000 1.0
C      1  0.3844150000000  0.5041450000000  0.4704440000000 1.0
C      1  0.4089260000000  0.5712920000000  0.5295550000000 1.0
C      1  0.4280650000000  0.5178840000000  0.4932320000000 1.0
C      1  0.4523150000000  0.5567510000000  0.5067680000000 1.0
C      1  0.4947790000000  0.5739410000000  0.4932320000000 1.0
C      1  0.5392380000000  0.5628880000000  0.5067680000000 1.0
C      1  0.5687090000000  0.5278140000000  0.4932320000000 1.0
C      1  0.5719350000000  0.4821160000000  0.5067680000000 1.0
C      1  0.5476850000000  0.4432490000000  0.4932320000000 1.0
C      1  0.5052210000000  0.4260590000000  0.5067680000000 1.0
C      1  0.4607620000000  0.4371120000000  0.4932320000000 1.0
C      1  0.4312910000000  0.4721860000000  0.5067680000000 1.0
C      1  0.5112160000000  0.4443900000000  0.5244980000000 1.0
C      1  0.4763870000000  0.4484180000000  0.4755020000000 1.0
C      1  0.4505770000000  0.4721490000000  0.5244980000000 1.0
C      1  0.4436450000000  0.5065180000000  0.4755020000000 1.0
C      1  0.4582390000000  0.5383970000000  0.5244980000000 1.0
C      1  0.4887840000000  0.5556100000000  0.4755020000000 1.0
C      1  0.5236130000000  0.5515820000000  0.5244980000000 1.0
C      1  0.5494230000000  0.5278510000000  0.4755020000000 1.0
C      1  0.5563550000000  0.4934820000000  0.5244980000000 1.0
C      1  0.5417610000000  0.4616030000000  0.4755020000000 1.0
C      1  0.5025130000000  0.5663700000000  0.5359990000000 1.0
C      1  0.5410440000000  0.5522170000000  0.4640010000000 1.0
C      1  0.5638980000000  0.5181200000000  0.5359990000000 1.0
C      1  0.5623450000000  0.4771010000000  0.4640010000000 1.0
C      1  0.5369780000000  0.4448290000000  0.5359990000000 1.0
C      1  0.4974870000000  0.4336300000000  0.4640010000000 1.0
C      1  0.4589560000000  0.4477830000000  0.5359990000000 1.0
C      1  0.4361020000000  0.4818800000000  0.4640010000000 1.0
C      1  0.4376550000000  0.5228990000000  0.5359990000000 1.0
C      1  0.4630220000000  0.5551710000000  0.4640010000000 1.0
C      1  0.4737870000000  0.4528450000000  0.5586950000000 1.0
C      1  0.4510770000000  0.4772590000000  0.4413050000000 1.0
C      1  0.4470530000000  0.5103580000000  0.5586950000000 1.0
C      1  0.4632540000000  0.5395010000000  0.4413050000000 1.0
C      1  0.4934890000000  0.5535560000000  0.5586950000000 1.0
C      1  0.5262130000000  0.5471550000000  0.4413050000000 1.0
C      1  0.5489230000000  0.5227410000000  0.5586950000000 1.0
C      1  0.5529470000000  0.4896420000000  0.4413050000000 1.0
C      1  0.5367460000000  0.4604990000000  0.5586950000000 1.0
C      1  0.5065110000000  0.4464440000000  0.4413050000000 1.0
END
