TITL C-3623286-7563-517 45085.8304479245 125000 -1041.01573771122 0 0 176 (C1) n - 1
REM
REM in /home/nfs/bkarasulu/CARBON/AIRSS/Generating-Clusters/LCBOP/Higher-Symm/SD-CG/FIRE-CG
REM
REM
REM
REM
REM
REM ./C.cell (b20cbc046b6831c77cfcea5457e17084)
REM AIRSS Version 0.9.1 bugfix July 2018 build 013d7b7c2542+ Fri, 06 Jul 2018 19:26:36 +0100
REM compiler GCC version 9.2.1 20190827 (Red Hat 9.2.1-1)
REM options -cpp -mtune=generic -march=x86-64 -g -O0 -fpre-include=/usr/include/finclude/math-vector-fortran.h
REM seed 1745550223 -848456943 2032510646 25345651 1802790551 805386442 679915997 1068848080 2094050324 1762722139 1153565944 1931934556 -70646977 868875327 1686772678 -365814693 -1679204940 -1579648386 -293356906 1068065261 -1089535669 1803096959 -1844413577 -115313151 -802147551 987089021 -1884926468 -11042143 1466619595 -325893702 -1448602186 -1260311650 786149682
REM
CELL 1.54180   50.00000   50.00000   50.00000   90.00000   90.00000   90.00000
LATT -1
SFAC C  
C      1  0.4010750000000  0.5724770000000  0.5282010000000 1.0
C      1  0.4940920000000  0.5699390000000  0.5986290000000 1.0
C      1  0.5932550000000  0.5610450000000  0.5399810000000 1.0
C      1  0.5502330000000  0.5721810000000  0.4148960000000 1.0
C      1  0.4370450000000  0.5726780000000  0.4179850000000 1.0
C      1  0.6083140000000  0.5120030000000  0.5513530000000 1.0
C      1  0.5453270000000  0.5228160000000  0.3978690000000 1.0
C      1  0.4284260000000  0.5204240000000  0.4146350000000 1.0
C      1  0.3975230000000  0.5203190000000  0.5344580000000 1.0
C      1  0.5022780000000  0.5200190000000  0.6113080000000 1.0
C      1  0.5386520000000  0.4604880000000  0.4423980000000 1.0
C      1  0.4707690000000  0.4597710000000  0.4500000000000 1.0
C      1  0.4494860000000  0.4637350000000  0.5192240000000 1.0
C      1  0.5063470000000  0.4548390000000  0.5513090000000 1.0
C      1  0.5681740000000  0.4597960000000  0.5057900000000 1.0
C      1  0.4066370000000  0.4580730000000  0.4580090000000 1.0
C      1  0.4271140000000  0.4583320000000  0.5713390000000 1.0
C      1  0.5468010000000  0.4532240000000  0.5979830000000 1.0
C      1  0.6166200000000  0.4465710000000  0.5052290000000 1.0
C      1  0.5028620000000  0.4561670000000  0.3890030000000 1.0
C      1  0.4804190000000  0.4052740000000  0.4538020000000 1.0
C      1  0.4481300000000  0.4064370000000  0.5030650000000 1.0
C      1  0.4843930000000  0.4040450000000  0.5515340000000 1.0
C      1  0.5408730000000  0.4044940000000  0.5316160000000 1.0
C      1  0.5392380000000  0.4066750000000  0.4697590000000 1.0
C      1  0.5183800000000  0.3959470000000  0.4868570000000 1.0
C      1  0.4905120000000  0.3949980000000  0.4782950000000 1.0
C      1  0.4737680000000  0.3941360000000  0.5020260000000 1.0
C      1  0.4911290000000  0.3937170000000  0.5256650000000 1.0
C      1  0.5187030000000  0.3947590000000  0.5162790000000 1.0
C      1  0.4101220000000  0.5003840000000  0.4284240000000 1.0
C      1  0.4055560000000  0.5002950000000  0.5546650000000 1.0
C      1  0.5249410000000  0.5005820000000  0.6147560000000 1.0
C      1  0.6179720000000  0.4884220000000  0.5355320000000 1.0
C      1  0.5276280000000  0.5046360000000  0.3823670000000 1.0
C      1  0.4956170000000  0.5960590000000  0.5841820000000 1.0
C      1  0.5810700000000  0.5879030000000  0.5312150000000 1.0
C      1  0.5436670000000  0.5989730000000  0.4283300000000 1.0
C      1  0.4467930000000  0.5984920000000  0.4312020000000 1.0
C      1  0.4168200000000  0.5980430000000  0.5246350000000 1.0
C      1  0.6063160000000  0.4107040000000  0.5902860000000 1.0
C      1  0.6179360000000  0.4258850000000  0.4303870000000 1.0
C      1  0.4521650000000  0.4013520000000  0.3788370000000 1.0
C      1  0.3663380000000  0.4174480000000  0.5034820000000 1.0
C      1  0.4621280000000  0.4278410000000  0.6273530000000 1.0
C      1  0.5454540000000  0.4882980000000  0.5528470000000 1.0
C      1  0.5753680000000  0.4928610000000  0.4649640000000 1.0
C      1  0.5044300000000  0.4931450000000  0.4265680000000 1.0
C      1  0.4444220000000  0.4973200000000  0.4762750000000 1.0
C      1  0.4714730000000  0.4942940000000  0.5510950000000 1.0
C      1  0.5024680000000  0.4676470000000  0.5288150000000 1.0
C      1  0.5420630000000  0.4682460000000  0.5108650000000 1.0
C      1  0.5355900000000  0.4690930000000  0.4681080000000 1.0
C      1  0.4925880000000  0.4681440000000  0.4629920000000 1.0
C      1  0.4703600000000  0.4673030000000  0.5000790000000 1.0
C      1  0.5324750000000  0.5132080000000  0.4835100000000 1.0
C      1  0.5063520000000  0.5130420000000  0.4719750000000 1.0
C      1  0.4874440000000  0.5124410000000  0.4927720000000 1.0
C      1  0.5013460000000  0.5130080000000  0.5171590000000 1.0
C      1  0.5293220000000  0.5123950000000  0.5120470000000 1.0
C      1  0.5442880000000  0.5539180000000  0.5092120000000 1.0
C      1  0.5214540000000  0.5554980000000  0.4547570000000 1.0
C      1  0.4619500000000  0.5513250000000  0.4590760000000 1.0
C      1  0.4474870000000  0.5494850000000  0.5177150000000 1.0
C      1  0.4989390000000  0.5505660000000  0.5489500000000 1.0
C      1  0.5480870000000  0.4939520000000  0.4719580000000 1.0
C      1  0.5017700000000  0.4929630000000  0.4540720000000 1.0
C      1  0.4680670000000  0.4932290000000  0.4898390000000 1.0
C      1  0.4931090000000  0.4935580000000  0.5342080000000 1.0
C      1  0.5415390000000  0.4916350000000  0.5255930000000 1.0
C      1  0.5651270000000  0.4130550000000  0.4851050000000 1.0
C      1  0.5000290000000  0.4141320000000  0.4333140000000 1.0
C      1  0.4355760000000  0.4167890000000  0.4782380000000 1.0
C      1  0.4577040000000  0.4172470000000  0.5537620000000 1.0
C      1  0.5363520000000  0.4111200000000  0.5602180000000 1.0
C      1  0.5565210000000  0.4295710000000  0.5826430000000 1.0
C      1  0.5970600000000  0.4277910000000  0.4793450000000 1.0
C      1  0.4908220000000  0.4269580000000  0.4062120000000 1.0
C      1  0.4099180000000  0.4340390000000  0.4758020000000 1.0
C      1  0.4474070000000  0.4361560000000  0.5758410000000 1.0
C      1  0.4725660000000  0.6105070000000  0.5116710000000 1.0
C      1  0.5006280000000  0.6102480000000  0.5279780000000 1.0
C      1  0.5259640000000  0.6101220000000  0.5064840000000 1.0
C      1  0.5112760000000  0.6116710000000  0.4754730000000 1.0
C      1  0.4786190000000  0.6113290000000  0.4799690000000 1.0
C      1  0.4729130000000  0.5530010000000  0.5068100000000 1.0
C      1  0.4959590000000  0.5572290000000  0.5219360000000 1.0
C      1  0.5176140000000  0.5609510000000  0.5042800000000 1.0
C      1  0.5074780000000  0.5594220000000  0.4784780000000 1.0
C      1  0.4800970000000  0.5543760000000  0.4799840000000 1.0
C      1  0.5757340000000  0.4375730000000  0.5226790000000 1.0
C      1  0.5422850000000  0.4359640000000  0.4305670000000 1.0
C      1  0.4520320000000  0.4406070000000  0.4409570000000 1.0
C      1  0.4306030000000  0.4438160000000  0.5256930000000 1.0
C      1  0.5046890000000  0.4394930000000  0.5747480000000 1.0
C      1  0.5198480000000  0.4560430000000  0.5924580000000 1.0
C      1  0.6032210000000  0.4360160000000  0.5273870000000 1.0
C      1  0.5273850000000  0.4577440000000  0.4004210000000 1.0
C      1  0.4287140000000  0.4576180000000  0.4397120000000 1.0
C      1  0.4131830000000  0.4503190000000  0.5470280000000 1.0
C      1  0.4078290000000  0.5485240000000  0.5738280000000 1.0
C      1  0.5408290000000  0.5500640000000  0.6085880000000 1.0
C      1  0.6303970000000  0.5373850000000  0.5146710000000 1.0
C      1  0.5125670000000  0.5545580000000  0.3818750000000 1.0
C      1  0.3958970000000  0.5486790000000  0.4393160000000 1.0
C      1  0.4238250000000  0.5018040000000  0.4942770000000 1.0
C      1  0.4772340000000  0.4935420000000  0.5780130000000 1.0
C      1  0.5718780000000  0.4838400000000  0.5601570000000 1.0
C      1  0.5789210000000  0.5027790000000  0.4381310000000 1.0
C      1  0.4774420000000  0.4979230000000  0.4182190000000 1.0
C      1  0.5121670000000  0.5485270000000  0.6087100000000 1.0
C      1  0.6132130000000  0.5390620000000  0.5374130000000 1.0
C      1  0.5372490000000  0.5518840000000  0.3967160000000 1.0
C      1  0.4187590000000  0.5490890000000  0.4216290000000 1.0
C      1  0.3991700000000  0.5486810000000  0.5463390000000 1.0
C      1  0.5241380000000  0.4827280000000  0.5689310000000 1.0
C      1  0.5844130000000  0.4742470000000  0.4855020000000 1.0
C      1  0.5273500000000  0.4766370000000  0.4209090000000 1.0
C      1  0.4454910000000  0.4864410000000  0.4512120000000 1.0
C      1  0.4488520000000  0.4852780000000  0.5379100000000 1.0
C      1  0.4020040000000  0.5595160000000  0.5026580000000 1.0
C      1  0.4717080000000  0.5553520000000  0.5885160000000 1.0
C      1  0.5709780000000  0.5462440000000  0.5499050000000 1.0
C      1  0.5650670000000  0.5586720000000  0.4358250000000 1.0
C      1  0.4615320000000  0.5592410000000  0.4111650000000 1.0
C      1  0.5681050000000  0.5879760000000  0.4871880000000 1.0
C      1  0.5001770000000  0.5915120000000  0.4322870000000 1.0
C      1  0.4351490000000  0.5890270000000  0.4728300000000 1.0
C      1  0.4517770000000  0.5861320000000  0.5489900000000 1.0
C      1  0.5302500000000  0.5856800000000  0.5583940000000 1.0
C      1  0.4228880000000  0.4877490000000  0.5764220000000 1.0
C      1  0.5524070000000  0.4876780000000  0.6069950000000 1.0
C      1  0.6257840000000  0.4741210000000  0.5107090000000 1.0
C      1  0.5007170000000  0.4913220000000  0.3778230000000 1.0
C      1  0.3965990000000  0.4870940000000  0.4540640000000 1.0
C      1  0.6383130000000  0.4924880000000  0.4929890000000 1.0
C      1  0.4788730000000  0.5134400000000  0.3774080000000 1.0
C      1  0.3858560000000  0.5089580000000  0.4728360000000 1.0
C      1  0.4357060000000  0.5089140000000  0.5941250000000 1.0
C      1  0.5722330000000  0.5089560000000  0.5974570000000 1.0
C      1  0.4596700000000  0.5106330000000  0.4001820000000 1.0
C      1  0.3975960000000  0.5098980000000  0.5005210000000 1.0
C      1  0.4703410000000  0.5080980000000  0.6000450000000 1.0
C      1  0.5882420000000  0.5039130000000  0.5725170000000 1.0
C      1  0.5657430000000  0.5124680000000  0.4159350000000 1.0
C      1  0.5633380000000  0.5354540000000  0.6044110000000 1.0
C      1  0.6394370000000  0.5193710000000  0.4966880000000 1.0
C      1  0.4911630000000  0.5396160000000  0.3735270000000 1.0
C      1  0.3830690000000  0.5339140000000  0.4583080000000 1.0
C      1  0.4220910000000  0.5340390000000  0.5919270000000 1.0
C      1  0.6085910000000  0.4258230000000  0.4547120000000 1.0
C      1  0.4713860000000  0.4134790000000  0.3915860000000 1.0
C      1  0.3871610000000  0.4253230000000  0.4899390000000 1.0
C      1  0.4552200000000  0.4311570000000  0.6024470000000 1.0
C      1  0.5822430000000  0.4197910000000  0.5861620000000 1.0
C      1  0.5617890000000  0.4142210000000  0.5148650000000 1.0
C      1  0.5284870000000  0.4148370000000  0.4427710000000 1.0
C      1  0.4536810000000  0.4166020000000  0.4550560000000 1.0
C      1  0.4426250000000  0.4185160000000  0.5283270000000 1.0
C      1  0.5073770000000  0.4124480000000  0.5674000000000 1.0
C      1  0.5499920000000  0.5538000000000  0.4589960000000 1.0
C      1  0.4761010000000  0.5514400000000  0.4337450000000 1.0
C      1  0.4277620000000  0.5502720000000  0.4963060000000 1.0
C      1  0.4732230000000  0.5478060000000  0.5615570000000 1.0
C      1  0.5467700000000  0.5476340000000  0.5373030000000 1.0
C      1  0.4552620000000  0.6045360000000  0.4595740000000 1.0
C      1  0.4463370000000  0.6030940000000  0.5265100000000 1.0
C      1  0.5069310000000  0.6025110000000  0.5572590000000 1.0
C      1  0.5600740000000  0.6004930000000  0.5120430000000 1.0
C      1  0.5207470000000  0.6060060000000  0.4464020000000 1.0
C      1  0.5595160000000  0.5609620000000  0.4851370000000 1.0
C      1  0.5018720000000  0.5631610000000  0.4348150000000 1.0
C      1  0.4373230000000  0.5606340000000  0.4716080000000 1.0
C      1  0.4517260000000  0.5577600000000  0.5454470000000 1.0
C      1  0.5263280000000  0.5579320000000  0.5540090000000 1.0
C      1  0.5089250000000  0.4619990000000  0.4942490000000 1.0
END
