TITL C-3623289-7120-1569 907.57322530676 125000 -853.251215036293 0 0 136 (C1) n - 1
REM
REM in /home/nfs/bkarasulu/CARBON/AIRSS/Generating-Clusters/LCBOP/Higher-Symm/SD-CG/FIRE-CG
REM
REM
REM
REM
REM
REM ./C.cell (b20cbc046b6831c77cfcea5457e17084)
REM AIRSS Version 0.9.1 bugfix July 2018 build 013d7b7c2542+ Fri, 06 Jul 2018 19:26:36 +0100
REM compiler GCC version 9.2.1 20190827 (Red Hat 9.2.1-1)
REM options -cpp -mtune=generic -march=x86-64 -g -O0 -fpre-include=/usr/include/finclude/math-vector-fortran.h
REM seed -963872340 -633693607 685744 1362386409 422420926 1454108644 -480131387 1631987445 1598719862 1800280321 -448002022 1558739884 -1941336922 -1264750026 814486373 -892353948 1975065393 -473858771 -526274302 -244885890 1130794571 991451450 -65952597 -82245393 1394511558 2054832804 -2008837435 1412103980 -1756155250 -1855649720 -906953413 1757557563 1073840720
REM
CELL 1.54180   50.00000   50.00000   50.00000   90.00000   90.00000   90.00000
LATT -1
SFAC C  
C      1  0.5779880000000  0.5527130000000  0.5363380000000 1.0
C      1  0.5566180000000  0.5341110000000  0.5769890000000 1.0
C      1  0.5373660000000  0.5747380000000  0.5554490000000 1.0
C      1  0.4250450000000  0.4437390000000  0.5362100000000 1.0
C      1  0.5650500000000  0.4507740000000  0.4712990000000 1.0
C      1  0.4256350000000  0.5480640000000  0.4633320000000 1.0
C      1  0.4494470000000  0.4668150000000  0.5725690000000 1.0
C      1  0.5530060000000  0.4698320000000  0.4279940000000 1.0
C      1  0.4456650000000  0.5327560000000  0.4206900000000 1.0
C      1  0.4659550000000  0.4232030000000  0.5565530000000 1.0
C      1  0.5275730000000  0.4315670000000  0.4458990000000 1.0
C      1  0.4647900000000  0.5726070000000  0.4442870000000 1.0
C      1  0.5587220000000  0.5737600000000  0.5357110000000 1.0
C      1  0.5350470000000  0.5529640000000  0.5738960000000 1.0
C      1  0.5784000000000  0.5338620000000  0.5580670000000 1.0
C      1  0.4430440000000  0.4206260000000  0.5389790000000 1.0
C      1  0.4444960000000  0.5694780000000  0.4641200000000 1.0
C      1  0.5455080000000  0.4304270000000  0.4676580000000 1.0
C      1  0.4689580000000  0.4463470000000  0.5732580000000 1.0
C      1  0.4643460000000  0.5546730000000  0.4213900000000 1.0
C      1  0.5320570000000  0.4506390000000  0.4249220000000 1.0
C      1  0.4284010000000  0.4660770000000  0.5534680000000 1.0
C      1  0.4267060000000  0.5295500000000  0.4420190000000 1.0
C      1  0.5694200000000  0.4704480000000  0.4518150000000 1.0
C      1  0.4575530000000  0.5687530000000  0.4898750000000 1.0
C      1  0.5718050000000  0.4965730000000  0.4628670000000 1.0
C      1  0.4960120000000  0.4569480000000  0.5706620000000 1.0
C      1  0.5315080000000  0.4275000000000  0.4926740000000 1.0
C      1  0.4536190000000  0.4160260000000  0.5120020000000 1.0
C      1  0.5485960000000  0.5773980000000  0.5088330000000 1.0
C      1  0.4283390000000  0.5026960000000  0.4530070000000 1.0
C      1  0.5831270000000  0.5069170000000  0.5484400000000 1.0
C      1  0.4272910000000  0.4914550000000  0.5391320000000 1.0
C      1  0.5079780000000  0.5411290000000  0.5753560000000 1.0
C      1  0.4914550000000  0.5440730000000  0.4195280000000 1.0
C      1  0.5055540000000  0.4631040000000  0.4208050000000 1.0
C      1  0.5633010000000  0.4619010000000  0.4973790000000 1.0
C      1  0.4915500000000  0.5727400000000  0.4578200000000 1.0
C      1  0.4612910000000  0.4927780000000  0.5724850000000 1.0
C      1  0.4251710000000  0.5340510000000  0.4892600000000 1.0
C      1  0.4242430000000  0.4538450000000  0.5085060000000 1.0
C      1  0.5814890000000  0.5404210000000  0.5098590000000 1.0
C      1  0.4998180000000  0.4323310000000  0.4551850000000 1.0
C      1  0.5119610000000  0.5807900000000  0.5432130000000 1.0
C      1  0.4924180000000  0.4206940000000  0.5426330000000 1.0
C      1  0.5463060000000  0.5073890000000  0.5804270000000 1.0
C      1  0.5418970000000  0.4968590000000  0.4279140000000 1.0
C      1  0.4590790000000  0.5064240000000  0.4174890000000 1.0
C      1  0.4525860000000  0.4648880000000  0.5024900000000 1.0
C      1  0.4774280000000  0.5018760000000  0.4429130000000 1.0
C      1  0.4933360000000  0.4598510000000  0.4698070000000 1.0
C      1  0.5652860000000  0.5171910000000  0.5060640000000 1.0
C      1  0.4531280000000  0.5173020000000  0.4931610000000 1.0
C      1  0.5334490000000  0.4781420000000  0.5016480000000 1.0
C      1  0.5256500000000  0.4972700000000  0.4512190000000 1.0
C      1  0.4796520000000  0.4968710000000  0.5449690000000 1.0
C      1  0.5277740000000  0.5022510000000  0.5592910000000 1.0
C      1  0.4963480000000  0.5432080000000  0.4698160000000 1.0
C      1  0.5071130000000  0.5618930000000  0.5224710000000 1.0
C      1  0.4951720000000  0.4451910000000  0.5220380000000 1.0
C      1  0.4686690000000  0.4405630000000  0.5085460000000 1.0
C      1  0.5001520000000  0.4809870000000  0.4462390000000 1.0
C      1  0.4561660000000  0.4983200000000  0.4661610000000 1.0
C      1  0.5281920000000  0.5580620000000  0.5031760000000 1.0
C      1  0.5123970000000  0.4539730000000  0.4968260000000 1.0
C      1  0.4731560000000  0.5414610000000  0.4930660000000 1.0
C      1  0.4930910000000  0.5278160000000  0.4438390000000 1.0
C      1  0.5000740000000  0.4693710000000  0.5409450000000 1.0
C      1  0.5040320000000  0.5173460000000  0.5596710000000 1.0
C      1  0.5407290000000  0.5071710000000  0.4823100000000 1.0
C      1  0.5641530000000  0.5006450000000  0.5283430000000 1.0
C      1  0.4547150000000  0.4953960000000  0.5199410000000 1.0
C      1  0.4832890000000  0.4102510000000  0.4537960000000 1.0
C      1  0.4051560000000  0.4480150000000  0.4890870000000 1.0
C      1  0.4476420000000  0.4858720000000  0.4023450000000 1.0
C      1  0.5121630000000  0.5912940000000  0.4547800000000 1.0
C      1  0.4912950000000  0.5977580000000  0.5513320000000 1.0
C      1  0.5114530000000  0.4029280000000  0.5523470000000 1.0
C      1  0.5966550000000  0.5531610000000  0.4900980000000 1.0
C      1  0.4093410000000  0.5449610000000  0.5094320000000 1.0
C      1  0.5830480000000  0.4571420000000  0.5160290000000 1.0
C      1  0.5489110000000  0.5160400000000  0.4093600000000 1.0
C      1  0.4536150000000  0.5131320000000  0.5896180000000 1.0
C      1  0.5554960000000  0.4875520000000  0.5977530000000 1.0
C      1  0.4077040000000  0.4844440000000  0.4506440000000 1.0
C      1  0.4452940000000  0.3999930000000  0.4907690000000 1.0
C      1  0.4857250000000  0.4502290000000  0.4057480000000 1.0
C      1  0.5896200000000  0.5155210000000  0.4542750000000 1.0
C      1  0.6014260000000  0.4876900000000  0.5570240000000 1.0
C      1  0.4091970000000  0.5107550000000  0.5472190000000 1.0
C      1  0.5541780000000  0.5979770000000  0.4910070000000 1.0
C      1  0.5428020000000  0.4112080000000  0.5123370000000 1.0
C      1  0.4551830000000  0.5884430000000  0.5093340000000 1.0
C      1  0.5120580000000  0.5538440000000  0.4037820000000 1.0
C      1  0.5156850000000  0.4523570000000  0.5895390000000 1.0
C      1  0.4889460000000  0.5520980000000  0.5925000000000 1.0
C      1  0.5585130000000  0.5423220000000  0.4072050000000 1.0
C      1  0.5385720000000  0.4042230000000  0.5593580000000 1.0
C      1  0.4083730000000  0.5563750000000  0.5351480000000 1.0
C      1  0.4388030000000  0.4591670000000  0.4042190000000 1.0
C      1  0.5624300000000  0.4601390000000  0.5973140000000 1.0
C      1  0.4431000000000  0.5391480000000  0.5919080000000 1.0
C      1  0.4635990000000  0.5958860000000  0.5568400000000 1.0
C      1  0.5384010000000  0.5955920000000  0.4451800000000 1.0
C      1  0.4576640000000  0.4049900000000  0.4439150000000 1.0
C      1  0.5911800000000  0.4438890000000  0.5394030000000 1.0
C      1  0.4029580000000  0.4385310000000  0.4625520000000 1.0
C      1  0.5959780000000  0.5619200000000  0.4633200000000 1.0
C      1  0.5387330000000  0.5626450000000  0.4059330000000 1.0
C      1  0.4074060000000  0.5373230000000  0.5560670000000 1.0
C      1  0.5558940000000  0.4073950000000  0.5370980000000 1.0
C      1  0.4595060000000  0.4397260000000  0.4058100000000 1.0
C      1  0.4620690000000  0.5601960000000  0.5929030000000 1.0
C      1  0.5411930000000  0.4415950000000  0.5940600000000 1.0
C      1  0.5981120000000  0.4600050000000  0.5618550000000 1.0
C      1  0.5936580000000  0.5413310000000  0.4439630000000 1.0
C      1  0.4042350000000  0.4580180000000  0.4419650000000 1.0
C      1  0.4452680000000  0.5923310000000  0.5353190000000 1.0
C      1  0.4373520000000  0.4015530000000  0.4635460000000 1.0
C      1  0.5600650000000  0.5978700000000  0.4635190000000 1.0
C      1  0.4138440000000  0.4531140000000  0.4159270000000 1.0
C      1  0.4536040000000  0.4147930000000  0.4177530000000 1.0
C      1  0.5840510000000  0.5468930000000  0.4181030000000 1.0
C      1  0.4172120000000  0.5432440000000  0.5817130000000 1.0
C      1  0.5879380000000  0.4534260000000  0.5873230000000 1.0
C      1  0.5432020000000  0.5873530000000  0.4186390000000 1.0
C      1  0.4565820000000  0.5856280000000  0.5822030000000 1.0
C      1  0.5453250000000  0.4154520000000  0.5843080000000 1.0
C      1  0.4193980000000  0.5818590000000  0.5396050000000 1.0
C      1  0.5818530000000  0.4174070000000  0.5413270000000 1.0
C      1  0.4118090000000  0.4121860000000  0.4581690000000 1.0
C      1  0.5855410000000  0.5873970000000  0.4573180000000 1.0
C      1  0.4854160000000  0.5449150000000  0.5197890000000 1.0
C      1  0.5233430000000  0.5377680000000  0.4841750000000 1.0
C      1  0.5309030000000  0.4860790000000  0.5353190000000 1.0
C      1  0.4648490000000  0.4715140000000  0.4769040000000 1.0
END
