TITL C-3623288-6813-794 13.5125647984192 125000 -275.686812227677 0 0 52 (T23) n - 1
REM
REM in /home/nfs/bkarasulu/CARBON/AIRSS/Generating-Clusters/LCBOP/Higher-Symm/SD-CG/FIRE-CG
REM
REM
REM
REM
REM
REM ./C.cell (b20cbc046b6831c77cfcea5457e17084)
REM AIRSS Version 0.9.1 bugfix July 2018 build 013d7b7c2542+ Fri, 06 Jul 2018 19:26:36 +0100
REM compiler GCC version 9.2.1 20190827 (Red Hat 9.2.1-1)
REM options -cpp -mtune=generic -march=x86-64 -g -O0 -fpre-include=/usr/include/finclude/math-vector-fortran.h
REM seed -1394563045 2133100161 87793960 1249211694 732299901 -749716244 1218140198 -1603979062 -1125702622 -1476557032 -206306342 -162485383 741188674 1943450497 -2082390704 1732123382 1378823507 -1932605566 648695043 490914371 1026850034 1594758060 -1790190329 -968880371 177247985 310589155 312454550 1962693560 -1346239568 -759683826 -1828676202 2127583553 -1065072985
REM
CELL 1.54180   50.00000   50.00000   50.00000   90.00000   90.00000   90.00000
LATT -1
SFAC C  
C      1  0.4937470000000  0.5496660000000  0.5502520000000 1.0
C      1  0.5494050000000  0.5502580000000  0.4936000000000 1.0
C      1  0.5499690000000  0.4939840000000  0.5490400000000 1.0
C      1  0.5058710000000  0.4505390000000  0.5498480000000 1.0
C      1  0.4939510000000  0.4507020000000  0.4498110000000 1.0
C      1  0.5061290000000  0.5493670000000  0.4495120000000 1.0
C      1  0.4502170000000  0.4494990000000  0.4935750000000 1.0
C      1  0.5496100000000  0.4495420000000  0.5060410000000 1.0
C      1  0.4507620000000  0.5499590000000  0.5058230000000 1.0
C      1  0.4496410000000  0.5061250000000  0.5492390000000 1.0
C      1  0.5502540000000  0.5061240000000  0.4503700000000 1.0
C      1  0.4495590000000  0.4937150000000  0.4503600000000 1.0
C      1  0.5070350000000  0.5110230000000  0.5342160000000 1.0
C      1  0.5110040000000  0.5337240000000  0.5076000000000 1.0
C      1  0.5341610000000  0.5071970000000  0.5100660000000 1.0
C      1  0.4925000000000  0.4894590000000  0.5341150000000 1.0
C      1  0.5072440000000  0.4896530000000  0.4656620000000 1.0
C      1  0.4921820000000  0.5109730000000  0.4661230000000 1.0
C      1  0.4889110000000  0.4654920000000  0.5068180000000 1.0
C      1  0.5108760000000  0.4654900000000  0.4929410000000 1.0
C      1  0.4896770000000  0.5340950000000  0.4925400000000 1.0
C      1  0.4661530000000  0.4921930000000  0.5107420000000 1.0
C      1  0.5336820000000  0.4921090000000  0.4887670000000 1.0
C      1  0.4656510000000  0.5067730000000  0.4891230000000 1.0
C      1  0.5346130000000  0.5117440000000  0.5685150000000 1.0
C      1  0.5114550000000  0.5688120000000  0.5344250000000 1.0
C      1  0.5686980000000  0.5345750000000  0.5112810000000 1.0
C      1  0.4651220000000  0.4882340000000  0.5685940000000 1.0
C      1  0.5345620000000  0.4884450000000  0.4310780000000 1.0
C      1  0.4652360000000  0.5114020000000  0.4311410000000 1.0
C      1  0.4881230000000  0.4311300000000  0.5343550000000 1.0
C      1  0.5117220000000  0.4312800000000  0.4652240000000 1.0
C      1  0.4884580000000  0.5686640000000  0.4651990000000 1.0
C      1  0.4310850000000  0.4653200000000  0.5112700000000 1.0
C      1  0.5687810000000  0.4653040000000  0.4883530000000 1.0
C      1  0.4313450000000  0.5344230000000  0.4882920000000 1.0
C      1  0.5576460000000  0.5113140000000  0.5260050000000 1.0
C      1  0.5113300000000  0.5267320000000  0.5577840000000 1.0
C      1  0.5265420000000  0.5576200000000  0.5114160000000 1.0
C      1  0.4422690000000  0.4883510000000  0.5263240000000 1.0
C      1  0.5575930000000  0.4882850000000  0.4732350000000 1.0
C      1  0.4420530000000  0.5110850000000  0.4734250000000 1.0
C      1  0.4883620000000  0.4734510000000  0.5575320000000 1.0
C      1  0.5113120000000  0.4737270000000  0.4421600000000 1.0
C      1  0.4882790000000  0.5264960000000  0.4422280000000 1.0
C      1  0.4731670000000  0.4419310000000  0.5110790000000 1.0
C      1  0.5266530000000  0.4419830000000  0.4885590000000 1.0
C      1  0.4737460000000  0.5575940000000  0.4884560000000 1.0
C      1  0.5380330000000  0.5380170000000  0.4617190000000 1.0
C      1  0.5379260000000  0.4619100000000  0.5378550000000 1.0
C      1  0.4619030000000  0.5380340000000  0.5379120000000 1.0
C      1  0.4618010000000  0.4617800000000  0.4617120000000 1.0
END
