TITL C-3623289-7120-583 9.97633677870312e-06 125000 -1052.83683958754 0 0 168 (C1) n - 1
REM
REM in /home/nfs/bkarasulu/CARBON/AIRSS/Generating-Clusters/LCBOP/Higher-Symm/SD-CG/FIRE-CG
REM
REM
REM
REM
REM
REM ./C.cell (b20cbc046b6831c77cfcea5457e17084)
REM AIRSS Version 0.9.1 bugfix July 2018 build 013d7b7c2542+ Fri, 06 Jul 2018 19:26:36 +0100
REM compiler GCC version 9.2.1 20190827 (Red Hat 9.2.1-1)
REM options -cpp -mtune=generic -march=x86-64 -g -O0 -fpre-include=/usr/include/finclude/math-vector-fortran.h
REM seed -1424744863 819951231 -769203623 1401412714 443538552 74109168 -1631155360 -2138062512 -1008666802 121524639 -1529474603 1292531513 1992735631 -158360149 -1691168355 -1059317907 -763489422 -1483750529 651636991 636349898 136495736 1454355920 -805134969 -783217637 -1639418419 1532021655 -1887656782 -2008341330 -778257311 -1733377021 1132069889 259290673 1268155901
REM
CELL 1.54180   50.00000   50.00000   50.00000   90.00000   90.00000   90.00000
LATT -1
SFAC C  
C      1  0.5806750000000  0.4519900000000  0.5510000000000 1.0
C      1  0.5804620000000  0.4368890000000  0.4708190000000 1.0
C      1  0.5800780000000  0.5081150000000  0.4327140000000 1.0
C      1  0.5815340000000  0.5660540000000  0.4868920000000 1.0
C      1  0.5814090000000  0.5328970000000  0.5613100000000 1.0
C      1  0.4177370000000  0.5504070000000  0.5509540000000 1.0
C      1  0.4213780000000  0.5606220000000  0.4687950000000 1.0
C      1  0.4203840000000  0.4897860000000  0.4334560000000 1.0
C      1  0.4203550000000  0.4324240000000  0.4907820000000 1.0
C      1  0.4175270000000  0.4693590000000  0.5627220000000 1.0
C      1  0.4586760000000  0.5188450000000  0.4133390000000 1.0
C      1  0.4592110000000  0.5918790000000  0.4845430000000 1.0
C      1  0.4563720000000  0.5476630000000  0.5894390000000 1.0
C      1  0.4557070000000  0.4341210000000  0.5632120000000 1.0
C      1  0.4568140000000  0.4133350000000  0.4562690000000 1.0
C      1  0.5435500000000  0.4840390000000  0.4056100000000 1.0
C      1  0.5432820000000  0.4041620000000  0.4842730000000 1.0
C      1  0.5422190000000  0.4570120000000  0.5851670000000 1.0
C      1  0.5427740000000  0.5675090000000  0.5686590000000 1.0
C      1  0.5448550000000  0.5841350000000  0.4519080000000 1.0
C      1  0.4865910000000  0.4526410000000  0.4813100000000 1.0
C      1  0.4914390000000  0.5048340000000  0.4648600000000 1.0
C      1  0.4856470000000  0.5474570000000  0.4873480000000 1.0
C      1  0.4816000000000  0.5218710000000  0.5336830000000 1.0
C      1  0.4844660000000  0.4758930000000  0.5285490000000 1.0
C      1  0.5115050000000  0.5466230000000  0.4802910000000 1.0
C      1  0.5121230000000  0.4964060000000  0.4491480000000 1.0
C      1  0.5119580000000  0.4516670000000  0.4887840000000 1.0
C      1  0.5137820000000  0.4806290000000  0.5300540000000 1.0
C      1  0.5125270000000  0.5268370000000  0.5276790000000 1.0
C      1  0.3957850000000  0.5057760000000  0.4755020000000 1.0
C      1  0.3962440000000  0.5258880000000  0.4977140000000 1.0
C      1  0.4036410000000  0.5102380000000  0.5241230000000 1.0
C      1  0.3949090000000  0.4803180000000  0.5176520000000 1.0
C      1  0.3950220000000  0.4781410000000  0.4873970000000 1.0
C      1  0.6029580000000  0.4924370000000  0.4761180000000 1.0
C      1  0.6034600000000  0.4733770000000  0.4992320000000 1.0
C      1  0.6044720000000  0.4895950000000  0.5248860000000 1.0
C      1  0.6050280000000  0.5188570000000  0.5170750000000 1.0
C      1  0.6039680000000  0.5202420000000  0.4869130000000 1.0
C      1  0.4799280000000  0.3787580000000  0.4956600000000 1.0
C      1  0.4807520000000  0.4711290000000  0.3837490000000 1.0
C      1  0.4676150000000  0.5928310000000  0.4110560000000 1.0
C      1  0.4796530000000  0.5978560000000  0.5720110000000 1.0
C      1  0.4797620000000  0.4588240000000  0.6125210000000 1.0
C      1  0.5229860000000  0.6203630000000  0.4923430000000 1.0
C      1  0.5325790000000  0.5517570000000  0.3821170000000 1.0
C      1  0.5376500000000  0.4135330000000  0.4074700000000 1.0
C      1  0.5359430000000  0.3865480000000  0.5565220000000 1.0
C      1  0.5364440000000  0.5170740000000  0.6246420000000 1.0
C      1  0.4595950000000  0.4621730000000  0.5277530000000 1.0
C      1  0.4616070000000  0.4596370000000  0.4717510000000 1.0
C      1  0.4659070000000  0.5132540000000  0.4577880000000 1.0
C      1  0.4599730000000  0.5460690000000  0.4987340000000 1.0
C      1  0.4570380000000  0.5202550000000  0.5475330000000 1.0
C      1  0.5393530000000  0.5379910000000  0.5292410000000 1.0
C      1  0.5374640000000  0.5393660000000  0.4729240000000 1.0
C      1  0.5367440000000  0.4856060000000  0.4547850000000 1.0
C      1  0.5373690000000  0.4529380000000  0.4997810000000 1.0
C      1  0.5387200000000  0.4832240000000  0.5439610000000 1.0
C      1  0.4496190000000  0.4343710000000  0.5336600000000 1.0
C      1  0.4495250000000  0.4535160000000  0.4468190000000 1.0
C      1  0.4543970000000  0.5337210000000  0.4391910000000 1.0
C      1  0.4499270000000  0.5654270000000  0.5165400000000 1.0
C      1  0.4472250000000  0.5069290000000  0.5695430000000 1.0
C      1  0.5508670000000  0.5634290000000  0.5242370000000 1.0
C      1  0.5494480000000  0.5426920000000  0.4475060000000 1.0
C      1  0.5471380000000  0.4613640000000  0.4461420000000 1.0
C      1  0.5475700000000  0.4361790000000  0.5196080000000 1.0
C      1  0.5472870000000  0.4985350000000  0.5658830000000 1.0
C      1  0.5160990000000  0.4775420000000  0.4101860000000 1.0
C      1  0.5153280000000  0.5858340000000  0.4510530000000 1.0
C      1  0.5152500000000  0.5713840000000  0.5600740000000 1.0
C      1  0.5147810000000  0.4665470000000  0.5850880000000 1.0
C      1  0.5160000000000  0.4058040000000  0.4936620000000 1.0
C      1  0.4879760000000  0.5187000000000  0.4071780000000 1.0
C      1  0.4861120000000  0.4117050000000  0.4550260000000 1.0
C      1  0.4853140000000  0.4322310000000  0.5676200000000 1.0
C      1  0.4857460000000  0.5469940000000  0.5886610000000 1.0
C      1  0.4871690000000  0.5923030000000  0.4911230000000 1.0
C      1  0.4959980000000  0.5727800000000  0.5364140000000 1.0
C      1  0.4926850000000  0.4950300000000  0.5835420000000 1.0
C      1  0.4938570000000  0.4169470000000  0.5200420000000 1.0
C      1  0.4937230000000  0.4543630000000  0.4264320000000 1.0
C      1  0.4976130000000  0.5624870000000  0.4384830000000 1.0
C      1  0.5035380000000  0.4270090000000  0.5444560000000 1.0
C      1  0.5027560000000  0.5216340000000  0.5833270000000 1.0
C      1  0.5062880000000  0.5816370000000  0.5122040000000 1.0
C      1  0.5060720000000  0.5390380000000  0.4228630000000 1.0
C      1  0.5033020000000  0.4331060000000  0.4424720000000 1.0
C      1  0.4970660000000  0.3696080000000  0.5198040000000 1.0
C      1  0.4983730000000  0.4450390000000  0.3811000000000 1.0
C      1  0.4888370000000  0.5840500000000  0.3944500000000 1.0
C      1  0.4951150000000  0.6187120000000  0.5484550000000 1.0
C      1  0.4969040000000  0.4779930000000  0.6288810000000 1.0
C      1  0.5075150000000  0.6261490000000  0.5235530000000 1.0
C      1  0.5109610000000  0.5699020000000  0.3845170000000 1.0
C      1  0.5185010000000  0.4270360000000  0.3907270000000 1.0
C      1  0.5169040000000  0.3740180000000  0.5395130000000 1.0
C      1  0.5171000000000  0.4974860000000  0.6311170000000 1.0
C      1  0.5787240000000  0.5611850000000  0.5166130000000 1.0
C      1  0.5763090000000  0.5032790000000  0.5639550000000 1.0
C      1  0.5760830000000  0.4402940000000  0.5235720000000 1.0
C      1  0.5755770000000  0.4593780000000  0.4517280000000 1.0
C      1  0.5772180000000  0.5339150000000  0.4474930000000 1.0
C      1  0.4209170000000  0.4373150000000  0.5215510000000 1.0
C      1  0.4194030000000  0.4993940000000  0.5669440000000 1.0
C      1  0.4216480000000  0.5609060000000  0.5220630000000 1.0
C      1  0.4250160000000  0.5374910000000  0.4495630000000 1.0
C      1  0.4220300000000  0.4632040000000  0.4474400000000 1.0
C      1  0.5904570000000  0.4468300000000  0.4983010000000 1.0
C      1  0.5898100000000  0.4853290000000  0.4506840000000 1.0
C      1  0.5917260000000  0.5421330000000  0.4717890000000 1.0
C      1  0.5928640000000  0.5405710000000  0.5333590000000 1.0
C      1  0.5911810000000  0.4809760000000  0.5501300000000 1.0
C      1  0.4083010000000  0.5528610000000  0.4960790000000 1.0
C      1  0.4097070000000  0.5120610000000  0.4502770000000 1.0
C      1  0.4084600000000  0.4556300000000  0.4734780000000 1.0
C      1  0.4063190000000  0.4596580000000  0.5356960000000 1.0
C      1  0.4051440000000  0.5219180000000  0.5522850000000 1.0
C      1  0.4547560000000  0.5833410000000  0.4363380000000 1.0
C      1  0.4557950000000  0.5842460000000  0.5607520000000 1.0
C      1  0.4555030000000  0.4682060000000  0.5979270000000 1.0
C      1  0.4558650000000  0.3960950000000  0.5003890000000 1.0
C      1  0.4566760000000  0.4713300000000  0.4015510000000 1.0
C      1  0.5474510000000  0.4157590000000  0.4361480000000 1.0
C      1  0.5465400000000  0.4142830000000  0.5611720000000 1.0
C      1  0.5469130000000  0.5305550000000  0.6000780000000 1.0
C      1  0.5463190000000  0.6023840000000  0.4954840000000 1.0
C      1  0.5472230000000  0.5325270000000  0.3998110000000 1.0
C      1  0.4338180000000  0.5072510000000  0.5204300000000 1.0
C      1  0.4400760000000  0.4776060000000  0.5134110000000 1.0
C      1  0.4466570000000  0.4786060000000  0.4855950000000 1.0
C      1  0.4473330000000  0.5049280000000  0.4764350000000 1.0
C      1  0.4434560000000  0.5232500000000  0.4972250000000 1.0
C      1  0.5578610000000  0.4903560000000  0.5225510000000 1.0
C      1  0.5577750000000  0.5192380000000  0.5159770000000 1.0
C      1  0.5518270000000  0.5204620000000  0.4876060000000 1.0
C      1  0.5500410000000  0.4945180000000  0.4773020000000 1.0
C      1  0.5527490000000  0.4762080000000  0.4981150000000 1.0
C      1  0.5619340000000  0.5873190000000  0.4754620000000 1.0
C      1  0.5621110000000  0.5485140000000  0.5806500000000 1.0
C      1  0.5613720000000  0.4387560000000  0.5718170000000 1.0
C      1  0.5621920000000  0.4126690000000  0.4631050000000 1.0
C      1  0.5614700000000  0.5069020000000  0.4077620000000 1.0
C      1  0.4403800000000  0.4110840000000  0.4802780000000 1.0
C      1  0.4393410000000  0.4534730000000  0.5781830000000 1.0
C      1  0.4385310000000  0.5621970000000  0.5709590000000 1.0
C      1  0.4407030000000  0.5841030000000  0.4630830000000 1.0
C      1  0.4417220000000  0.4946670000000  0.4114000000000 1.0
C      1  0.4646500000000  0.4926230000000  0.5859680000000 1.0
C      1  0.4658900000000  0.4143000000000  0.5197320000000 1.0
C      1  0.4656070000000  0.4558060000000  0.4239310000000 1.0
C      1  0.4695610000000  0.5590790000000  0.4400200000000 1.0
C      1  0.4671610000000  0.5746710000000  0.5363000000000 1.0
C      1  0.5309790000000  0.5167800000000  0.5802760000000 1.0
C      1  0.5349210000000  0.5831960000000  0.5132430000000 1.0
C      1  0.5340660000000  0.5382120000000  0.4246780000000 1.0
C      1  0.5312190000000  0.4383020000000  0.4439300000000 1.0
C      1  0.5313990000000  0.4280480000000  0.5409560000000 1.0
C      1  0.4954410000000  0.4461080000000  0.5907230000000 1.0
C      1  0.4963260000000  0.5740150000000  0.5819440000000 1.0
C      1  0.5054770000000  0.6049870000000  0.4723480000000 1.0
C      1  0.4964940000000  0.3942580000000  0.4760650000000 1.0
C      1  0.4971860000000  0.4933770000000  0.3953970000000 1.0
C      1  0.4760460000000  0.5008860000000  0.5136430000000 1.0
C      1  0.5187710000000  0.5025020000000  0.5090090000000 1.0
C      1  0.4953530000000  0.5020090000000  0.4923800000000 1.0
END
