TITL C-3623289-7120-638 -5.46655426574137e-07 125000 -515.901718051355 0 0 82 (C2) n - 1
REM
REM in /home/nfs/bkarasulu/CARBON/AIRSS/Generating-Clusters/LCBOP/Higher-Symm/SD-CG/FIRE-CG
REM
REM
REM
REM
REM
REM ./C.cell (b20cbc046b6831c77cfcea5457e17084)
REM AIRSS Version 0.9.1 bugfix July 2018 build 013d7b7c2542+ Fri, 06 Jul 2018 19:26:36 +0100
REM compiler GCC version 9.2.1 20190827 (Red Hat 9.2.1-1)
REM options -cpp -mtune=generic -march=x86-64 -g -O0 -fpre-include=/usr/include/finclude/math-vector-fortran.h
REM seed -1077370060 73597260 -816767286 795022813 -1619369886 -2038123591 -998071379 -1608161452 1408234852 -1594936791 1290024178 263969720 -695454986 -1184502539 -172290846 2020739200 1886170450 2054394202 -1792839235 1192002125 -798931923 416131974 1793370226 -1207856559 -1452971809 1963278759 1899547124 -1932222313 -787756937 1978978498 -1738171475 -137733549 1539080472
REM
CELL 1.54180   50.00000   50.00000   50.00000   90.00000   90.00000   90.00000
LATT -1
SFAC C  
C      1  0.5610050000000  0.4533300000000  0.5281070000000 1.0
C      1  0.4726080000000  0.4553590000000  0.5547120000000 1.0
C      1  0.4382310000000  0.4533160000000  0.4727230000000 1.0
C      1  0.5273620000000  0.4548000000000  0.4457060000000 1.0
C      1  0.4382370000000  0.5484630000000  0.5283110000000 1.0
C      1  0.5273740000000  0.5469770000000  0.5553090000000 1.0
C      1  0.5610000000000  0.5484470000000  0.4729020000000 1.0
C      1  0.4725980000000  0.5464190000000  0.4463140000000 1.0
C      1  0.4508990000000  0.4735090000000  0.5630850000000 1.0
C      1  0.4337920000000  0.4735990000000  0.4517060000000 1.0
C      1  0.5490900000000  0.4732180000000  0.4375440000000 1.0
C      1  0.5657990000000  0.4734670000000  0.5492300000000 1.0
C      1  0.5491030000000  0.5285590000000  0.5634670000000 1.0
C      1  0.5657890000000  0.5283100000000  0.4517780000000 1.0
C      1  0.4508870000000  0.5282700000000  0.4379460000000 1.0
C      1  0.4338020000000  0.5281800000000  0.5493280000000 1.0
C      1  0.5868820000000  0.5104460000000  0.4901700000000 1.0
C      1  0.5103110000000  0.5102220000000  0.5785840000000 1.0
C      1  0.4112430000000  0.5104870000000  0.5110220000000 1.0
C      1  0.4896370000000  0.5101090000000  0.4226210000000 1.0
C      1  0.4112410000000  0.4912920000000  0.4900170000000 1.0
C      1  0.4896530000000  0.4916690000000  0.5784020000000 1.0
C      1  0.5868840000000  0.4913300000000  0.5108340000000 1.0
C      1  0.5102950000000  0.4915550000000  0.4224350000000 1.0
C      1  0.4601830000000  0.4372680000000  0.5136150000000 1.0
C      1  0.4848610000000  0.4376400000000  0.4656020000000 1.0
C      1  0.5398270000000  0.4361390000000  0.4870830000000 1.0
C      1  0.5148970000000  0.4371880000000  0.5356750000000 1.0
C      1  0.5398310000000  0.5656380000000  0.5139300000000 1.0
C      1  0.5148910000000  0.5645890000000  0.4653430000000 1.0
C      1  0.4601820000000  0.5645100000000  0.4874140000000 1.0
C      1  0.4848690000000  0.5641380000000  0.5354220000000 1.0
C      1  0.4571890000000  0.5138370000000  0.5031380000000 1.0
C      1  0.4995460000000  0.5151300000000  0.4741990000000 1.0
C      1  0.5403010000000  0.5150200000000  0.4989950000000 1.0
C      1  0.5023810000000  0.5155610000000  0.5268280000000 1.0
C      1  0.5403010000000  0.4867570000000  0.5020180000000 1.0
C      1  0.5023750000000  0.4862160000000  0.4741930000000 1.0
C      1  0.4571880000000  0.4879410000000  0.4978910000000 1.0
C      1  0.4995510000000  0.4866480000000  0.5268220000000 1.0
C      1  0.4616930000000  0.4369090000000  0.4834790000000 1.0
C      1  0.5175640000000  0.4357730000000  0.4674320000000 1.0
C      1  0.5381090000000  0.4360120000000  0.5176480000000 1.0
C      1  0.4822790000000  0.4363780000000  0.5331780000000 1.0
C      1  0.5381070000000  0.5657650000000  0.4833650000000 1.0
C      1  0.4822740000000  0.5654000000000  0.4678470000000 1.0
C      1  0.4616980000000  0.5648690000000  0.5175490000000 1.0
C      1  0.5175720000000  0.5660040000000  0.5335860000000 1.0
C      1  0.5380960000000  0.4982040000000  0.4254600000000 1.0
C      1  0.5791950000000  0.4986980000000  0.5384490000000 1.0
C      1  0.4618550000000  0.4982470000000  0.5753760000000 1.0
C      1  0.4199370000000  0.4987480000000  0.4624570000000 1.0
C      1  0.4618400000000  0.5035320000000  0.4256520000000 1.0
C      1  0.4199450000000  0.5030310000000  0.5385800000000 1.0
C      1  0.5381110000000  0.5035730000000  0.5755530000000 1.0
C      1  0.5791870000000  0.5030780000000  0.4625570000000 1.0
C      1  0.5666000000000  0.5314060000000  0.4969740000000 1.0
C      1  0.5039980000000  0.5280340000000  0.5554110000000 1.0
C      1  0.4315300000000  0.5318080000000  0.5043140000000 1.0
C      1  0.4960890000000  0.5277710000000  0.4458950000000 1.0
C      1  0.4315280000000  0.4699710000000  0.4967210000000 1.0
C      1  0.4961000000000  0.4740070000000  0.5551270000000 1.0
C      1  0.5666000000000  0.4703700000000  0.5040340000000 1.0
C      1  0.5039860000000  0.4737430000000  0.4456090000000 1.0
C      1  0.5431290000000  0.5254550000000  0.4350820000000 1.0
C      1  0.5691480000000  0.5264970000000  0.5435170000000 1.0
C      1  0.4567280000000  0.5252830000000  0.5656410000000 1.0
C      1  0.4305880000000  0.5263580000000  0.4575980000000 1.0
C      1  0.4567150000000  0.4764950000000  0.4353890000000 1.0
C      1  0.4305960000000  0.4754210000000  0.5434370000000 1.0
C      1  0.5431410000000  0.4763220000000  0.5659310000000 1.0
C      1  0.5691390000000  0.4752800000000  0.4574900000000 1.0
C      1  0.4786940000000  0.4587420000000  0.4438560000000 1.0
C      1  0.5639570000000  0.4549090000000  0.4787840000000 1.0
C      1  0.5211280000000  0.4584120000000  0.5575570000000 1.0
C      1  0.4356990000000  0.4552250000000  0.5221210000000 1.0
C      1  0.5211180000000  0.5433660000000  0.4434600000000 1.0
C      1  0.4356950000000  0.5465540000000  0.4789130000000 1.0
C      1  0.4787060000000  0.5430360000000  0.5571690000000 1.0
C      1  0.5639620000000  0.5468680000000  0.5222250000000 1.0
C      1  0.5123830000000  0.5241680000000  0.4998760000000 1.0
C      1  0.5123830000000  0.4776090000000  0.5011430000000 1.0
END
