TITL C-3623288-6813-879 0.0283102319723248 125000 -778.943015492238 0 0 129 (C1) n - 1
REM
REM in /home/nfs/bkarasulu/CARBON/AIRSS/Generating-Clusters/LCBOP/Higher-Symm/SD-CG/FIRE-CG
REM
REM
REM
REM
REM
REM ./C.cell (b20cbc046b6831c77cfcea5457e17084)
REM AIRSS Version 0.9.1 bugfix July 2018 build 013d7b7c2542+ Fri, 06 Jul 2018 19:26:36 +0100
REM compiler GCC version 9.2.1 20190827 (Red Hat 9.2.1-1)
REM options -cpp -mtune=generic -march=x86-64 -g -O0 -fpre-include=/usr/include/finclude/math-vector-fortran.h
REM seed -1561570729 -715600588 1881506781 192088663 338458737 -2006748319 511497777 502584582 588485632 1330306330 -1979011192 -1815478563 2713963 -1319180740 -735697802 -1639950011 833010265 1827404166 -1312840275 -761381952 -1631472148 -541257465 555323279 1132387675 -693011778 -816819994 1719539218 397610330 2055097329 1158695160 -1391485833 401462572 -579851733
REM
CELL 1.54180   50.00000   50.00000   50.00000   90.00000   90.00000   90.00000
LATT -1
SFAC C  
C      1  0.4002290000000  0.4514660000000  0.4454570000000 1.0
C      1  0.5132970000000  0.3953640000000  0.5147810000000 1.0
C      1  0.5181600000000  0.5792170000000  0.4602370000000 1.0
C      1  0.5735180000000  0.5309090000000  0.4033790000000 1.0
C      1  0.5689570000000  0.5553670000000  0.5110740000000 1.0
C      1  0.5703370000000  0.4758800000000  0.5183570000000 1.0
C      1  0.5766180000000  0.5510390000000  0.4662930000000 1.0
C      1  0.4469570000000  0.4977400000000  0.4726020000000 1.0
C      1  0.4814500000000  0.5621690000000  0.5472300000000 1.0
C      1  0.4861340000000  0.4208870000000  0.4624430000000 1.0
C      1  0.5579920000000  0.5342640000000  0.6213390000000 1.0
C      1  0.5534490000000  0.4860920000000  0.5647220000000 1.0
C      1  0.5758220000000  0.5723470000000  0.4879070000000 1.0
C      1  0.4192200000000  0.4707070000000  0.5760220000000 1.0
C      1  0.4872120000000  0.3956850000000  0.4759320000000 1.0
C      1  0.4910340000000  0.4351090000000  0.5822180000000 1.0
C      1  0.4490050000000  0.4779940000000  0.4927370000000 1.0
C      1  0.4944500000000  0.4445260000000  0.4020300000000 1.0
C      1  0.3913290000000  0.5084290000000  0.5081670000000 1.0
C      1  0.4125670000000  0.5250900000000  0.4951370000000 1.0
C      1  0.5893990000000  0.5247660000000  0.4745690000000 1.0
C      1  0.5126250000000  0.3829400000000  0.4707380000000 1.0
C      1  0.4416230000000  0.4565660000000  0.5836400000000 1.0
C      1  0.4897650000000  0.5137300000000  0.4071880000000 1.0
C      1  0.5022670000000  0.6033660000000  0.4561940000000 1.0
C      1  0.5356170000000  0.4230560000000  0.5522510000000 1.0
C      1  0.5632030000000  0.5977570000000  0.4953550000000 1.0
C      1  0.4996910000000  0.5161820000000  0.5230050000000 1.0
C      1  0.4977530000000  0.4761470000000  0.4885540000000 1.0
C      1  0.5912360000000  0.4823450000000  0.4062370000000 1.0
C      1  0.5403620000000  0.6002450000000  0.5143440000000 1.0
C      1  0.5097760000000  0.5023140000000  0.5460640000000 1.0
C      1  0.5694560000000  0.4445810000000  0.4372850000000 1.0
C      1  0.5162050000000  0.5868710000000  0.5049130000000 1.0
C      1  0.4758340000000  0.5847740000000  0.5311300000000 1.0
C      1  0.4727110000000  0.4634590000000  0.4949020000000 1.0
C      1  0.6072440000000  0.4469620000000  0.4679950000000 1.0
C      1  0.5003370000000  0.4756650000000  0.5460390000000 1.0
C      1  0.5315320000000  0.3867400000000  0.4938420000000 1.0
C      1  0.4345110000000  0.5408000000000  0.4339690000000 1.0
C      1  0.4617310000000  0.4357080000000  0.5802970000000 1.0
C      1  0.4261250000000  0.4873590000000  0.4188640000000 1.0
C      1  0.4918600000000  0.5445240000000  0.4684000000000 1.0
C      1  0.5503960000000  0.5009020000000  0.4535200000000 1.0
C      1  0.5718200000000  0.5008020000000  0.4724520000000 1.0
C      1  0.5491060000000  0.5798850000000  0.5615110000000 1.0
C      1  0.5547260000000  0.5506780000000  0.6006220000000 1.0
C      1  0.5113130000000  0.4346280000000  0.4645930000000 1.0
C      1  0.5766470000000  0.5201880000000  0.5428650000000 1.0
C      1  0.5601790000000  0.5464760000000  0.4206600000000 1.0
C      1  0.3845290000000  0.4890180000000  0.4844370000000 1.0
C      1  0.4804730000000  0.5077690000000  0.4332630000000 1.0
C      1  0.4306310000000  0.5168870000000  0.4203150000000 1.0
C      1  0.4485250000000  0.4670890000000  0.4146130000000 1.0
C      1  0.5577380000000  0.4774210000000  0.5908450000000 1.0
C      1  0.5857600000000  0.5075220000000  0.3992260000000 1.0
C      1  0.4354600000000  0.5332750000000  0.5533560000000 1.0
C      1  0.4540450000000  0.5868220000000  0.4447240000000 1.0
C      1  0.5341410000000  0.5082480000000  0.5597270000000 1.0
C      1  0.5736220000000  0.4900480000000  0.5435970000000 1.0
C      1  0.5604100000000  0.4866760000000  0.6157230000000 1.0
C      1  0.4980570000000  0.4956160000000  0.3886480000000 1.0
C      1  0.4419130000000  0.5618670000000  0.4531230000000 1.0
C      1  0.5419620000000  0.4846290000000  0.4337260000000 1.0
C      1  0.5609610000000  0.4941080000000  0.4983640000000 1.0
C      1  0.4876670000000  0.5812510000000  0.5055120000000 1.0
C      1  0.4610830000000  0.6069160000000  0.5387560000000 1.0
C      1  0.5872420000000  0.5360000000000  0.5216600000000 1.0
C      1  0.5519870000000  0.5543960000000  0.5729160000000 1.0
C      1  0.5540540000000  0.5460250000000  0.4483120000000 1.0
C      1  0.4741620000000  0.4658820000000  0.5404290000000 1.0
C      1  0.4983250000000  0.5599250000000  0.4190860000000 1.0
C      1  0.5322880000000  0.4163290000000  0.4609390000000 1.0
C      1  0.5440950000000  0.4382870000000  0.4239770000000 1.0
C      1  0.4016630000000  0.4846870000000  0.5598160000000 1.0
C      1  0.4083860000000  0.5583430000000  0.6248270000000 1.0
C      1  0.5347890000000  0.5247410000000  0.4574060000000 1.0
C      1  0.3951950000000  0.4437590000000  0.4712190000000 1.0
C      1  0.4648920000000  0.4927660000000  0.4511580000000 1.0
C      1  0.4169950000000  0.5504520000000  0.6015200000000 1.0
C      1  0.4326400000000  0.5490650000000  0.5301170000000 1.0
C      1  0.5198950000000  0.4402150000000  0.4111530000000 1.0
C      1  0.4055800000000  0.4785150000000  0.4381050000000 1.0
C      1  0.5224880000000  0.4182880000000  0.5272140000000 1.0
C      1  0.4757080000000  0.6030050000000  0.4487270000000 1.0
C      1  0.5672560000000  0.4308990000000  0.4896260000000 1.0
C      1  0.4514960000000  0.4133670000000  0.5659530000000 1.0
C      1  0.5022220000000  0.5598290000000  0.4463760000000 1.0
C      1  0.5455770000000  0.5978600000000  0.5419960000000 1.0
C      1  0.4685530000000  0.4534490000000  0.3987140000000 1.0
C      1  0.3921660000000  0.4615730000000  0.4929850000000 1.0
C      1  0.5150680000000  0.4532190000000  0.4861490000000 1.0
C      1  0.5610470000000  0.5088570000000  0.6329790000000 1.0
C      1  0.5435630000000  0.5167720000000  0.5052040000000 1.0
C      1  0.4756460000000  0.5602470000000  0.4873340000000 1.0
C      1  0.3951020000000  0.4896560000000  0.5319460000000 1.0
C      1  0.4471590000000  0.5572050000000  0.4820130000000 1.0
C      1  0.4344980000000  0.4751720000000  0.5165030000000 1.0
C      1  0.4839990000000  0.5629510000000  0.5743030000000 1.0
C      1  0.3996800000000  0.4964870000000  0.4599320000000 1.0
C      1  0.4293190000000  0.5466680000000  0.5023520000000 1.0
C      1  0.4072790000000  0.4668920000000  0.5169710000000 1.0
C      1  0.5205870000000  0.4620680000000  0.5324990000000 1.0
C      1  0.5802270000000  0.4409790000000  0.4649790000000 1.0
C      1  0.5424690000000  0.5456310000000  0.5023250000000 1.0
C      1  0.4507800000000  0.4825160000000  0.5392810000000 1.0
C      1  0.4857530000000  0.3986440000000  0.5050030000000 1.0
C      1  0.4729520000000  0.4458070000000  0.5182370000000 1.0
C      1  0.5526870000000  0.5308790000000  0.5571640000000 1.0
C      1  0.4926120000000  0.5409540000000  0.4013490000000 1.0
C      1  0.4605600000000  0.4667770000000  0.4409530000000 1.0
C      1  0.5487610000000  0.4092730000000  0.4832090000000 1.0
C      1  0.4462550000000  0.6270370000000  0.5461270000000 1.0
C      1  0.4218190000000  0.5110240000000  0.4715660000000 1.0
C      1  0.4691750000000  0.4172630000000  0.5190630000000 1.0
C      1  0.5021400000000  0.5044410000000  0.4951190000000 1.0
C      1  0.5214420000000  0.4428990000000  0.5121560000000 1.0
C      1  0.5865400000000  0.4601450000000  0.4203310000000 1.0
C      1  0.5094760000000  0.5226030000000  0.4733580000000 1.0
C      1  0.5644860000000  0.5058560000000  0.6598900000000 1.0
C      1  0.6032310000000  0.5261370000000  0.4999970000000 1.0
C      1  0.5619340000000  0.4326950000000  0.5424500000000 1.0
C      1  0.5275910000000  0.5673950000000  0.4864630000000 1.0
C      1  0.4471360000000  0.5076840000000  0.5510930000000 1.0
C      1  0.5691830000000  0.4460500000000  0.5165180000000 1.0
C      1  0.4868150000000  0.5394080000000  0.5315030000000 1.0
C      1  0.4259190000000  0.5424170000000  0.5779070000000 1.0
C      1  0.5165200000000  0.4285300000000  0.5736100000000 1.0
C      1  0.4531750000000  0.4072400000000  0.5399130000000 1.0
END
