TITL C-3623286-7563-1165 7749.73012282784 125000 -393.543935313289 0 0 69 (C1) n - 1
REM
REM in /home/nfs/bkarasulu/CARBON/AIRSS/Generating-Clusters/LCBOP/Higher-Symm/SD-CG/FIRE-CG
REM
REM
REM
REM
REM
REM ./C.cell (b20cbc046b6831c77cfcea5457e17084)
REM AIRSS Version 0.9.1 bugfix July 2018 build 013d7b7c2542+ Fri, 06 Jul 2018 19:26:36 +0100
REM compiler GCC version 9.2.1 20190827 (Red Hat 9.2.1-1)
REM options -cpp -mtune=generic -march=x86-64 -g -O0 -fpre-include=/usr/include/finclude/math-vector-fortran.h
REM seed 1978658528 1103621496 940746580 -561102773 -151560756 -2105615850 -1606803457 -1735588246 -657424025 461406417 925212278 426327388 2062514149 -904582016 -718942527 245407499 -1519667202 1144040830 -1163875388 -1637131893 -1772191233 1121954285 -2102444098 1478380780 1192482096 18292251 -736053381 144985577 2106039912 -921276372 9901321 1703776123 1881061033
REM
CELL 1.54180   50.00000   50.00000   50.00000   90.00000   90.00000   90.00000
LATT -1
SFAC C  
C      1  0.5223060000000  0.5681910000000  0.5555050000000 1.0
C      1  0.4382440000000  0.4875030000000  0.5431830000000 1.0
C      1  0.5459060000000  0.4577200000000  0.5522500000000 1.0
C      1  0.4831120000000  0.6102510000000  0.4676590000000 1.0
C      1  0.4177440000000  0.4517260000000  0.4497830000000 1.0
C      1  0.5847100000000  0.4557420000000  0.4517030000000 1.0
C      1  0.5024170000000  0.5253300000000  0.5724640000000 1.0
C      1  0.4841330000000  0.4929740000000  0.5666250000000 1.0
C      1  0.5199880000000  0.4949230000000  0.5698670000000 1.0
C      1  0.4374290000000  0.4529090000000  0.4668190000000 1.0
C      1  0.5761180000000  0.4728530000000  0.4693860000000 1.0
C      1  0.4745650000000  0.5893020000000  0.4805910000000 1.0
C      1  0.5236130000000  0.4413120000000  0.5089310000000 1.0
C      1  0.5426720000000  0.5522790000000  0.5112850000000 1.0
C      1  0.4413870000000  0.5147900000000  0.5294010000000 1.0
C      1  0.5021610000000  0.5473220000000  0.5555930000000 1.0
C      1  0.4689110000000  0.4816350000000  0.5467430000000 1.0
C      1  0.5368220000000  0.4852720000000  0.5502170000000 1.0
C      1  0.4993720000000  0.5212600000000  0.4244590000000 1.0
C      1  0.4836670000000  0.4764990000000  0.4232570000000 1.0
C      1  0.5301790000000  0.4851270000000  0.4260890000000 1.0
C      1  0.5725120000000  0.5604100000000  0.5442220000000 1.0
C      1  0.3974820000000  0.5134160000000  0.5381980000000 1.0
C      1  0.5144560000000  0.4163400000000  0.5453860000000 1.0
C      1  0.4658510000000  0.5660180000000  0.4931520000000 1.0
C      1  0.4579880000000  0.4513970000000  0.4855720000000 1.0
C      1  0.5681120000000  0.4919550000000  0.4880130000000 1.0
C      1  0.5505690000000  0.5636880000000  0.5608930000000 1.0
C      1  0.4102110000000  0.4949870000000  0.5556260000000 1.0
C      1  0.5282370000000  0.4356860000000  0.5597760000000 1.0
C      1  0.5860620000000  0.5123560000000  0.4962570000000 1.0
C      1  0.4383940000000  0.5593110000000  0.4939930000000 1.0
C      1  0.4677040000000  0.4261490000000  0.4943200000000 1.0
C      1  0.5267530000000  0.5135040000000  0.4270680000000 1.0
C      1  0.4766080000000  0.5040430000000  0.4250170000000 1.0
C      1  0.5096460000000  0.4653380000000  0.4267860000000 1.0
C      1  0.4817050000000  0.4724360000000  0.5222950000000 1.0
C      1  0.5385140000000  0.5009690000000  0.5258040000000 1.0
C      1  0.4830100000000  0.5453030000000  0.5338290000000 1.0
C      1  0.5330470000000  0.5288010000000  0.5240060000000 1.0
C      1  0.4586600000000  0.5334150000000  0.5408850000000 1.0
C      1  0.5076990000000  0.4624210000000  0.5192410000000 1.0
C      1  0.5022300000000  0.4034590000000  0.4708480000000 1.0
C      1  0.5814050000000  0.5503170000000  0.4684450000000 1.0
C      1  0.4164690000000  0.5253530000000  0.4689060000000 1.0
C      1  0.5641400000000  0.4498050000000  0.5316580000000 1.0
C      1  0.5188500000000  0.5864500000000  0.5335830000000 1.0
C      1  0.4295030000000  0.4617710000000  0.5298440000000 1.0
C      1  0.4294920000000  0.5176310000000  0.4468710000000 1.0
C      1  0.5102120000000  0.4164500000000  0.4487720000000 1.0
C      1  0.5660840000000  0.5447400000000  0.4470980000000 1.0
C      1  0.5413060000000  0.4934380000000  0.4978420000000 1.0
C      1  0.4845460000000  0.5476610000000  0.5050630000000 1.0
C      1  0.4703280000000  0.4749950000000  0.4960320000000 1.0
C      1  0.4822840000000  0.4948820000000  0.4811600000000 1.0
C      1  0.5186360000000  0.4990340000000  0.4826340000000 1.0
C      1  0.4947130000000  0.5269330000000  0.4896590000000 1.0
C      1  0.5473700000000  0.5313180000000  0.4335290000000 1.0
C      1  0.4507620000000  0.5122500000000  0.4317130000000 1.0
C      1  0.5132580000000  0.4386560000000  0.4342640000000 1.0
C      1  0.4160420000000  0.5240610000000  0.5183100000000 1.0
C      1  0.5098700000000  0.4167740000000  0.5167380000000 1.0
C      1  0.5713170000000  0.5540870000000  0.5159390000000 1.0
C      1  0.5851600000000  0.5407260000000  0.4949310000000 1.0
C      1  0.4196210000000  0.5379530000000  0.4938820000000 1.0
C      1  0.4912170000000  0.4102450000000  0.4960950000000 1.0
C      1  0.5284600000000  0.5768060000000  0.5098850000000 1.0
C      1  0.4161540000000  0.4398060000000  0.5254320000000 1.0
C      1  0.5518900000000  0.4415330000000  0.5087160000000 1.0
END
