TITL C-3623285-6872-1466 -4.13345682116874e-07 125000 -159.795123007647 0 0 28 (C2v) n - 1
REM
REM in /home/nfs/bkarasulu/CARBON/AIRSS/Generating-Clusters/LCBOP/Higher-Symm/SD-CG/FIRE-CG
REM
REM
REM
REM
REM
REM ./C.cell (b20cbc046b6831c77cfcea5457e17084)
REM AIRSS Version 0.9.1 bugfix July 2018 build 013d7b7c2542+ Fri, 06 Jul 2018 19:26:36 +0100
REM compiler GCC version 9.2.1 20190827 (Red Hat 9.2.1-1)
REM options -cpp -mtune=generic -march=x86-64 -g -O0 -fpre-include=/usr/include/finclude/math-vector-fortran.h
REM seed 1536077584 -1706560752 1970222451 -755551681 268979660 -918747655 -1002822701 -1548608369 -1127216984 -681556325 1570592809 1377103704 -1500420769 939978076 -971071015 1193318446 467928712 -825317394 -1724779681 -1084734547 -1232132615 824667337 -496934994 2057286686 1976409693 -1482412659 1365518402 1896908624 1983507229 -2147301086 -16995115 926532366 1784294593
REM
CELL 1.54180   50.00000   50.00000   50.00000   90.00000   90.00000   90.00000
LATT -1
SFAC C  
C      1  0.4910550000000  0.5241860000000  0.4519860000000 1.0
C      1  0.5396860000000  0.5261780000000  0.4749990000000 1.0
C      1  0.5368680000000  0.5283090000000  0.5296480000000 1.0
C      1  0.4850220000000  0.5270370000000  0.5472340000000 1.0
C      1  0.4496370000000  0.5248370000000  0.5067170000000 1.0
C      1  0.4923320000000  0.4720690000000  0.4535720000000 1.0
C      1  0.5409680000000  0.4738600000000  0.4765910000000 1.0
C      1  0.5381760000000  0.4749190000000  0.5312720000000 1.0
C      1  0.4863030000000  0.4747190000000  0.5488260000000 1.0
C      1  0.4509130000000  0.4727200000000  0.5083030000000 1.0
C      1  0.5199400000000  0.5434480000000  0.4866540000000 1.0
C      1  0.5191160000000  0.5463280000000  0.5159990000000 1.0
C      1  0.4910690000000  0.5439010000000  0.5248060000000 1.0
C      1  0.4733940000000  0.5408180000000  0.5009370000000 1.0
C      1  0.4921320000000  0.5405240000000  0.4761750000000 1.0
C      1  0.5220730000000  0.4563850000000  0.4893040000000 1.0
C      1  0.5213470000000  0.4552570000000  0.5187710000000 1.0
C      1  0.4932010000000  0.4568390000000  0.5274550000000 1.0
C      1  0.4754320000000  0.4575980000000  0.5034690000000 1.0
C      1  0.4941710000000  0.4573040000000  0.4787080000000 1.0
C      1  0.5463280000000  0.5000440000000  0.4718020000000 1.0
C      1  0.4834520000000  0.5010330000000  0.5548890000000 1.0
C      1  0.4941930000000  0.4979140000000  0.4437660000000 1.0
C      1  0.5302220000000  0.5012670000000  0.5249400000000 1.0
C      1  0.4422790000000  0.4987300000000  0.5123660000000 1.0
C      1  0.5071100000000  0.5001690000000  0.5074630000000 1.0
C      1  0.4646560000000  0.4981520000000  0.4753590000000 1.0
C      1  0.4858620000000  0.4991600000000  0.4913950000000 1.0
END
