TITL C-3623286-7563-850 -0.0963490085689998 125000 -661.730832671573 0 0 109 (C1) n - 1
REM
REM in /home/nfs/bkarasulu/CARBON/AIRSS/Generating-Clusters/LCBOP/Higher-Symm/SD-CG/FIRE-CG
REM
REM
REM
REM
REM
REM ./C.cell (b20cbc046b6831c77cfcea5457e17084)
REM AIRSS Version 0.9.1 bugfix July 2018 build 013d7b7c2542+ Fri, 06 Jul 2018 19:26:36 +0100
REM compiler GCC version 9.2.1 20190827 (Red Hat 9.2.1-1)
REM options -cpp -mtune=generic -march=x86-64 -g -O0 -fpre-include=/usr/include/finclude/math-vector-fortran.h
REM seed -1049987982 -720674236 -521699618 1818483157 93001647 58690308 -2031603412 1374195487 -445870453 229043966 1649415845 249419981 867553564 1873253995 2104243666 -1511575630 -118751538 -1921026949 -312695618 -761512877 1016371471 1548012656 -590324891 -1701570329 1245445744 -1156927907 1586358435 -453961005 -171980301 1296905576 2034312927 1520474171 -1185631109
REM
CELL 1.54180   50.00000   50.00000   50.00000   90.00000   90.00000   90.00000
LATT -1
SFAC C  
C      1  0.4589090000000  0.5307080000000  0.4393210000000 1.0
C      1  0.5035370000000  0.4721430000000  0.6375570000000 1.0
C      1  0.4861080000000  0.5203060000000  0.5128960000000 1.0
C      1  0.5369270000000  0.5034060000000  0.4940660000000 1.0
C      1  0.4724240000000  0.5612750000000  0.6186030000000 1.0
C      1  0.4702810000000  0.4523180000000  0.4041720000000 1.0
C      1  0.5207950000000  0.5770600000000  0.5277450000000 1.0
C      1  0.4908290000000  0.4064420000000  0.4941300000000 1.0
C      1  0.4698100000000  0.5368930000000  0.4678170000000 1.0
C      1  0.5398920000000  0.4677900000000  0.5256480000000 1.0
C      1  0.5586380000000  0.5623040000000  0.4951660000000 1.0
C      1  0.4529800000000  0.4332220000000  0.5117820000000 1.0
C      1  0.5128820000000  0.5397690000000  0.6113070000000 1.0
C      1  0.4461490000000  0.4604740000000  0.4428290000000 1.0
C      1  0.4972940000000  0.4648810000000  0.4656750000000 1.0
C      1  0.5339510000000  0.5312130000000  0.5562660000000 1.0
C      1  0.4602010000000  0.4887650000000  0.4878580000000 1.0
C      1  0.5680330000000  0.5154960000000  0.5246600000000 1.0
C      1  0.6133760000000  0.4806320000000  0.4113070000000 1.0
C      1  0.4594710000000  0.5454230000000  0.5443390000000 1.0
C      1  0.5046710000000  0.4987300000000  0.6413600000000 1.0
C      1  0.4403010000000  0.5097070000000  0.4351260000000 1.0
C      1  0.4677260000000  0.5075590000000  0.5664530000000 1.0
C      1  0.5540480000000  0.5343470000000  0.4554280000000 1.0
C      1  0.5080380000000  0.4863590000000  0.4511990000000 1.0
C      1  0.5103780000000  0.5170180000000  0.5535660000000 1.0
C      1  0.4972650000000  0.4540070000000  0.5916520000000 1.0
C      1  0.5002790000000  0.5293710000000  0.4031780000000 1.0
C      1  0.4918000000000  0.5693280000000  0.5728120000000 1.0
C      1  0.4938700000000  0.4390860000000  0.4498330000000 1.0
C      1  0.5423790000000  0.4396360000000  0.5294750000000 1.0
C      1  0.4697150000000  0.5658170000000  0.4790820000000 1.0
C      1  0.4404570000000  0.4833570000000  0.4257850000000 1.0
C      1  0.5007120000000  0.5253270000000  0.6337500000000 1.0
C      1  0.5093710000000  0.5133360000000  0.4456580000000 1.0
C      1  0.5117940000000  0.4884120000000  0.5573780000000 1.0
C      1  0.4805910000000  0.4979900000000  0.5889640000000 1.0
C      1  0.5468990000000  0.5336570000000  0.4277440000000 1.0
C      1  0.5165380000000  0.4348740000000  0.4302410000000 1.0
C      1  0.4643680000000  0.5666440000000  0.5628160000000 1.0
C      1  0.4681070000000  0.6174780000000  0.5309860000000 1.0
C      1  0.5423520000000  0.3651760000000  0.5006550000000 1.0
C      1  0.4151860000000  0.5335130000000  0.5239320000000 1.0
C      1  0.5881280000000  0.4698100000000  0.4509270000000 1.0
C      1  0.5157850000000  0.5571840000000  0.4705530000000 1.0
C      1  0.4902050000000  0.4644740000000  0.5171040000000 1.0
C      1  0.4770920000000  0.5415560000000  0.6390170000000 1.0
C      1  0.4524870000000  0.4747520000000  0.4005920000000 1.0
C      1  0.4345150000000  0.4481550000000  0.4966410000000 1.0
C      1  0.5849670000000  0.5508290000000  0.4970590000000 1.0
C      1  0.5440710000000  0.5564510000000  0.4711460000000 1.0
C      1  0.4689340000000  0.4493470000000  0.5287850000000 1.0
C      1  0.5888920000000  0.4768580000000  0.4231590000000 1.0
C      1  0.4349090000000  0.5270180000000  0.5433150000000 1.0
C      1  0.5520000000000  0.5376920000000  0.5359610000000 1.0
C      1  0.4839410000000  0.4716960000000  0.4899300000000 1.0
C      1  0.4146140000000  0.5597380000000  0.5140300000000 1.0
C      1  0.5767020000000  0.4453680000000  0.4587500000000 1.0
C      1  0.4487960000000  0.5724570000000  0.6081700000000 1.0
C      1  0.4930540000000  0.4438480000000  0.3901610000000 1.0
C      1  0.5120200000000  0.5772980000000  0.5548530000000 1.0
C      1  0.4921560000000  0.4156000000000  0.4675920000000 1.0
C      1  0.5011740000000  0.5866190000000  0.5090100000000 1.0
C      1  0.5151650000000  0.4045090000000  0.5092130000000 1.0
C      1  0.5270550000000  0.4995010000000  0.3771980000000 1.0
C      1  0.4625590000000  0.4517310000000  0.5563510000000 1.0
C      1  0.4447680000000  0.5752160000000  0.5814400000000 1.0
C      1  0.5154050000000  0.4358720000000  0.4032100000000 1.0
C      1  0.4903110000000  0.5233010000000  0.3556730000000 1.0
C      1  0.5028030000000  0.4222240000000  0.5550030000000 1.0
C      1  0.6015810000000  0.5048480000000  0.4899510000000 1.0
C      1  0.4117860000000  0.4915070000000  0.4952560000000 1.0
C      1  0.4754230000000  0.5368170000000  0.4159050000000 1.0
C      1  0.5001980000000  0.4521390000000  0.6196150000000 1.0
C      1  0.4650500000000  0.4086610000000  0.5054590000000 1.0
C      1  0.5444820000000  0.5614120000000  0.5202870000000 1.0
C      1  0.4346430000000  0.4760380000000  0.4910310000000 1.0
C      1  0.5889300000000  0.5239890000000  0.5062990000000 1.0
C      1  0.4955610000000  0.5601120000000  0.5996690000000 1.0
C      1  0.4684060000000  0.4446070000000  0.4330270000000 1.0
C      1  0.3978740000000  0.6234310000000  0.4837090000000 1.0
C      1  0.5863870000000  0.3865190000000  0.4190710000000 1.0
C      1  0.4412660000000  0.5010400000000  0.5571300000000 1.0
C      1  0.5656710000000  0.4797790000000  0.4074180000000 1.0
C      1  0.4116100000000  0.6029970000000  0.4922480000000 1.0
C      1  0.5788160000000  0.4014090000000  0.4390740000000 1.0
C      1  0.4269480000000  0.5816010000000  0.5015130000000 1.0
C      1  0.5698850000000  0.4181790000000  0.4596330000000 1.0
C      1  0.5510020000000  0.5101780000000  0.4703990000000 1.0
C      1  0.4821120000000  0.5242880000000  0.5444780000000 1.0
C      1  0.5542660000000  0.4072340000000  0.4801620000000 1.0
C      1  0.4549460000000  0.5817290000000  0.4982150000000 1.0
C      1  0.5525200000000  0.4916640000000  0.5157000000000 1.0
C      1  0.4664300000000  0.5166180000000  0.4912950000000 1.0
C      1  0.5052360000000  0.5176510000000  0.3777570000000 1.0
C      1  0.4848360000000  0.4384790000000  0.5711400000000 1.0
C      1  0.4414110000000  0.4718230000000  0.5601850000000 1.0
C      1  0.5475140000000  0.4869950000000  0.3891540000000 1.0
C      1  0.4036290000000  0.5127220000000  0.5092030000000 1.0
C      1  0.5997910000000  0.4866790000000  0.4703620000000 1.0
C      1  0.5208450000000  0.4203630000000  0.5326410000000 1.0
C      1  0.4980480000000  0.5744790000000  0.4832610000000 1.0
C      1  0.4740590000000  0.5963460000000  0.5148890000000 1.0
C      1  0.5375150000000  0.3917870000000  0.4966360000000 1.0
C      1  0.5124490000000  0.4733380000000  0.5334600000000 1.0
C      1  0.5005340000000  0.5340150000000  0.4622310000000 1.0
C      1  0.5016550000000  0.4803150000000  0.5824910000000 1.0
C      1  0.5208550000000  0.5241170000000  0.4220810000000 1.0
C      1  0.5127410000000  0.5151340000000  0.5033660000000 1.0
END
