TITL C-3623283-6828-1032 0.058545084808343 125000 -1186.42488176281 0 0 194 (C1) n - 1
REM
REM in /home/nfs/bkarasulu/CARBON/AIRSS/Generating-Clusters/LCBOP/Higher-Symm/SD-CG/FIRE-CG
REM
REM
REM
REM
REM
REM ./C.cell (b20cbc046b6831c77cfcea5457e17084)
REM AIRSS Version 0.9.1 bugfix July 2018 build 013d7b7c2542+ Fri, 06 Jul 2018 19:26:36 +0100
REM compiler GCC version 9.2.1 20190827 (Red Hat 9.2.1-1)
REM options -cpp -mtune=generic -march=x86-64 -g -O0 -fpre-include=/usr/include/finclude/math-vector-fortran.h
REM seed 577764273 -854806817 735191455 2075149513 313120457 -231557384 -1098551707 -308444740 -1021098146 -936441435 643869429 688464221 -1108552310 1018614293 -1620645919 2044407409 -2094195810 1036631846 995079527 -417364623 -192461793 1443397618 846719653 1266108961 225984587 371860977 1676233968 -251021247 1461546787 1179749741 -467355128 -1068053339 -655829162
REM
CELL 1.54180   50.00000   50.00000   50.00000   90.00000   90.00000   90.00000
LATT -1
SFAC C  
C      1  0.4145130000000  0.3605180000000  0.4765490000000 1.0
C      1  0.4111370000000  0.4871600000000  0.4174330000000 1.0
C      1  0.5082730000000  0.4557660000000  0.5090030000000 1.0
C      1  0.4946260000000  0.4294660000000  0.5096890000000 1.0
C      1  0.5935120000000  0.5797460000000  0.5398140000000 1.0
C      1  0.5417580000000  0.4761170000000  0.4217190000000 1.0
C      1  0.6102650000000  0.5235460000000  0.5667690000000 1.0
C      1  0.4685790000000  0.4001050000000  0.6242800000000 1.0
C      1  0.4885910000000  0.4142880000000  0.6378060000000 1.0
C      1  0.5478090000000  0.5708780000000  0.5607150000000 1.0
C      1  0.4255520000000  0.4002160000000  0.5017100000000 1.0
C      1  0.4014530000000  0.5189210000000  0.5647940000000 1.0
C      1  0.5862900000000  0.4562560000000  0.4258190000000 1.0
C      1  0.5895470000000  0.5037840000000  0.4839700000000 1.0
C      1  0.4399940000000  0.4461420000000  0.4384020000000 1.0
C      1  0.4784650000000  0.4576480000000  0.4633680000000 1.0
C      1  0.6448940000000  0.5062370000000  0.5371610000000 1.0
C      1  0.4464870000000  0.5179130000000  0.3740570000000 1.0
C      1  0.5126140000000  0.4506620000000  0.6058830000000 1.0
C      1  0.4851370000000  0.5014980000000  0.6274260000000 1.0
C      1  0.5659280000000  0.5194690000000  0.5524800000000 1.0
C      1  0.5808200000000  0.4528080000000  0.5143660000000 1.0
C      1  0.4493180000000  0.5340500000000  0.4635140000000 1.0
C      1  0.5371680000000  0.5304840000000  0.4433050000000 1.0
C      1  0.6078380000000  0.4762310000000  0.5487900000000 1.0
C      1  0.4467800000000  0.4650790000000  0.5129920000000 1.0
C      1  0.5593820000000  0.4451240000000  0.4641950000000 1.0
C      1  0.3876230000000  0.4658390000000  0.5179850000000 1.0
C      1  0.5187640000000  0.5256220000000  0.3870980000000 1.0
C      1  0.4775660000000  0.5834630000000  0.5064680000000 1.0
C      1  0.4828820000000  0.5663600000000  0.4639120000000 1.0
C      1  0.5068670000000  0.6098250000000  0.4834100000000 1.0
C      1  0.5045650000000  0.5873880000000  0.4228800000000 1.0
C      1  0.4614740000000  0.3743510000000  0.4182620000000 1.0
C      1  0.5064230000000  0.4695620000000  0.5343710000000 1.0
C      1  0.4067100000000  0.3611840000000  0.5513410000000 1.0
C      1  0.5391230000000  0.6642970000000  0.4451450000000 1.0
C      1  0.5010210000000  0.5441930000000  0.5631670000000 1.0
C      1  0.4149490000000  0.6047670000000  0.4456410000000 1.0
C      1  0.4879960000000  0.5884360000000  0.4811290000000 1.0
C      1  0.5979900000000  0.5605590000000  0.4704320000000 1.0
C      1  0.4872490000000  0.4318740000000  0.4600860000000 1.0
C      1  0.5029400000000  0.5049800000000  0.3756080000000 1.0
C      1  0.4672380000000  0.4853800000000  0.6162320000000 1.0
C      1  0.5899820000000  0.4505100000000  0.5882410000000 1.0
C      1  0.5222680000000  0.6082870000000  0.5084640000000 1.0
C      1  0.3742840000000  0.5257620000000  0.5114600000000 1.0
C      1  0.4590870000000  0.5894330000000  0.5577560000000 1.0
C      1  0.5649800000000  0.5400080000000  0.4026460000000 1.0
C      1  0.5233130000000  0.5984970000000  0.4054760000000 1.0
C      1  0.4500250000000  0.4429990000000  0.5302350000000 1.0
C      1  0.5903760000000  0.4993070000000  0.5119610000000 1.0
C      1  0.5601310000000  0.5099060000000  0.4793690000000 1.0
C      1  0.4936460000000  0.4092300000000  0.6642080000000 1.0
C      1  0.5169750000000  0.4730400000000  0.4867720000000 1.0
C      1  0.5085160000000  0.6220160000000  0.4578730000000 1.0
C      1  0.6449630000000  0.5300620000000  0.5219290000000 1.0
C      1  0.5770150000000  0.5646830000000  0.5572480000000 1.0
C      1  0.4629870000000  0.6104200000000  0.4462630000000 1.0
C      1  0.4046060000000  0.5210930000000  0.4573550000000 1.0
C      1  0.5798380000000  0.5497460000000  0.4504070000000 1.0
C      1  0.4038160000000  0.5139290000000  0.4096680000000 1.0
C      1  0.5030500000000  0.5582270000000  0.4210260000000 1.0
C      1  0.4197870000000  0.4675730000000  0.5616970000000 1.0
C      1  0.5285730000000  0.5534500000000  0.6039340000000 1.0
C      1  0.5353340000000  0.5972040000000  0.5568100000000 1.0
C      1  0.6608200000000  0.4847970000000  0.5285530000000 1.0
C      1  0.4189860000000  0.4299180000000  0.4464560000000 1.0
C      1  0.4196970000000  0.5639660000000  0.4181950000000 1.0
C      1  0.4385510000000  0.6064610000000  0.4614400000000 1.0
C      1  0.5445410000000  0.4399610000000  0.5493730000000 1.0
C      1  0.5025720000000  0.5478810000000  0.3950360000000 1.0
C      1  0.6179790000000  0.5415090000000  0.4789760000000 1.0
C      1  0.3925410000000  0.4641720000000  0.4665480000000 1.0
C      1  0.4308740000000  0.4883820000000  0.5820770000000 1.0
C      1  0.5976920000000  0.4014070000000  0.4683840000000 1.0
C      1  0.4902670000000  0.5184010000000  0.5714640000000 1.0
C      1  0.5897520000000  0.4574510000000  0.5614160000000 1.0
C      1  0.5133960000000  0.6034850000000  0.5379550000000 1.0
C      1  0.4757260000000  0.3942370000000  0.4078250000000 1.0
C      1  0.5548680000000  0.3419490000000  0.5662640000000 1.0
C      1  0.4168470000000  0.3659380000000  0.5754290000000 1.0
C      1  0.5254400000000  0.3880750000000  0.5178550000000 1.0
C      1  0.5794920000000  0.4430070000000  0.4864440000000 1.0
C      1  0.3830920000000  0.4775900000000  0.4917510000000 1.0
C      1  0.4364790000000  0.5975040000000  0.4887300000000 1.0
C      1  0.4380740000000  0.5329690000000  0.5197560000000 1.0
C      1  0.5609940000000  0.4598580000000  0.4383830000000 1.0
C      1  0.5601700000000  0.5303350000000  0.4582570000000 1.0
C      1  0.5295320000000  0.5314030000000  0.6219310000000 1.0
C      1  0.4072510000000  0.5405270000000  0.4089420000000 1.0
C      1  0.6489830000000  0.4457420000000  0.4972530000000 1.0
C      1  0.5693140000000  0.5997800000000  0.4853460000000 1.0
C      1  0.5457980000000  0.5199720000000  0.3956610000000 1.0
C      1  0.5924760000000  0.5830920000000  0.4877030000000 1.0
C      1  0.6360610000000  0.5434830000000  0.5004650000000 1.0
C      1  0.4669290000000  0.4235300000000  0.5181660000000 1.0
C      1  0.5091330000000  0.5308090000000  0.4458360000000 1.0
C      1  0.5349780000000  0.5441690000000  0.5058520000000 1.0
C      1  0.4410560000000  0.4473590000000  0.5568870000000 1.0
C      1  0.4840480000000  0.5498610000000  0.5398350000000 1.0
C      1  0.4397850000000  0.5428740000000  0.5828340000000 1.0
C      1  0.5399760000000  0.4252440000000  0.4645220000000 1.0
C      1  0.4753920000000  0.4466450000000  0.4063180000000 1.0
C      1  0.4662000000000  0.4835640000000  0.5121530000000 1.0
C      1  0.5407020000000  0.4126370000000  0.5548710000000 1.0
C      1  0.5292260000000  0.5489610000000  0.5737980000000 1.0
C      1  0.6019620000000  0.4260280000000  0.4796310000000 1.0
C      1  0.4436260000000  0.3616780000000  0.4333560000000 1.0
C      1  0.6614210000000  0.4631180000000  0.5130840000000 1.0
C      1  0.5473290000000  0.5950650000000  0.5025470000000 1.0
C      1  0.5468080000000  0.5685310000000  0.5112910000000 1.0
C      1  0.4129470000000  0.5893550000000  0.5297760000000 1.0
C      1  0.4968000000000  0.4788600000000  0.4673810000000 1.0
C      1  0.4361130000000  0.4778700000000  0.4036870000000 1.0
C      1  0.3906720000000  0.5476120000000  0.5196260000000 1.0
C      1  0.4911890000000  0.5605830000000  0.5157000000000 1.0
C      1  0.6226190000000  0.5006270000000  0.5547290000000 1.0
C      1  0.3992000000000  0.4749960000000  0.5424920000000 1.0
C      1  0.3746400000000  0.5057460000000  0.4908220000000 1.0
C      1  0.4503280000000  0.5672820000000  0.5750650000000 1.0
C      1  0.4480260000000  0.4533320000000  0.4126500000000 1.0
C      1  0.6021940000000  0.5829380000000  0.5145450000000 1.0
C      1  0.5688420000000  0.5123470000000  0.5257990000000 1.0
C      1  0.6117930000000  0.4635490000000  0.4236860000000 1.0
C      1  0.4665400000000  0.3758690000000  0.5095900000000 1.0
C      1  0.4866640000000  0.5996280000000  0.5514960000000 1.0
C      1  0.4063280000000  0.5872050000000  0.4270190000000 1.0
C      1  0.4310220000000  0.5136040000000  0.4622140000000 1.0
C      1  0.4129940000000  0.3744250000000  0.5007910000000 1.0
C      1  0.5796080000000  0.5524700000000  0.4219620000000 1.0
C      1  0.4827760000000  0.4888690000000  0.3869490000000 1.0
C      1  0.4838680000000  0.4874280000000  0.5340190000000 1.0
C      1  0.5029570000000  0.4955630000000  0.4452690000000 1.0
C      1  0.4396590000000  0.4873520000000  0.4647380000000 1.0
C      1  0.5706060000000  0.4471220000000  0.5413620000000 1.0
C      1  0.5170720000000  0.4616620000000  0.5821030000000 1.0
C      1  0.4819650000000  0.4197200000000  0.4032660000000 1.0
C      1  0.4540340000000  0.4942020000000  0.3872490000000 1.0
C      1  0.5991990000000  0.4747900000000  0.5208900000000 1.0
C      1  0.4496580000000  0.3870990000000  0.6109950000000 1.0
C      1  0.4575870000000  0.4500480000000  0.5805610000000 1.0
C      1  0.4182590000000  0.5508280000000  0.5065610000000 1.0
C      1  0.4533250000000  0.3999710000000  0.5093820000000 1.0
C      1  0.4222930000000  0.5097500000000  0.5228780000000 1.0
C      1  0.3795120000000  0.5175210000000  0.4656650000000 1.0
C      1  0.5370240000000  0.6136970000000  0.5798980000000 1.0
C      1  0.4264630000000  0.3567420000000  0.4530630000000 1.0
C      1  0.4516450000000  0.4632010000000  0.4580080000000 1.0
C      1  0.5466340000000  0.3639420000000  0.5549640000000 1.0
C      1  0.4024710000000  0.5032560000000  0.5414280000000 1.0
C      1  0.3670140000000  0.4679720000000  0.4250630000000 1.0
C      1  0.3910540000000  0.5713190000000  0.5371770000000 1.0
C      1  0.5517770000000  0.5224900000000  0.5056780000000 1.0
C      1  0.5033530000000  0.4337130000000  0.6240750000000 1.0
C      1  0.4042040000000  0.4374750000000  0.4694340000000 1.0
C      1  0.5003470000000  0.5445550000000  0.4701810000000 1.0
C      1  0.4805140000000  0.5540130000000  0.3783960000000 1.0
C      1  0.5331800000000  0.6049900000000  0.6051520000000 1.0
C      1  0.4550290000000  0.5994420000000  0.5110920000000 1.0
C      1  0.4740520000000  0.5075940000000  0.5507180000000 1.0
C      1  0.5378930000000  0.3874130000000  0.5429760000000 1.0
C      1  0.4105970000000  0.4222180000000  0.4922100000000 1.0
C      1  0.4406620000000  0.5969200000000  0.5368120000000 1.0
C      1  0.4595180000000  0.5568260000000  0.4511270000000 1.0
C      1  0.5107440000000  0.4066460000000  0.5055110000000 1.0
C      1  0.6284600000000  0.4814260000000  0.4343240000000 1.0
C      1  0.5860660000000  0.5373420000000  0.5618450000000 1.0
C      1  0.5421920000000  0.5222660000000  0.5667850000000 1.0
C      1  0.6120950000000  0.5146340000000  0.4709790000000 1.0
C      1  0.4909370000000  0.6076780000000  0.4393020000000 1.0
C      1  0.6276120000000  0.5007330000000  0.4526130000000 1.0
C      1  0.5529500000000  0.4920870000000  0.3998050000000 1.0
C      1  0.4579680000000  0.5419050000000  0.3703060000000 1.0
C      1  0.4466790000000  0.5628990000000  0.4269290000000 1.0
C      1  0.5060060000000  0.5178500000000  0.6287190000000 1.0
C      1  0.4319010000000  0.3752850000000  0.5951980000000 1.0
C      1  0.4043940000000  0.3633600000000  0.5249440000000 1.0
C      1  0.3917690000000  0.4736510000000  0.4370710000000 1.0
C      1  0.5877580000000  0.4445760000000  0.6135170000000 1.0
C      1  0.5535490000000  0.5234440000000  0.6324030000000 1.0
C      1  0.4927790000000  0.4691780000000  0.4051420000000 1.0
C      1  0.5289140000000  0.5799130000000  0.6137400000000 1.0
C      1  0.5237900000000  0.6441390000000  0.4512760000000 1.0
C      1  0.6280450000000  0.4344490000000  0.4854480000000 1.0
C      1  0.5418050000000  0.4856880000000  0.4805870000000 1.0
C      1  0.4251520000000  0.5176500000000  0.5810050000000 1.0
C      1  0.4621910000000  0.5310010000000  0.5363870000000 1.0
C      1  0.5128590000000  0.4792150000000  0.4236910000000 1.0
C      1  0.5081850000000  0.5454590000000  0.4976980000000 1.0
C      1  0.5233550000000  0.4589150000000  0.5549300000000 1.0
C      1  0.5681790000000  0.4798470000000  0.3804100000000 1.0
C      1  0.4177220000000  0.5795240000000  0.5008650000000 1.0
C      1  0.4527300000000  0.4743480000000  0.5953770000000 1.0
END
