TITL C-3623283-6828-679 -2.21056046094608e-07 125000 -357.417086379468 0 0 59 (C1) n - 1
REM
REM in /home/nfs/bkarasulu/CARBON/AIRSS/Generating-Clusters/LCBOP/Higher-Symm/SD-CG/FIRE-CG
REM
REM
REM
REM
REM
REM ./C.cell (b20cbc046b6831c77cfcea5457e17084)
REM AIRSS Version 0.9.1 bugfix July 2018 build 013d7b7c2542+ Fri, 06 Jul 2018 19:26:36 +0100
REM compiler GCC version 9.2.1 20190827 (Red Hat 9.2.1-1)
REM options -cpp -mtune=generic -march=x86-64 -g -O0 -fpre-include=/usr/include/finclude/math-vector-fortran.h
REM seed 41588987 -66323594 -193309834 -4345006 -1198349603 1869400231 822599602 -205226088 445824977 -1798590924 2035837959 -1971065947 1411624759 75228241 557812508 2121220524 712797175 -590863799 -1572155423 291289232 -155684304 500363625 -1905106094 -941753548 885372567 -97180072 154171706 -1600482249 1784906897 1626194286 1199647642 1775943115 397071515
REM
CELL 1.54180   50.00000   50.00000   50.00000   90.00000   90.00000   90.00000
LATT -1
SFAC C  
C      1  0.5397880000000  0.5391650000000  0.4546220000000 1.0
C      1  0.4482950000000  0.5147110000000  0.4541330000000 1.0
C      1  0.5132270000000  0.4474280000000  0.4526390000000 1.0
C      1  0.5024330000000  0.4331170000000  0.4972090000000 1.0
C      1  0.5596110000000  0.5362350000000  0.4978170000000 1.0
C      1  0.4398200000000  0.5327510000000  0.4970040000000 1.0
C      1  0.5200350000000  0.4831340000000  0.5705100000000 1.0
C      1  0.5047630000000  0.5297910000000  0.5670550000000 1.0
C      1  0.4711580000000  0.4931110000000  0.5688900000000 1.0
C      1  0.4440200000000  0.4862120000000  0.5650750000000 1.0
C      1  0.5399090000000  0.4646520000000  0.5613340000000 1.0
C      1  0.5121420000000  0.5568430000000  0.5647750000000 1.0
C      1  0.4555570000000  0.5443890000000  0.5182320000000 1.0
C      1  0.4826980000000  0.4387330000000  0.5188020000000 1.0
C      1  0.5637730000000  0.5161300000000  0.5187590000000 1.0
C      1  0.5226020000000  0.5715340000000  0.5448400000000 1.0
C      1  0.4272910000000  0.4851690000000  0.5440170000000 1.0
C      1  0.5375750000000  0.4602950000000  0.5336920000000 1.0
C      1  0.4915390000000  0.4402990000000  0.4704850000000 1.0
C      1  0.5581610000000  0.5239640000000  0.4707970000000 1.0
C      1  0.4521280000000  0.5380430000000  0.4706370000000 1.0
C      1  0.4290630000000  0.5056330000000  0.4970060000000 1.0
C      1  0.5319570000000  0.4362520000000  0.4940710000000 1.0
C      1  0.5406820000000  0.5586750000000  0.4982860000000 1.0
C      1  0.4441250000000  0.4661260000000  0.4747150000000 1.0
C      1  0.5589140000000  0.4694250000000  0.4717230000000 1.0
C      1  0.4988500000000  0.5652690000000  0.4755140000000 1.0
C      1  0.5406000000000  0.5152680000000  0.5367750000000 1.0
C      1  0.4688640000000  0.5244380000000  0.5333830000000 1.0
C      1  0.4912830000000  0.4581810000000  0.5387180000000 1.0
C      1  0.4920500000000  0.4737340000000  0.5643150000000 1.0
C      1  0.5262230000000  0.5106470000000  0.5625190000000 1.0
C      1  0.4784500000000  0.5200020000000  0.5600840000000 1.0
C      1  0.5688900000000  0.4657380000000  0.4996820000000 1.0
C      1  0.4966010000000  0.5739550000000  0.5039500000000 1.0
C      1  0.4372400000000  0.4599060000000  0.5031370000000 1.0
C      1  0.4648460000000  0.4481500000000  0.4702370000000 1.0
C      1  0.5636430000000  0.4968400000000  0.4687560000000 1.0
C      1  0.4729570000000  0.5564560000000  0.4706470000000 1.0
C      1  0.5510230000000  0.4478080000000  0.5129460000000 1.0
C      1  0.5220910000000  0.5711090000000  0.5169020000000 1.0
C      1  0.4273920000000  0.4836750000000  0.5160450000000 1.0
C      1  0.4705730000000  0.5665930000000  0.5101480000000 1.0
C      1  0.4563340000000  0.4407460000000  0.5094180000000 1.0
C      1  0.5744000000000  0.4919550000000  0.5079480000000 1.0
C      1  0.5085960000000  0.4569600000000  0.3999710000000 1.0
C      1  0.5306220000000  0.5312680000000  0.4023390000000 1.0
C      1  0.4610340000000  0.5106450000000  0.4021310000000 1.0
C      1  0.4764350000000  0.5028420000000  0.5162800000000 1.0
C      1  0.5127920000000  0.4714510000000  0.5238910000000 1.0
C      1  0.5194140000000  0.5172280000000  0.5173100000000 1.0
C      1  0.4542670000000  0.5127720000000  0.4272050000000 1.0
C      1  0.5107930000000  0.4515000000000  0.4253570000000 1.0
C      1  0.5356280000000  0.5359750000000  0.4274760000000 1.0
C      1  0.4377020000000  0.4936430000000  0.4705450000000 1.0
C      1  0.5378830000000  0.4499190000000  0.4675950000000 1.0
C      1  0.5261150000000  0.5576910000000  0.4716620000000 1.0
C      1  0.5046650000000  0.4924480000000  0.4778100000000 1.0
C      1  0.5033250000000  0.4947450000000  0.5073410000000 1.0
END
