TITL C-3623286-7563-1946 -6.33041356113793e-07 125000 -318.326064585985 0 0 55 (C1) n - 1
REM
REM in /home/nfs/bkarasulu/CARBON/AIRSS/Generating-Clusters/LCBOP/Higher-Symm/SD-CG/FIRE-CG
REM
REM
REM
REM
REM
REM ./C.cell (b20cbc046b6831c77cfcea5457e17084)
REM AIRSS Version 0.9.1 bugfix July 2018 build 013d7b7c2542+ Fri, 06 Jul 2018 19:26:36 +0100
REM compiler GCC version 9.2.1 20190827 (Red Hat 9.2.1-1)
REM options -cpp -mtune=generic -march=x86-64 -g -O0 -fpre-include=/usr/include/finclude/math-vector-fortran.h
REM seed -1363387224 -41214318 -618530481 21432222 -1840259051 1602923609 249519501 621578764 239857320 1351128825 1857661163 1571421537 -63684537 1739439463 -1952101186 944940475 1549609185 709011949 109778194 1770278317 -140693716 120478344 803486802 -509786682 -768960848 1290656421 1291078637 -1043251101 -46524484 -1988794818 428639090 -1684734238 -604261369
REM
CELL 1.54180   50.00000   50.00000   50.00000   90.00000   90.00000   90.00000
LATT -1
SFAC C  
C      1  0.5027680000000  0.5466960000000  0.5214960000000 1.0
C      1  0.4729840000000  0.4568900000000  0.5031020000000 1.0
C      1  0.4952790000000  0.5426760000000  0.4739330000000 1.0
C      1  0.5211100000000  0.4546310000000  0.4961200000000 1.0
C      1  0.4922440000000  0.4556790000000  0.4356520000000 1.0
C      1  0.5629850000000  0.5450820000000  0.4904610000000 1.0
C      1  0.5061030000000  0.4585920000000  0.5645040000000 1.0
C      1  0.4347040000000  0.5435100000000  0.5041300000000 1.0
C      1  0.5645660000000  0.4733140000000  0.4761380000000 1.0
C      1  0.5205490000000  0.5267000000000  0.5667360000000 1.0
C      1  0.4295090000000  0.4749330000000  0.5181660000000 1.0
C      1  0.4781390000000  0.5271350000000  0.4316460000000 1.0
C      1  0.5215370000000  0.4493340000000  0.5446760000000 1.0
C      1  0.4542100000000  0.5526750000000  0.5200490000000 1.0
C      1  0.4865640000000  0.4437050000000  0.4606400000000 1.0
C      1  0.5377460000000  0.5569130000000  0.4858030000000 1.0
C      1  0.5645880000000  0.4546880000000  0.5201040000000 1.0
C      1  0.4774050000000  0.5478650000000  0.5638800000000 1.0
C      1  0.4355370000000  0.4546000000000  0.4736590000000 1.0
C      1  0.5230340000000  0.5459520000000  0.4351570000000 1.0
C      1  0.4836560000000  0.5169390000000  0.4775340000000 1.0
C      1  0.5194840000000  0.4824960000000  0.4875340000000 1.0
C      1  0.5107350000000  0.5187150000000  0.5211910000000 1.0
C      1  0.4757140000000  0.4828340000000  0.5143400000000 1.0
C      1  0.4684450000000  0.5116890000000  0.4536440000000 1.0
C      1  0.5412850000000  0.4882380000000  0.4698340000000 1.0
C      1  0.5283880000000  0.5132830000000  0.5430520000000 1.0
C      1  0.4519740000000  0.4885870000000  0.5292640000000 1.0
C      1  0.5848510000000  0.5006710000000  0.5081090000000 1.0
C      1  0.4853900000000  0.5017870000000  0.5848580000000 1.0
C      1  0.4145120000000  0.5007360000000  0.4822010000000 1.0
C      1  0.5117780000000  0.4997000000000  0.4144490000000 1.0
C      1  0.4232900000000  0.4750230000000  0.4904210000000 1.0
C      1  0.5053170000000  0.5259430000000  0.4234910000000 1.0
C      1  0.5751630000000  0.4746090000000  0.5022610000000 1.0
C      1  0.4936460000000  0.5271170000000  0.5753160000000 1.0
C      1  0.4480520000000  0.5039150000000  0.5512520000000 1.0
C      1  0.4485510000000  0.4942820000000  0.4478020000000 1.0
C      1  0.5442880000000  0.5058710000000  0.4496290000000 1.0
C      1  0.5511270000000  0.4986870000000  0.5441820000000 1.0
C      1  0.5038070000000  0.4744930000000  0.4202520000000 1.0
C      1  0.5788850000000  0.5260170000000  0.5008250000000 1.0
C      1  0.4925020000000  0.4763920000000  0.5792240000000 1.0
C      1  0.4202280000000  0.5259470000000  0.4899440000000 1.0
C      1  0.5204280000000  0.5507110000000  0.4635620000000 1.0
C      1  0.5358540000000  0.4504030000000  0.5203100000000 1.0
C      1  0.4781030000000  0.5516480000000  0.5351560000000 1.0
C      1  0.4637270000000  0.4495980000000  0.4772800000000 1.0
C      1  0.5406100000000  0.5601450000000  0.4197300000000 1.0
C      1  0.5811770000000  0.4397110000000  0.5359080000000 1.0
C      1  0.4621320000000  0.5640830000000  0.5797880000000 1.0
C      1  0.4206070000000  0.4400290000000  0.4559480000000 1.0
C      1  0.5219970000000  0.5636770000000  0.5091520000000 1.0
C      1  0.5094310000000  0.4369360000000  0.4771170000000 1.0
C      1  0.4970580000000  0.5002250000000  0.5004460000000 1.0
END
