TITL C-3623286-7563-1363 -1.04689605864275e-06 125000 -591.08103014548 0 0 96 (C1) n - 1
REM
REM in /home/nfs/bkarasulu/CARBON/AIRSS/Generating-Clusters/LCBOP/Higher-Symm/SD-CG/FIRE-CG
REM
REM
REM
REM
REM
REM ./C.cell (b20cbc046b6831c77cfcea5457e17084)
REM AIRSS Version 0.9.1 bugfix July 2018 build 013d7b7c2542+ Fri, 06 Jul 2018 19:26:36 +0100
REM compiler GCC version 9.2.1 20190827 (Red Hat 9.2.1-1)
REM options -cpp -mtune=generic -march=x86-64 -g -O0 -fpre-include=/usr/include/finclude/math-vector-fortran.h
REM seed -1838601 -1631235047 -1745188283 -2130272224 -1248144372 -535319186 1050336313 1060513337 1467001542 -774493224 135385632 -727919855 -1672063812 98464217 -562978870 477607107 -495089175 -727788109 84949913 -835770827 2042476514 605586536 -1948138370 744774345 135781064 1187036699 -1325785811 1752469619 -2067546628 1370711899 606683832 -1727228423 -1414056031
REM
CELL 1.54180   50.00000   50.00000   50.00000   90.00000   90.00000   90.00000
LATT -1
SFAC C  
C      1  0.5260300000000  0.4592370000000  0.4306850000000 1.0
C      1  0.4787600000000  0.5399500000000  0.5534490000000 1.0
C      1  0.4911790000000  0.4589120000000  0.5206920000000 1.0
C      1  0.5177130000000  0.5338030000000  0.4891940000000 1.0
C      1  0.4685150000000  0.4752470000000  0.5109800000000 1.0
C      1  0.5407220000000  0.5175510000000  0.4977200000000 1.0
C      1  0.5689170000000  0.5613530000000  0.4704340000000 1.0
C      1  0.4319300000000  0.4388180000000  0.5304060000000 1.0
C      1  0.5986180000000  0.5261600000000  0.5870650000000 1.0
C      1  0.4058660000000  0.5084020000000  0.4346800000000 1.0
C      1  0.5149860000000  0.4145740000000  0.4295840000000 1.0
C      1  0.4749620000000  0.5877590000000  0.5517930000000 1.0
C      1  0.3931650000000  0.5287420000000  0.4216020000000 1.0
C      1  0.6142730000000  0.5168190000000  0.6074110000000 1.0
C      1  0.5528780000000  0.4270650000000  0.4582930000000 1.0
C      1  0.4388700000000  0.5674860000000  0.5282400000000 1.0
C      1  0.5457590000000  0.4282900000000  0.5076140000000 1.0
C      1  0.4537420000000  0.5546610000000  0.4808190000000 1.0
C      1  0.3901710000000  0.4706290000000  0.4686960000000 1.0
C      1  0.6088620000000  0.5556780000000  0.5436450000000 1.0
C      1  0.5462300000000  0.5233860000000  0.5735790000000 1.0
C      1  0.4581470000000  0.4917490000000  0.4369110000000 1.0
C      1  0.4275390000000  0.5291880000000  0.5595490000000 1.0
C      1  0.5750400000000  0.4679750000000  0.4399190000000 1.0
C      1  0.6097180000000  0.5411560000000  0.5659980000000 1.0
C      1  0.3918360000000  0.4914250000000  0.4521240000000 1.0
C      1  0.4450610000000  0.5076970000000  0.5684120000000 1.0
C      1  0.5608570000000  0.4924030000000  0.4336250000000 1.0
C      1  0.5103640000000  0.5008450000000  0.4341990000000 1.0
C      1  0.4990180000000  0.5056250000000  0.5745760000000 1.0
C      1  0.5411830000000  0.4559720000000  0.5049420000000 1.0
C      1  0.4615660000000  0.5321470000000  0.4954510000000 1.0
C      1  0.4844570000000  0.4775280000000  0.3989680000000 1.0
C      1  0.5119670000000  0.5443380000000  0.6009500000000 1.0
C      1  0.5133820000000  0.4057130000000  0.4794680000000 1.0
C      1  0.4773840000000  0.5898510000000  0.5033080000000 1.0
C      1  0.5557620000000  0.5741350000000  0.4925410000000 1.0
C      1  0.4414480000000  0.4297940000000  0.5046550000000 1.0
C      1  0.4918450000000  0.5244490000000  0.5311340000000 1.0
C      1  0.5155140000000  0.4634260000000  0.4577050000000 1.0
C      1  0.4692360000000  0.4805630000000  0.4832950000000 1.0
C      1  0.5429970000000  0.5120350000000  0.5255400000000 1.0
C      1  0.4659620000000  0.5800400000000  0.4788160000000 1.0
C      1  0.5286970000000  0.4060570000000  0.5041680000000 1.0
C      1  0.4952270000000  0.5492070000000  0.4256540000000 1.0
C      1  0.4923140000000  0.4104800000000  0.5690040000000 1.0
C      1  0.4810520000000  0.5835440000000  0.4552950000000 1.0
C      1  0.5167450000000  0.3969020000000  0.5281550000000 1.0
C      1  0.4836600000000  0.5652830000000  0.5658680000000 1.0
C      1  0.5122970000000  0.4395030000000  0.4160350000000 1.0
C      1  0.5557620000000  0.4701080000000  0.4844280000000 1.0
C      1  0.4444180000000  0.5203410000000  0.5153450000000 1.0
C      1  0.5342200000000  0.4868120000000  0.4238100000000 1.0
C      1  0.4719770000000  0.5176490000000  0.5731220000000 1.0
C      1  0.4908640000000  0.5232100000000  0.4989320000000 1.0
C      1  0.5194310000000  0.4672220000000  0.5196580000000 1.0
C      1  0.5167160000000  0.5570380000000  0.4724800000000 1.0
C      1  0.4848090000000  0.4314620000000  0.5248790000000 1.0
C      1  0.4453170000000  0.4469100000000  0.4581070000000 1.0
C      1  0.5493400000000  0.5597290000000  0.5395810000000 1.0
C      1  0.5376860000000  0.5788190000000  0.5553560000000 1.0
C      1  0.4476930000000  0.4300400000000  0.4367640000000 1.0
C      1  0.4969340000000  0.5643860000000  0.5907160000000 1.0
C      1  0.4933400000000  0.4516550000000  0.3987090000000 1.0
C      1  0.4687090000000  0.4204020000000  0.5035730000000 1.0
C      1  0.5274170000000  0.5790200000000  0.4885470000000 1.0
C      1  0.5063260000000  0.5929140000000  0.5023630000000 1.0
C      1  0.4848920000000  0.4082590000000  0.4832490000000 1.0
C      1  0.5038980000000  0.5022190000000  0.5463740000000 1.0
C      1  0.5080100000000  0.4909200000000  0.4612810000000 1.0
C      1  0.4333610000000  0.5038990000000  0.4311280000000 1.0
C      1  0.5709510000000  0.5210500000000  0.5866100000000 1.0
C      1  0.5634080000000  0.5112250000000  0.4552270000000 1.0
C      1  0.4422490000000  0.4847510000000  0.5506720000000 1.0
C      1  0.5474930000000  0.5318620000000  0.5457830000000 1.0
C      1  0.4577120000000  0.4725180000000  0.4588110000000 1.0
C      1  0.4031170000000  0.4503300000000  0.4803130000000 1.0
C      1  0.5938250000000  0.5669060000000  0.5245440000000 1.0
C      1  0.4819740000000  0.5294910000000  0.4124230000000 1.0
C      1  0.4862920000000  0.4097310000000  0.5943470000000 1.0
C      1  0.4323150000000  0.5399660000000  0.5333640000000 1.0
C      1  0.5651040000000  0.4528900000000  0.4622090000000 1.0
C      1  0.4832190000000  0.5003400000000  0.4194300000000 1.0
C      1  0.5205200000000  0.5210810000000  0.5869910000000 1.0
C      1  0.4902950000000  0.4988060000000  0.4805980000000 1.0
C      1  0.5255680000000  0.4908570000000  0.5336050000000 1.0
C      1  0.4328580000000  0.4579570000000  0.5498510000000 1.0
C      1  0.5705870000000  0.5385080000000  0.4561090000000 1.0
C      1  0.5664110000000  0.5686110000000  0.5184270000000 1.0
C      1  0.4292160000000  0.4398970000000  0.4808880000000 1.0
C      1  0.4616450000000  0.5852850000000  0.5270340000000 1.0
C      1  0.5278620000000  0.4124230000000  0.4553440000000 1.0
C      1  0.4506440000000  0.4930690000000  0.5244700000000 1.0
C      1  0.5549100000000  0.4995370000000  0.4804770000000 1.0
C      1  0.4977170000000  0.4127780000000  0.5419080000000 1.0
C      1  0.5005630000000  0.5635640000000  0.4493210000000 1.0
END
