TITL C-3623288-6813-1163 -8.49484899649197e-07 125000 -407.168443857407 0 0 67 (C1) n - 1
REM
REM in /home/nfs/bkarasulu/CARBON/AIRSS/Generating-Clusters/LCBOP/Higher-Symm/SD-CG/FIRE-CG
REM
REM
REM
REM
REM
REM ./C.cell (b20cbc046b6831c77cfcea5457e17084)
REM AIRSS Version 0.9.1 bugfix July 2018 build 013d7b7c2542+ Fri, 06 Jul 2018 19:26:36 +0100
REM compiler GCC version 9.2.1 20190827 (Red Hat 9.2.1-1)
REM options -cpp -mtune=generic -march=x86-64 -g -O0 -fpre-include=/usr/include/finclude/math-vector-fortran.h
REM seed 1971813259 -369071038 -1723556093 -2120121136 -589345514 931044777 1340670549 101792203 -677564075 1439248734 1441415458 1199584819 946281684 1178802664 -1478524252 -1100734051 1967678319 -1153502741 1123603988 -254479825 1166196424 471532477 1720117343 -21369789 433586646 -525702733 -1999818361 -1723972506 1585443928 -1534962265 -1592328459 -1469553223 1877061992
REM
CELL 1.54180   50.00000   50.00000   50.00000   90.00000   90.00000   90.00000
LATT -1
SFAC C  
C      1  0.5103590000000  0.5152040000000  0.4367160000000 1.0
C      1  0.5047780000000  0.4380490000000  0.5381970000000 1.0
C      1  0.5092980000000  0.4631420000000  0.4952180000000 1.0
C      1  0.4948660000000  0.4870680000000  0.4985440000000 1.0
C      1  0.5210530000000  0.5618650000000  0.5234180000000 1.0
C      1  0.5662800000000  0.4866060000000  0.4705590000000 1.0
C      1  0.5430540000000  0.4694900000000  0.4309690000000 1.0
C      1  0.4707510000000  0.4348070000000  0.4666290000000 1.0
C      1  0.4387760000000  0.4820150000000  0.5738340000000 1.0
C      1  0.5499270000000  0.5725030000000  0.4773790000000 1.0
C      1  0.4099170000000  0.5456740000000  0.5170980000000 1.0
C      1  0.4397300000000  0.5005050000000  0.4763210000000 1.0
C      1  0.5713520000000  0.4620150000000  0.4300100000000 1.0
C      1  0.4635720000000  0.5509990000000  0.4735790000000 1.0
C      1  0.6205610000000  0.5043140000000  0.4697880000000 1.0
C      1  0.4344390000000  0.5480300000000  0.5307280000000 1.0
C      1  0.5257890000000  0.5076990000000  0.4591750000000 1.0
C      1  0.4750610000000  0.4823730000000  0.4421420000000 1.0
C      1  0.4770180000000  0.5640640000000  0.5436750000000 1.0
C      1  0.4034040000000  0.5290070000000  0.4968320000000 1.0
C      1  0.5205710000000  0.4500600000000  0.5585280000000 1.0
C      1  0.5827390000000  0.4462930000000  0.4109380000000 1.0
C      1  0.5417690000000  0.4847450000000  0.4551550000000 1.0
C      1  0.5003550000000  0.5231720000000  0.5288000000000 1.0
C      1  0.5182540000000  0.4719830000000  0.4169690000000 1.0
C      1  0.4340590000000  0.4400040000000  0.5183640000000 1.0
C      1  0.5712850000000  0.5573440000000  0.4827890000000 1.0
C      1  0.5315730000000  0.5158990000000  0.4865490000000 1.0
C      1  0.4691740000000  0.4237700000000  0.4911100000000 1.0
C      1  0.5000100000000  0.5495550000000  0.5387100000000 1.0
C      1  0.4443300000000  0.4846610000000  0.4997780000000 1.0
C      1  0.4599470000000  0.4282480000000  0.5175510000000 1.0
C      1  0.6074970000000  0.5238080000000  0.4830100000000 1.0
C      1  0.4714030000000  0.4552610000000  0.4492910000000 1.0
C      1  0.5094190000000  0.5116920000000  0.5038860000000 1.0
C      1  0.4754870000000  0.4874760000000  0.5409590000000 1.0
C      1  0.5416350000000  0.5238130000000  0.5508860000000 1.0
C      1  0.5315210000000  0.4739460000000  0.5650910000000 1.0
C      1  0.5684940000000  0.5635590000000  0.5386200000000 1.0
C      1  0.4980750000000  0.4908530000000  0.4263590000000 1.0
C      1  0.4490240000000  0.4572860000000  0.5730820000000 1.0
C      1  0.4767790000000  0.4314480000000  0.5409220000000 1.0
C      1  0.4686990000000  0.3938630000000  0.6021070000000 1.0
C      1  0.5091490000000  0.5429170000000  0.4320650000000 1.0
C      1  0.4225100000000  0.5240520000000  0.4768000000000 1.0
C      1  0.5250060000000  0.5006570000000  0.5586640000000 1.0
C      1  0.5855440000000  0.4739650000000  0.4528280000000 1.0
C      1  0.6120240000000  0.4825770000000  0.4562150000000 1.0
C      1  0.5610980000000  0.5101880000000  0.4877590000000 1.0
C      1  0.5449390000000  0.5496060000000  0.5363450000000 1.0
C      1  0.4660550000000  0.4133670000000  0.5850270000000 1.0
C      1  0.4638870000000  0.4341530000000  0.5664800000000 1.0
C      1  0.4365030000000  0.5305230000000  0.5531940000000 1.0
C      1  0.4750970000000  0.5634170000000  0.4968810000000 1.0
C      1  0.5059110000000  0.5686860000000  0.4979270000000 1.0
C      1  0.5218850000000  0.5715650000000  0.4739440000000 1.0
C      1  0.5805960000000  0.5312030000000  0.4871510000000 1.0
C      1  0.4351300000000  0.5076900000000  0.5671000000000 1.0
C      1  0.4749710000000  0.5279840000000  0.4615970000000 1.0
C      1  0.4698460000000  0.4855890000000  0.5128170000000 1.0
C      1  0.4583920000000  0.5621320000000  0.5221260000000 1.0
C      1  0.4271030000000  0.4642230000000  0.5086570000000 1.0
C      1  0.5125720000000  0.5643290000000  0.4481960000000 1.0
C      1  0.5141270000000  0.4425850000000  0.5118480000000 1.0
C      1  0.4355690000000  0.5485700000000  0.4689070000000 1.0
C      1  0.4622790000000  0.5026740000000  0.4581380000000 1.0
C      1  0.4977230000000  0.5031760000000  0.5490660000000 1.0
END
