TITL C-3623284-6838-129 1186.0855278711 125000 -695.592477424702 0 0 117 (C1) n - 1
REM
REM in /home/nfs/bkarasulu/CARBON/AIRSS/Generating-Clusters/LCBOP/Higher-Symm/SD-CG/FIRE-CG
REM
REM
REM
REM
REM
REM ./C.cell (b20cbc046b6831c77cfcea5457e17084)
REM AIRSS Version 0.9.1 bugfix July 2018 build 013d7b7c2542+ Fri, 06 Jul 2018 19:26:36 +0100
REM compiler GCC version 9.2.1 20190827 (Red Hat 9.2.1-1)
REM options -cpp -mtune=generic -march=x86-64 -g -O0 -fpre-include=/usr/include/finclude/math-vector-fortran.h
REM seed 2128245422 -610230960 -702329923 315152148 1038692151 -846052773 1774202132 -161009841 -1151505762 -1810271680 -1390019841 -1785832460 -1144438801 -544538008 1516090507 953119516 -94008302 -268073436 186105424 93401817 -677161117 951232216 1121781098 -203406868 1311120065 -1144126272 -1538255475 -1807857566 -1693765812 369158428 -728513317 -1046033773 1683269658
REM
CELL 1.54180   50.00000   50.00000   50.00000   90.00000   90.00000   90.00000
LATT -1
SFAC C  
C      1  0.4281880000000  0.5405930000000  0.4572150000000 1.0
C      1  0.4227600000000  0.4510550000000  0.4930590000000 1.0
C      1  0.4328640000000  0.5172350000000  0.5543400000000 1.0
C      1  0.4219610000000  0.5344870000000  0.5054010000000 1.0
C      1  0.4253180000000  0.4948850000000  0.4726210000000 1.0
C      1  0.4130410000000  0.4728420000000  0.5373910000000 1.0
C      1  0.4940980000000  0.4444940000000  0.4806830000000 1.0
C      1  0.4885270000000  0.5024360000000  0.5505940000000 1.0
C      1  0.4955600000000  0.5385910000000  0.4630330000000 1.0
C      1  0.5713360000000  0.4719040000000  0.4522290000000 1.0
C      1  0.5650900000000  0.4722870000000  0.5532220000000 1.0
C      1  0.5641900000000  0.5599510000000  0.5009240000000 1.0
C      1  0.4982480000000  0.4550270000000  0.5609550000000 1.0
C      1  0.5012870000000  0.5737100000000  0.5002260000000 1.0
C      1  0.4925770000000  0.4558240000000  0.4337130000000 1.0
C      1  0.4554250000000  0.4413730000000  0.5613880000000 1.0
C      1  0.4589660000000  0.5803680000000  0.5155650000000 1.0
C      1  0.4512060000000  0.4763000000000  0.4236600000000 1.0
C      1  0.4728070000000  0.4799400000000  0.5137660000000 1.0
C      1  0.4810860000000  0.5286180000000  0.5052790000000 1.0
C      1  0.4816380000000  0.4921010000000  0.4687640000000 1.0
C      1  0.4274520000000  0.4663640000000  0.4685950000000 1.0
C      1  0.4272750000000  0.4865270000000  0.5607340000000 1.0
C      1  0.4331040000000  0.5522510000000  0.4830090000000 1.0
C      1  0.4774870000000  0.5168290000000  0.4549620000000 1.0
C      1  0.4695730000000  0.4345510000000  0.4939040000000 1.0
C      1  0.4603040000000  0.5128800000000  0.5416590000000 1.0
C      1  0.4899700000000  0.5349960000000  0.5873050000000 1.0
C      1  0.5004290000000  0.5561260000000  0.4183810000000 1.0
C      1  0.5025730000000  0.3966710000000  0.4918930000000 1.0
C      1  0.4243020000000  0.5410930000000  0.5346430000000 1.0
C      1  0.4295470000000  0.5130510000000  0.4500810000000 1.0
C      1  0.4239290000000  0.4498680000000  0.5226190000000 1.0
C      1  0.4360040000000  0.4582470000000  0.4415520000000 1.0
C      1  0.4509150000000  0.4691820000000  0.5743450000000 1.0
C      1  0.4539140000000  0.5748130000000  0.4858270000000 1.0
C      1  0.5629280000000  0.6095460000000  0.5028230000000 1.0
C      1  0.5475120000000  0.4709730000000  0.4096070000000 1.0
C      1  0.5631800000000  0.4441520000000  0.5940560000000 1.0
C      1  0.5268760000000  0.4878390000000  0.4047230000000 1.0
C      1  0.5720720000000  0.4241010000000  0.6081270000000 1.0
C      1  0.5704960000000  0.6318240000000  0.5140270000000 1.0
C      1  0.5211690000000  0.5331250000000  0.5152070000000 1.0
C      1  0.5215370000000  0.4980580000000  0.4541270000000 1.0
C      1  0.5166670000000  0.4700690000000  0.5224430000000 1.0
C      1  0.5435330000000  0.4230900000000  0.4986350000000 1.0
C      1  0.5346900000000  0.5332370000000  0.5699420000000 1.0
C      1  0.5450660000000  0.5447100000000  0.4348460000000 1.0
C      1  0.5390260000000  0.4355840000000  0.4423330000000 1.0
C      1  0.5297610000000  0.4805190000000  0.5876350000000 1.0
C      1  0.5344520000000  0.5861250000000  0.4691710000000 1.0
C      1  0.4919020000000  0.5480100000000  0.4900550000000 1.0
C      1  0.4868820000000  0.4645030000000  0.4602220000000 1.0
C      1  0.4914060000000  0.4736580000000  0.5378700000000 1.0
C      1  0.5067490000000  0.5019540000000  0.4201150000000 1.0
C      1  0.4901360000000  0.4168620000000  0.5337750000000 1.0
C      1  0.4922500000000  0.5579140000000  0.5443840000000 1.0
C      1  0.5141270000000  0.4097840000000  0.5156140000000 1.0
C      1  0.5077530000000  0.5473180000000  0.5674570000000 1.0
C      1  0.5209410000000  0.5357890000000  0.4196450000000 1.0
C      1  0.5564690000000  0.5295460000000  0.5497180000000 1.0
C      1  0.5638840000000  0.5291850000000  0.4524300000000 1.0
C      1  0.5628190000000  0.4445440000000  0.5032570000000 1.0
C      1  0.4798230000000  0.4732510000000  0.4169220000000 1.0
C      1  0.4839670000000  0.4309170000000  0.5588450000000 1.0
C      1  0.4883660000000  0.5802450000000  0.5247620000000 1.0
C      1  0.5692220000000  0.4539250000000  0.5303260000000 1.0
C      1  0.5646460000000  0.5492890000000  0.5289990000000 1.0
C      1  0.5735200000000  0.5014850000000  0.4485800000000 1.0
C      1  0.4801950000000  0.5825860000000  0.4623360000000 1.0
C      1  0.4293150000000  0.4331440000000  0.4324310000000 1.0
C      1  0.4765200000000  0.4818270000000  0.5895010000000 1.0
C      1  0.5571890000000  0.4564830000000  0.4322560000000 1.0
C      1  0.5530560000000  0.4650150000000  0.5785950000000 1.0
C      1  0.5541510000000  0.5856300000000  0.4913930000000 1.0
C      1  0.4931300000000  0.5688020000000  0.3954220000000 1.0
C      1  0.4923660000000  0.3718050000000  0.4891310000000 1.0
C      1  0.4802830000000  0.5480310000000  0.6091260000000 1.0
C      1  0.5134820000000  0.4377540000000  0.4288130000000 1.0
C      1  0.5030390000000  0.4680380000000  0.5858590000000 1.0
C      1  0.5061360000000  0.5890670000000  0.4766870000000 1.0
C      1  0.4730230000000  0.5146770000000  0.4281550000000 1.0
C      1  0.4650250000000  0.4227420000000  0.5187440000000 1.0
C      1  0.4700730000000  0.5387790000000  0.5319580000000 1.0
C      1  0.5579460000000  0.4993270000000  0.5452640000000 1.0
C      1  0.5611010000000  0.5393070000000  0.4807030000000 1.0
C      1  0.5626330000000  0.4619130000000  0.4782850000000 1.0
C      1  0.5362370000000  0.5249570000000  0.4910590000000 1.0
C      1  0.5361740000000  0.4773520000000  0.4806910000000 1.0
C      1  0.5345950000000  0.4930790000000  0.5269900000000 1.0
C      1  0.5421580000000  0.5721130000000  0.4452170000000 1.0
C      1  0.5354010000000  0.4223460000000  0.4686040000000 1.0
C      1  0.5333560000000  0.5093640000000  0.5876570000000 1.0
C      1  0.4842620000000  0.5081250000000  0.5803120000000 1.0
C      1  0.4887850000000  0.5613780000000  0.4440450000000 1.0
C      1  0.5066720000000  0.4174640000000  0.4722840000000 1.0
C      1  0.5202930000000  0.5213270000000  0.4663240000000 1.0
C      1  0.5156650000000  0.4609750000000  0.4955330000000 1.0
C      1  0.5141360000000  0.5152430000000  0.5338760000000 1.0
C      1  0.4460700000000  0.5043350000000  0.4273940000000 1.0
C      1  0.4441320000000  0.4343590000000  0.5352420000000 1.0
C      1  0.4469490000000  0.5594790000000  0.5326280000000 1.0
C      1  0.3228590000000  0.5051820000000  0.5049580000000 1.0
C      1  0.4011250000000  0.4913050000000  0.5184270000000 1.0
C      1  0.4845710000000  0.4994860000000  0.4957580000000 1.0
C      1  0.4238180000000  0.5040320000000  0.5019760000000 1.0
C      1  0.6562900000000  0.5022130000000  0.5049230000000 1.0
C      1  0.7088570000000  0.5019410000000  0.5039370000000 1.0
C      1  0.4490510000000  0.4941290000000  0.5198100000000 1.0
C      1  0.6297930000000  0.5019340000000  0.5048460000000 1.0
C      1  0.5769750000000  0.4992600000000  0.5015410000000 1.0
C      1  0.3741710000000  0.4965070000000  0.5149180000000 1.0
C      1  0.3485420000000  0.5011280000000  0.5101070000000 1.0
C      1  0.5469440000000  0.4987990000000  0.4997960000000 1.0
C      1  0.6827930000000  0.5021370000000  0.5045100000000 1.0
C      1  0.6033370000000  0.5010190000000  0.5038730000000 1.0
C      1  0.2975810000000  0.5089510000000  0.4998150000000 1.0
END
