TITL C-3623284-6838-1810 -9.65804065269181e-07 125000 -1118.01947210003 0 0 176 (C1) n - 1
REM
REM in /home/nfs/bkarasulu/CARBON/AIRSS/Generating-Clusters/LCBOP/Higher-Symm/SD-CG/FIRE-CG
REM
REM
REM
REM
REM
REM ./C.cell (b20cbc046b6831c77cfcea5457e17084)
REM AIRSS Version 0.9.1 bugfix July 2018 build 013d7b7c2542+ Fri, 06 Jul 2018 19:26:36 +0100
REM compiler GCC version 9.2.1 20190827 (Red Hat 9.2.1-1)
REM options -cpp -mtune=generic -march=x86-64 -g -O0 -fpre-include=/usr/include/finclude/math-vector-fortran.h
REM seed -1325061029 753141986 1918098921 1139697511 -1009049957 -1894876801 1411425722 -163974625 -1099138353 -1066970290 -1137453441 268802913 2012145835 1063811213 562684690 1284015297 1207125294 -1495269269 -1680401005 1331987222 -312818317 1388566399 1988447264 503701857 1189926244 815748150 -2032288358 -881098932 -1897135015 1615941181 -1422300218 2064792698 1285557654
REM
CELL 1.54180   50.00000   50.00000   50.00000   90.00000   90.00000   90.00000
LATT -1
SFAC C  
C      1  0.4720990000000  0.6156870000000  0.5748700000000 1.0
C      1  0.4730240000000  0.4639090000000  0.6330850000000 1.0
C      1  0.4728100000000  0.3626890000000  0.5069670000000 1.0
C      1  0.4737390000000  0.4498030000000  0.3711090000000 1.0
C      1  0.4737680000000  0.6075050000000  0.4151840000000 1.0
C      1  0.5653470000000  0.5586480000000  0.6244680000000 1.0
C      1  0.5640850000000  0.3982750000000  0.5952270000000 1.0
C      1  0.5642280000000  0.3778370000000  0.4333950000000 1.0
C      1  0.5648400000000  0.5259450000000  0.3640110000000 1.0
C      1  0.5613280000000  0.6382850000000  0.4821670000000 1.0
C      1  0.5387930000000  0.5554500000000  0.5291200000000 1.0
C      1  0.5399990000000  0.4885410000000  0.5625020000000 1.0
C      1  0.5398840000000  0.4369790000000  0.5087300000000 1.0
C      1  0.5397350000000  0.4722110000000  0.4428990000000 1.0
C      1  0.5385300000000  0.5450370000000  0.4564220000000 1.0
C      1  0.4681910000000  0.5298450000000  0.4661910000000 1.0
C      1  0.4680020000000  0.5396590000000  0.5211450000000 1.0
C      1  0.4696630000000  0.4933050000000  0.5450400000000 1.0
C      1  0.4695360000000  0.4562670000000  0.5077180000000 1.0
C      1  0.4697070000000  0.4780620000000  0.4599460000000 1.0
C      1  0.4103550000000  0.4401520000000  0.4781600000000 1.0
C      1  0.4089110000000  0.5026470000000  0.4348980000000 1.0
C      1  0.4060790000000  0.5638370000000  0.4814200000000 1.0
C      1  0.4080460000000  0.5373150000000  0.5533230000000 1.0
C      1  0.4101290000000  0.4616280000000  0.5507370000000 1.0
C      1  0.5746490000000  0.5809490000000  0.6120960000000 1.0
C      1  0.5735580000000  0.4166220000000  0.6128470000000 1.0
C      1  0.5735290000000  0.3666950000000  0.4563300000000 1.0
C      1  0.5741820000000  0.5006930000000  0.3605360000000 1.0
C      1  0.5709380000000  0.6336680000000  0.4572120000000 1.0
C      1  0.5238410000000  0.5676260000000  0.4144700000000 1.0
C      1  0.5229300000000  0.6018470000000  0.5380520000000 1.0
C      1  0.5244440000000  0.4949240000000  0.6093960000000 1.0
C      1  0.5241420000000  0.3944420000000  0.5293310000000 1.0
C      1  0.5244320000000  0.4392620000000  0.4089530000000 1.0
C      1  0.5449150000000  0.5323900000000  0.3830140000000 1.0
C      1  0.5423400000000  0.6214070000000  0.4945910000000 1.0
C      1  0.5453120000000  0.5421400000000  0.6132460000000 1.0
C      1  0.5445350000000  0.4044460000000  0.5757440000000 1.0
C      1  0.5447400000000  0.3983360000000  0.4331470000000 1.0
C      1  0.4641480000000  0.3643510000000  0.4811000000000 1.0
C      1  0.4653070000000  0.4749060000000  0.3643450000000 1.0
C      1  0.4648210000000  0.6208030000000  0.4373270000000 1.0
C      1  0.4639830000000  0.5994390000000  0.5952880000000 1.0
C      1  0.4643860000000  0.4398150000000  0.6235150000000 1.0
C      1  0.5641220000000  0.3748510000000  0.4804480000000 1.0
C      1  0.5644750000000  0.4801500000000  0.3753940000000 1.0
C      1  0.5622150000000  0.6123650000000  0.4428440000000 1.0
C      1  0.5647720000000  0.5885970000000  0.5879940000000 1.0
C      1  0.5642960000000  0.4421360000000  0.6125820000000 1.0
C      1  0.5832080000000  0.5252350000000  0.5096990000000 1.0
C      1  0.5837110000000  0.4982880000000  0.5271370000000 1.0
C      1  0.5838160000000  0.4734130000000  0.5068010000000 1.0
C      1  0.5835710000000  0.4850290000000  0.4768670000000 1.0
C      1  0.5830860000000  0.5170670000000  0.4786910000000 1.0
C      1  0.5621760000000  0.4534200000000  0.5119300000000 1.0
C      1  0.5618450000000  0.4738460000000  0.4597200000000 1.0
C      1  0.5608580000000  0.5298100000000  0.4632850000000 1.0
C      1  0.5611040000000  0.5438750000000  0.5171560000000 1.0
C      1  0.5621300000000  0.4967750000000  0.5477380000000 1.0
C      1  0.4944870000000  0.6004920000000  0.5326800000000 1.0
C      1  0.4959790000000  0.4998140000000  0.6066420000000 1.0
C      1  0.4957580000000  0.3988660000000  0.5330230000000 1.0
C      1  0.4960380000000  0.4366810000000  0.4140300000000 1.0
C      1  0.4954260000000  0.5622930000000  0.4133070000000 1.0
C      1  0.4169500000000  0.4432140000000  0.5296390000000 1.0
C      1  0.4167290000000  0.4544590000000  0.4539320000000 1.0
C      1  0.4148420000000  0.5304620000000  0.4407550000000 1.0
C      1  0.4133440000000  0.5659730000000  0.5097670000000 1.0
C      1  0.4160660000000  0.5114980000000  0.5640140000000 1.0
C      1  0.5299480000000  0.6014580000000  0.4776460000000 1.0
C      1  0.5322950000000  0.5524320000000  0.5895430000000 1.0
C      1  0.5319030000000  0.4303640000000  0.5782400000000 1.0
C      1  0.5318460000000  0.4038950000000  0.4584650000000 1.0
C      1  0.5318560000000  0.5099260000000  0.3957460000000 1.0
C      1  0.4438920000000  0.5227970000000  0.5189690000000 1.0
C      1  0.4483610000000  0.4959900000000  0.5251340000000 1.0
C      1  0.4492760000000  0.4775540000000  0.5039060000000 1.0
C      1  0.4484870000000  0.4876960000000  0.4777070000000 1.0
C      1  0.4442140000000  0.5149660000000  0.4746940000000 1.0
C      1  0.4671500000000  0.5164970000000  0.5662400000000 1.0
C      1  0.4671590000000  0.4430510000000  0.5360880000000 1.0
C      1  0.4671220000000  0.4475100000000  0.4563270000000 1.0
C      1  0.4664750000000  0.5250910000000  0.4351990000000 1.0
C      1  0.4650650000000  0.5661610000000  0.5047190000000 1.0
C      1  0.5156350000000  0.4843830000000  0.4507370000000 1.0
C      1  0.5142080000000  0.5409620000000  0.4699650000000 1.0
C      1  0.5144890000000  0.5412710000000  0.5299870000000 1.0
C      1  0.5157610000000  0.4836450000000  0.5491290000000 1.0
C      1  0.5156500000000  0.4482200000000  0.4999200000000 1.0
C      1  0.6102970000000  0.5265130000000  0.4672920000000 1.0
C      1  0.6104610000000  0.5390640000000  0.5147170000000 1.0
C      1  0.6112530000000  0.4978760000000  0.5413030000000 1.0
C      1  0.6114700000000  0.4598630000000  0.5103340000000 1.0
C      1  0.6109990000000  0.4775550000000  0.4646020000000 1.0
C      1  0.5375740000000  0.5689870000000  0.4398700000000 1.0
C      1  0.5378970000000  0.5786250000000  0.5468400000000 1.0
C      1  0.5388590000000  0.4789060000000  0.5899990000000 1.0
C      1  0.5386960000000  0.4078660000000  0.5082010000000 1.0
C      1  0.5386420000000  0.4637430000000  0.4150430000000 1.0
C      1  0.4537860000000  0.4826180000000  0.4105760000000 1.0
C      1  0.4522600000000  0.5785360000000  0.4569920000000 1.0
C      1  0.4530110000000  0.5655630000000  0.5627110000000 1.0
C      1  0.4534080000000  0.4612940000000  0.5817080000000 1.0
C      1  0.4532820000000  0.4107970000000  0.4885150000000 1.0
C      1  0.4543230000000  0.5745010000000  0.5896940000000 1.0
C      1  0.4544590000000  0.4380760000000  0.5981220000000 1.0
C      1  0.4542690000000  0.3879710000000  0.4715530000000 1.0
C      1  0.4552290000000  0.4914930000000  0.3835800000000 1.0
C      1  0.4539330000000  0.6069350000000  0.4582130000000 1.0
C      1  0.5391690000000  0.4152550000000  0.4114890000000 1.0
C      1  0.5388660000000  0.5580910000000  0.3924870000000 1.0
C      1  0.5370640000000  0.6204320000000  0.5221050000000 1.0
C      1  0.5391110000000  0.5159960000000  0.6213440000000 1.0
C      1  0.5386180000000  0.3890830000000  0.5530360000000 1.0
C      1  0.4391310000000  0.5776750000000  0.5173620000000 1.0
C      1  0.4406800000000  0.5081680000000  0.5797240000000 1.0
C      1  0.4411100000000  0.4272870000000  0.5321240000000 1.0
C      1  0.4410710000000  0.4466270000000  0.4398940000000 1.0
C      1  0.4401780000000  0.5407550000000  0.4296560000000 1.0
C      1  0.4902510000000  0.4326020000000  0.4414210000000 1.0
C      1  0.4895460000000  0.5348210000000  0.4169320000000 1.0
C      1  0.4886500000000  0.5874670000000  0.5083180000000 1.0
C      1  0.4904640000000  0.5192420000000  0.5868900000000 1.0
C      1  0.4903190000000  0.4237350000000  0.5452580000000 1.0
C      1  0.3877450000000  0.5228550000000  0.5120940000000 1.0
C      1  0.3904030000000  0.4959580000000  0.5241440000000 1.0
C      1  0.3916110000000  0.4762660000000  0.5025610000000 1.0
C      1  0.3904660000000  0.4902930000000  0.4769060000000 1.0
C      1  0.3877950000000  0.5193670000000  0.4821080000000 1.0
C      1  0.4722340000000  0.4869710000000  0.6163260000000 1.0
C      1  0.4720980000000  0.3857540000000  0.5237050000000 1.0
C      1  0.4725950000000  0.4412920000000  0.3982940000000 1.0
C      1  0.4722320000000  0.5790520000000  0.4139980000000 1.0
C      1  0.4710420000000  0.6062590000000  0.5479930000000 1.0
C      1  0.4004100000000  0.5402580000000  0.4653930000000 1.0
C      1  0.4002230000000  0.5450720000000  0.5265970000000 1.0
C      1  0.4035630000000  0.4893660000000  0.5491740000000 1.0
C      1  0.4045180000000  0.4504450000000  0.5040650000000 1.0
C      1  0.4036550000000  0.4809730000000  0.4527420000000 1.0
C      1  0.5429200000000  0.5939750000000  0.4525160000000 1.0
C      1  0.5445600000000  0.5742030000000  0.5742780000000 1.0
C      1  0.5445930000000  0.4512690000000  0.5943510000000 1.0
C      1  0.5444590000000  0.3950680000000  0.4833570000000 1.0
C      1  0.5444580000000  0.4834820000000  0.3952110000000 1.0
C      1  0.6340300000000  0.5237280000000  0.5084760000000 1.0
C      1  0.6344910000000  0.4991180000000  0.5243520000000 1.0
C      1  0.6346410000000  0.4764060000000  0.5058690000000 1.0
C      1  0.6343400000000  0.4869860000000  0.4785630000000 1.0
C      1  0.6339330000000  0.5162300000000  0.4801650000000 1.0
C      1  0.4971030000000  0.4882230000000  0.4748900000000 1.0
C      1  0.4953610000000  0.5192930000000  0.4812220000000 1.0
C      1  0.4952090000000  0.5236330000000  0.5133090000000 1.0
C      1  0.4971210000000  0.4943130000000  0.5271090000000 1.0
C      1  0.4975440000000  0.4727810000000  0.5030390000000 1.0
C      1  0.5000470000000  0.4927770000000  0.4277680000000 1.0
C      1  0.4982660000000  0.5651900000000  0.4710880000000 1.0
C      1  0.4996410000000  0.5479760000000  0.5540850000000 1.0
C      1  0.5000300000000  0.4633920000000  0.5628390000000 1.0
C      1  0.4998150000000  0.4291750000000  0.4848190000000 1.0
C      1  0.5085610000000  0.4364530000000  0.5637880000000 1.0
C      1  0.5084150000000  0.4194190000000  0.4596660000000 1.0
C      1  0.5082660000000  0.5136760000000  0.4105910000000 1.0
C      1  0.5067010000000  0.5878110000000  0.4857990000000 1.0
C      1  0.5088000000000  0.5405090000000  0.5797890000000 1.0
C      1  0.4498620000000  0.4861370000000  0.5965860000000 1.0
C      1  0.4500750000000  0.4043930000000  0.5166630000000 1.0
C      1  0.4503760000000  0.4539420000000  0.4133700000000 1.0
C      1  0.4497610000000  0.5682490000000  0.4299990000000 1.0
C      1  0.4488700000000  0.5870060000000  0.5433230000000 1.0
C      1  0.4701720000000  0.4653140000000  0.5573670000000 1.0
C      1  0.4699390000000  0.4353000000000  0.4847300000000 1.0
C      1  0.4701300000000  0.4939030000000  0.4329440000000 1.0
C      1  0.4683000000000  0.5600570000000  0.4742820000000 1.0
C      1  0.4698730000000  0.5436690000000  0.5516380000000 1.0
C      1  0.4306880000000  0.5265130000000  0.4953360000000 1.0
END
