TITL C-3623289-7120-1022 -0.36332173274714 125000 -142.205860852759 0 0 27 (C1) n - 1
REM
REM in /home/nfs/bkarasulu/CARBON/AIRSS/Generating-Clusters/LCBOP/Higher-Symm/SD-CG/FIRE-CG
REM
REM
REM
REM
REM
REM ./C.cell (b20cbc046b6831c77cfcea5457e17084)
REM AIRSS Version 0.9.1 bugfix July 2018 build 013d7b7c2542+ Fri, 06 Jul 2018 19:26:36 +0100
REM compiler GCC version 9.2.1 20190827 (Red Hat 9.2.1-1)
REM options -cpp -mtune=generic -march=x86-64 -g -O0 -fpre-include=/usr/include/finclude/math-vector-fortran.h
REM seed 1428935809 1722798148 139551451 -1769081243 -871822068 524633809 548466745 -1104049507 329769314 -40828226 1041931532 539103642 617144808 -1474157701 143092553 -1173482274 1531947422 1309104116 -583625803 -1748194729 37647604 2120702864 1544888749 -1368582504 863767319 310713220 -1529263455 490320079 -1380181 1664029032 -910030829 -1049231787 1825187723
REM
CELL 1.54180   50.00000   50.00000   50.00000   90.00000   90.00000   90.00000
LATT -1
SFAC C  
C      1  0.4643580000000  0.4316340000000  0.5164590000000 1.0
C      1  0.5755130000000  0.5350960000000  0.5057550000000 1.0
C      1  0.5173150000000  0.5518480000000  0.5385520000000 1.0
C      1  0.4395410000000  0.4840540000000  0.4804180000000 1.0
C      1  0.4878950000000  0.5564660000000  0.5028370000000 1.0
C      1  0.4730310000000  0.4478660000000  0.4422140000000 1.0
C      1  0.5096090000000  0.5403890000000  0.4926240000000 1.0
C      1  0.4808660000000  0.4634250000000  0.4633230000000 1.0
C      1  0.4157380000000  0.4713090000000  0.4758240000000 1.0
C      1  0.5283280000000  0.5540700000000  0.5632070000000 1.0
C      1  0.5520600000000  0.5229360000000  0.5148190000000 1.0
C      1  0.4687330000000  0.4586160000000  0.5107570000000 1.0
C      1  0.5521700000000  0.4715280000000  0.5313120000000 1.0
C      1  0.4858870000000  0.4920610000000  0.5494450000000 1.0
C      1  0.5280250000000  0.5374830000000  0.5153250000000 1.0
C      1  0.4630360000000  0.4686620000000  0.4848150000000 1.0
C      1  0.5126740000000  0.5298910000000  0.4668410000000 1.0
C      1  0.5069990000000  0.4745990000000  0.4641290000000 1.0
C      1  0.5288990000000  0.4583500000000  0.4663350000000 1.0
C      1  0.5184740000000  0.5463220000000  0.4457580000000 1.0
C      1  0.4602070000000  0.4062980000000  0.5209300000000 1.0
C      1  0.5969530000000  0.5468770000000  0.4967710000000 1.0
C      1  0.4786350000000  0.4757930000000  0.5304240000000 1.0
C      1  0.5524220000000  0.4963170000000  0.5232770000000 1.0
C      1  0.4923590000000  0.5630680000000  0.5292880000000 1.0
C      1  0.4410360000000  0.5113950000000  0.4808620000000 1.0
C      1  0.5099340000000  0.5023530000000  0.4629530000000 1.0
END
