TITL C-3623283-6828-177 -46.6124895608565 125000 -1176.24966690241 0 0 189 (C1) n - 1
REM
REM in /home/nfs/bkarasulu/CARBON/AIRSS/Generating-Clusters/LCBOP/Higher-Symm/SD-CG/FIRE-CG
REM
REM
REM
REM
REM
REM ./C.cell (b20cbc046b6831c77cfcea5457e17084)
REM AIRSS Version 0.9.1 bugfix July 2018 build 013d7b7c2542+ Fri, 06 Jul 2018 19:26:36 +0100
REM compiler GCC version 9.2.1 20190827 (Red Hat 9.2.1-1)
REM options -cpp -mtune=generic -march=x86-64 -g -O0 -fpre-include=/usr/include/finclude/math-vector-fortran.h
REM seed 634141051 -1742212065 1382426768 1061680375 -913278536 -410598426 -111658662 424834398 -40228680 630899983 735204948 -1482994296 1684301034 -1348415529 -1982266915 -933352779 296436446 209297168 -77833623 -1762123274 -716260013 -1129260859 1405729813 -958049294 922078199 125072136 1824360983 -2062073537 -323989644 1894208491 -509527615 -1635831963 -1604642076
REM
CELL 1.54180   50.00000   50.00000   50.00000   90.00000   90.00000   90.00000
LATT -1
SFAC C  
C      1  0.4577750000000  0.4577090000000  0.4744040000000 1.0
C      1  0.4634300000000  0.4431120000000  0.5263040000000 1.0
C      1  0.5077720000000  0.4543500000000  0.5294760000000 1.0
C      1  0.5405380000000  0.4496160000000  0.4949570000000 1.0
C      1  0.5022930000000  0.4639370000000  0.4602810000000 1.0
C      1  0.4606070000000  0.5380510000000  0.5184150000000 1.0
C      1  0.4722440000000  0.5373660000000  0.4696100000000 1.0
C      1  0.5173910000000  0.5496910000000  0.4632990000000 1.0
C      1  0.5406360000000  0.5632300000000  0.5004460000000 1.0
C      1  0.5105980000000  0.5371550000000  0.5387160000000 1.0
C      1  0.5118320000000  0.5020600000000  0.4204940000000 1.0
C      1  0.4240930000000  0.4830860000000  0.4869450000000 1.0
C      1  0.4450140000000  0.4836590000000  0.5461590000000 1.0
C      1  0.5370580000000  0.4818650000000  0.5506120000000 1.0
C      1  0.5682040000000  0.4849350000000  0.4744730000000 1.0
C      1  0.4943910000000  0.5083740000000  0.5698340000000 1.0
C      1  0.4207060000000  0.5166830000000  0.5124780000000 1.0
C      1  0.4435650000000  0.5021160000000  0.4423160000000 1.0
C      1  0.5528690000000  0.5211890000000  0.4457850000000 1.0
C      1  0.5698920000000  0.5231580000000  0.5166630000000 1.0
C      1  0.5266700000000  0.4769200000000  0.5238430000000 1.0
C      1  0.5470470000000  0.4675710000000  0.4767830000000 1.0
C      1  0.4746690000000  0.4690090000000  0.4560950000000 1.0
C      1  0.4494740000000  0.4749500000000  0.4953020000000 1.0
C      1  0.4647790000000  0.4646800000000  0.5450170000000 1.0
C      1  0.5373430000000  0.5276270000000  0.4678370000000 1.0
C      1  0.5481260000000  0.5395970000000  0.5130320000000 1.0
C      1  0.4897000000000  0.5211210000000  0.5461230000000 1.0
C      1  0.4387110000000  0.5343990000000  0.5022780000000 1.0
C      1  0.4947930000000  0.5342700000000  0.4530810000000 1.0
C      1  0.4160930000000  0.5442830000000  0.5585620000000 1.0
C      1  0.5301810000000  0.5448540000000  0.5988570000000 1.0
C      1  0.6086980000000  0.5491070000000  0.5047350000000 1.0
C      1  0.5413240000000  0.5486210000000  0.3980610000000 1.0
C      1  0.4181220000000  0.5479160000000  0.4386690000000 1.0
C      1  0.4121910000000  0.4517360000000  0.4423740000000 1.0
C      1  0.5308310000000  0.4539480000000  0.4051720000000 1.0
C      1  0.6065560000000  0.4525680000000  0.4980750000000 1.0
C      1  0.5368780000000  0.4523970000000  0.5988630000000 1.0
C      1  0.4192050000000  0.4494610000000  0.5677420000000 1.0
C      1  0.4435740000000  0.5638050000000  0.4347230000000 1.0
C      1  0.4183200000000  0.5635700000000  0.5349640000000 1.0
C      1  0.5077820000000  0.5625390000000  0.5907490000000 1.0
C      1  0.5948330000000  0.5684360000000  0.5242890000000 1.0
C      1  0.5568370000000  0.5681910000000  0.4165070000000 1.0
C      1  0.4425240000000  0.4309490000000  0.5769770000000 1.0
C      1  0.4136780000000  0.4329900000000  0.4670340000000 1.0
C      1  0.5086140000000  0.4376650000000  0.4166330000000 1.0
C      1  0.5924780000000  0.4338940000000  0.4794880000000 1.0
C      1  0.5490550000000  0.4340050000000  0.5788810000000 1.0
C      1  0.6033850000000  0.5479970000000  0.4749840000000 1.0
C      1  0.5072140000000  0.5483150000000  0.3946370000000 1.0
C      1  0.4018610000000  0.5463540000000  0.4642110000000 1.0
C      1  0.4381680000000  0.5408290000000  0.5775360000000 1.0
C      1  0.5549770000000  0.5447430000000  0.5836860000000 1.0
C      1  0.5987730000000  0.4536140000000  0.5261700000000 1.0
C      1  0.5085030000000  0.4522840000000  0.6056580000000 1.0
C      1  0.4028920000000  0.4514730000000  0.5407700000000 1.0
C      1  0.4346280000000  0.4523170000000  0.4208080000000 1.0
C      1  0.5576670000000  0.4559270000000  0.4170890000000 1.0
C      1  0.5216310000000  0.5222900000000  0.6157790000000 1.0
C      1  0.6193910000000  0.5242420000000  0.5187000000000 1.0
C      1  0.5532970000000  0.5209120000000  0.4002710000000 1.0
C      1  0.4155500000000  0.5274390000000  0.4171280000000 1.0
C      1  0.3937590000000  0.5244320000000  0.5567870000000 1.0
C      1  0.5207070000000  0.4739230000000  0.3858380000000 1.0
C      1  0.6199440000000  0.4755520000000  0.4846360000000 1.0
C      1  0.5529460000000  0.4766310000000  0.6031730000000 1.0
C      1  0.4195990000000  0.4737200000000  0.5845160000000 1.0
C      1  0.3995200000000  0.4790030000000  0.4492260000000 1.0
C      1  0.4396240000000  0.5076350000000  0.4132930000000 1.0
C      1  0.3825660000000  0.5083430000000  0.5339670000000 1.0
C      1  0.4976280000000  0.5053410000000  0.6149940000000 1.0
C      1  0.6061550000000  0.5069680000000  0.5391410000000 1.0
C      1  0.5795400000000  0.5092970000000  0.4098880000000 1.0
C      1  0.4420080000000  0.4876660000000  0.5959810000000 1.0
C      1  0.3811510000000  0.4892730000000  0.4715360000000 1.0
C      1  0.4985030000000  0.4938460000000  0.3952090000000 1.0
C      1  0.6115420000000  0.4931050000000  0.4622790000000 1.0
C      1  0.5674070000000  0.4927350000000  0.5838600000000 1.0
C      1  0.4056160000000  0.4307730000000  0.5177480000000 1.0
C      1  0.4898280000000  0.4309030000000  0.5964280000000 1.0
C      1  0.5852440000000  0.4322750000000  0.5425610000000 1.0
C      1  0.5669520000000  0.4344760000000  0.4356150000000 1.0
C      1  0.4581260000000  0.4320710000000  0.4196980000000 1.0
C      1  0.4055060000000  0.5682270000000  0.4856770000000 1.0
C      1  0.4869090000000  0.5686620000000  0.4074180000000 1.0
C      1  0.5883700000000  0.5688010000000  0.4579090000000 1.0
C      1  0.5669570000000  0.5667490000000  0.5678310000000 1.0
C      1  0.4584380000000  0.5623770000000  0.5811710000000 1.0
C      1  0.5539940000000  0.6016950000000  0.5328640000000 1.0
C      1  0.5475240000000  0.6016230000000  0.4569890000000 1.0
C      1  0.4786450000000  0.5996140000000  0.4487570000000 1.0
C      1  0.4449830000000  0.6000770000000  0.5045700000000 1.0
C      1  0.4886970000000  0.5969430000000  0.5550740000000 1.0
C      1  0.5512110000000  0.3999170000000  0.4723550000000 1.0
C      1  0.5459090000000  0.3976330000000  0.5400320000000 1.0
C      1  0.4804440000000  0.3980700000000  0.5572930000000 1.0
C      1  0.4405750000000  0.3968850000000  0.4959370000000 1.0
C      1  0.4896390000000  0.3991340000000  0.4475830000000 1.0
C      1  0.4950540000000  0.6086860000000  0.5267820000000 1.0
C      1  0.5255660000000  0.6098480000000  0.5147420000000 1.0
C      1  0.5229180000000  0.6109710000000  0.4805000000000 1.0
C      1  0.4912880000000  0.6110600000000  0.4740840000000 1.0
C      1  0.4743420000000  0.6110960000000  0.5014820000000 1.0
C      1  0.4955450000000  0.3874880000000  0.4757350000000 1.0
C      1  0.5254810000000  0.3899400000000  0.4878120000000 1.0
C      1  0.5235750000000  0.3895090000000  0.5197050000000 1.0
C      1  0.4919170000000  0.3893970000000  0.5288010000000 1.0
C      1  0.4738300000000  0.3871260000000  0.5005830000000 1.0
C      1  0.5821930000000  0.5268160000000  0.4362420000000 1.0
C      1  0.4609640000000  0.5277430000000  0.4012420000000 1.0
C      1  0.3924090000000  0.5256900000000  0.5099390000000 1.0
C      1  0.4804320000000  0.5195910000000  0.5938320000000 1.0
C      1  0.5824110000000  0.5250350000000  0.5460480000000 1.0
C      1  0.5673590000000  0.4760140000000  0.5583280000000 1.0
C      1  0.4631960000000  0.4696830000000  0.6052890000000 1.0
C      1  0.3956210000000  0.4736470000000  0.4954350000000 1.0
C      1  0.4747190000000  0.4731460000000  0.3988200000000 1.0
C      1  0.5874940000000  0.4771520000000  0.4514790000000 1.0
C      1  0.4607980000000  0.5549450000000  0.4123510000000 1.0
C      1  0.3987380000000  0.5568360000000  0.5124860000000 1.0
C      1  0.4819190000000  0.5503510000000  0.5939690000000 1.0
C      1  0.5866060000000  0.5554720000000  0.5488210000000 1.0
C      1  0.5800970000000  0.5574920000000  0.4316970000000 1.0
C      1  0.4623220000000  0.4419390000000  0.5957370000000 1.0
C      1  0.3994580000000  0.4428320000000  0.4915880000000 1.0
C      1  0.4817660000000  0.4460430000000  0.4081360000000 1.0
C      1  0.5873160000000  0.4458130000000  0.4535380000000 1.0
C      1  0.5707580000000  0.4460500000000  0.5641430000000 1.0
C      1  0.4224900000000  0.5921850000000  0.4868380000000 1.0
C      1  0.4638100000000  0.5877490000000  0.5680630000000 1.0
C      1  0.5559730000000  0.5921370000000  0.5598800000000 1.0
C      1  0.5697720000000  0.5878270000000  0.4691390000000 1.0
C      1  0.4889690000000  0.5939350000000  0.4220060000000 1.0
C      1  0.4271190000000  0.4112950000000  0.5177580000000 1.0
C      1  0.4651520000000  0.4065970000000  0.4324730000000 1.0
C      1  0.5548610000000  0.4099820000000  0.4450690000000 1.0
C      1  0.5744070000000  0.4055320000000  0.5373070000000 1.0
C      1  0.4940080000000  0.4068210000000  0.5814130000000 1.0
C      1  0.4372150000000  0.4155710000000  0.4736360000000 1.0
C      1  0.4539070000000  0.4110840000000  0.5584070000000 1.0
C      1  0.5355740000000  0.4168300000000  0.5600820000000 1.0
C      1  0.5712170000000  0.4154990000000  0.4885470000000 1.0
C      1  0.5081470000000  0.4216910000000  0.4413390000000 1.0
C      1  0.4436510000000  0.5793520000000  0.5261440000000 1.0
C      1  0.4584780000000  0.5792670000000  0.4548290000000 1.0
C      1  0.5406480000000  0.5862610000000  0.4331550000000 1.0
C      1  0.5756390000000  0.5891610000000  0.5169290000000 1.0
C      1  0.5089430000000  0.5789000000000  0.5665810000000 1.0
C      1  0.4879280000000  0.5224240000000  0.3885350000000 1.0
C      1  0.3864640000000  0.5206300000000  0.4781990000000 1.0
C      1  0.4494630000000  0.5153050000000  0.5902940000000 1.0
C      1  0.5680880000000  0.5198320000000  0.5740800000000 1.0
C      1  0.6041390000000  0.5218620000000  0.4587350000000 1.0
C      1  0.4916050000000  0.4766540000000  0.6134470000000 1.0
C      1  0.3894680000000  0.4782490000000  0.5273110000000 1.0
C      1  0.4453400000000  0.4781410000000  0.4041140000000 1.0
C      1  0.5761850000000  0.4807890000000  0.4213000000000 1.0
C      1  0.5936870000000  0.4800590000000  0.5399260000000 1.0
C      1  0.4675680000000  0.4964420000000  0.5025770000000 1.0
C      1  0.4918490000000  0.4676500000000  0.5520500000000 1.0
C      1  0.5241710000000  0.5001800000000  0.5081870000000 1.0
C      1  0.5133230000000  0.4889740000000  0.4630440000000 1.0
C      1  0.4698230000000  0.4967700000000  0.4519080000000 1.0
C      1  0.4680780000000  0.5111710000000  0.4783180000000 1.0
C      1  0.4968480000000  0.5063840000000  0.4441000000000 1.0
C      1  0.5261640000000  0.5047650000000  0.4809440000000 1.0
C      1  0.5266700000000  0.5244310000000  0.5213520000000 1.0
C      1  0.4733200000000  0.5138560000000  0.5248340000000 1.0
C      1  0.5185350000000  0.5621530000000  0.5465040000000 1.0
C      1  0.5615340000000  0.5806430000000  0.4944410000000 1.0
C      1  0.5202520000000  0.5694510000000  0.4425060000000 1.0
C      1  0.4678390000000  0.5636370000000  0.4763000000000 1.0
C      1  0.4687730000000  0.5644990000000  0.5214190000000 1.0
C      1  0.5070240000000  0.4372510000000  0.4655280000000 1.0
C      1  0.5540480000000  0.4297270000000  0.5060100000000 1.0
C      1  0.5179500000000  0.4318140000000  0.5446210000000 1.0
C      1  0.4480780000000  0.4211170000000  0.5331280000000 1.0
C      1  0.4613060000000  0.4303700000000  0.4758510000000 1.0
C      1  0.4288000000000  0.5004730000000  0.5339430000000 1.0
C      1  0.5106480000000  0.4854050000000  0.5656450000000 1.0
C      1  0.5374950000000  0.5113260000000  0.4226040000000 1.0
C      1  0.4235350000000  0.4926940000000  0.4588740000000 1.0
C      1  0.5743700000000  0.5031430000000  0.4962340000000 1.0
C      1  0.4881960000000  0.4412190000000  0.5116350000000 1.0
C      1  0.5136890000000  0.5634540000000  0.4902210000000 1.0
C      1  0.4863190000000  0.5688910000000  0.4982750000000 1.0
C      1  0.4884790000000  0.4293670000000  0.4862240000000 1.0
END
