TITL C-3623285-6872-1681 -55874.8578946555 125000 -766.175298823534 0 0 124 (C1) n - 1
REM
REM in /home/nfs/bkarasulu/CARBON/AIRSS/Generating-Clusters/LCBOP/Higher-Symm/SD-CG/FIRE-CG
REM
REM
REM
REM
REM
REM ./C.cell (b20cbc046b6831c77cfcea5457e17084)
REM AIRSS Version 0.9.1 bugfix July 2018 build 013d7b7c2542+ Fri, 06 Jul 2018 19:26:36 +0100
REM compiler GCC version 9.2.1 20190827 (Red Hat 9.2.1-1)
REM options -cpp -mtune=generic -march=x86-64 -g -O0 -fpre-include=/usr/include/finclude/math-vector-fortran.h
REM seed 1840126099 -940662141 1145595939 1455253240 622762121 1505520844 1193915018 -1065873928 -336323758 -2069542613 1941136200 -1758802555 -878920719 1737118410 1022962414 -969454502 722773915 -40740588 -1604930958 -6265325 -1857603773 -1873779793 -568205542 -336114366 1637954731 -730926984 1913107015 -152978703 -803713922 538041387 -1786830628 -128910659 1277295091
REM
CELL 1.54180   50.00000   50.00000   50.00000   90.00000   90.00000   90.00000
LATT -1
SFAC C  
C      1  0.4655510000000  0.4126150000000  0.4919390000000 1.0
C      1  0.4727140000000  0.5711180000000  0.4498920000000 1.0
C      1  0.4732620000000  0.5149960000000  0.5893470000000 1.0
C      1  0.5276120000000  0.5817250000000  0.4687600000000 1.0
C      1  0.5296820000000  0.4524000000000  0.4336360000000 1.0
C      1  0.5281390000000  0.4936820000000  0.5865000000000 1.0
C      1  0.5053130000000  0.5884320000000  0.4857410000000 1.0
C      1  0.5052650000000  0.4760650000000  0.5864310000000 1.0
C      1  0.5165370000000  0.4541600000000  0.4083110000000 1.0
C      1  0.4820360000000  0.3951270000000  0.5079540000000 1.0
C      1  0.4954150000000  0.5336220000000  0.5869370000000 1.0
C      1  0.4952710000000  0.5621200000000  0.4345670000000 1.0
C      1  0.4313040000000  0.5108730000000  0.4746380000000 1.0
C      1  0.4349920000000  0.5098770000000  0.5247670000000 1.0
C      1  0.4253090000000  0.4658070000000  0.5003460000000 1.0
C      1  0.5705310000000  0.4854680000000  0.4714800000000 1.0
C      1  0.5986860000000  0.4870690000000  0.5262230000000 1.0
C      1  0.5763950000000  0.5263310000000  0.4995620000000 1.0
C      1  0.5338030000000  0.4701660000000  0.4945210000000 1.0
C      1  0.5308720000000  0.5141640000000  0.4782300000000 1.0
C      1  0.5390380000000  0.5044390000000  0.5241110000000 1.0
C      1  0.4739510000000  0.5193370000000  0.4968600000000 1.0
C      1  0.4621420000000  0.4775480000000  0.4767120000000 1.0
C      1  0.4702810000000  0.4770590000000  0.5239130000000 1.0
C      1  0.5796680000000  0.4617160000000  0.4858320000000 1.0
C      1  0.5848260000000  0.5316400000000  0.4732680000000 1.0
C      1  0.5904640000000  0.5102700000000  0.5411180000000 1.0
C      1  0.4205140000000  0.5340810000000  0.4866480000000 1.0
C      1  0.4182570000000  0.4647030000000  0.4711730000000 1.0
C      1  0.4196450000000  0.4920110000000  0.5408690000000 1.0
C      1  0.4218580000000  0.5336090000000  0.5158680000000 1.0
C      1  0.4140350000000  0.4668360000000  0.5269840000000 1.0
C      1  0.4197590000000  0.4913940000000  0.4567480000000 1.0
C      1  0.5846870000000  0.4647250000000  0.5147710000000 1.0
C      1  0.5871790000000  0.5345550000000  0.5245580000000 1.0
C      1  0.5846590000000  0.5067730000000  0.4577560000000 1.0
C      1  0.4722530000000  0.5664660000000  0.5538500000000 1.0
C      1  0.4669830000000  0.4201530000000  0.5479810000000 1.0
C      1  0.4740450000000  0.5181770000000  0.4157590000000 1.0
C      1  0.5250490000000  0.4400140000000  0.5559340000000 1.0
C      1  0.5286930000000  0.5792860000000  0.5310030000000 1.0
C      1  0.5323810000000  0.5004450000000  0.4073090000000 1.0
C      1  0.4162740000000  0.4401060000000  0.5373260000000 1.0
C      1  0.4270920000000  0.5046650000000  0.4312580000000 1.0
C      1  0.4258430000000  0.5513330000000  0.5385630000000 1.0
C      1  0.5768290000000  0.5616610000000  0.5269670000000 1.0
C      1  0.5825780000000  0.5012880000000  0.4299170000000 1.0
C      1  0.5682700000000  0.4523310000000  0.5346450000000 1.0
C      1  0.5459070000000  0.5497420000000  0.4145080000000 1.0
C      1  0.5458970000000  0.5547260000000  0.5742060000000 1.0
C      1  0.5374480000000  0.4066610000000  0.5115890000000 1.0
C      1  0.4627080000000  0.4619570000000  0.4112930000000 1.0
C      1  0.4555530000000  0.4505810000000  0.5897580000000 1.0
C      1  0.4555530000000  0.5917940000000  0.5098810000000 1.0
C      1  0.4994910000000  0.4357100000000  0.3953840000000 1.0
C      1  0.4801990000000  0.5922280000000  0.4702650000000 1.0
C      1  0.4817100000000  0.4882560000000  0.5990000000000 1.0
C      1  0.5194830000000  0.5781180000000  0.4401570000000 1.0
C      1  0.5013930000000  0.3766040000000  0.4988080000000 1.0
C      1  0.5211670000000  0.5216960000000  0.5961370000000 1.0
C      1  0.4310760000000  0.4956390000000  0.5681190000000 1.0
C      1  0.4322240000000  0.4394280000000  0.4630970000000 1.0
C      1  0.4320180000000  0.5575400000000  0.4741930000000 1.0
C      1  0.5699410000000  0.5074300000000  0.5617360000000 1.0
C      1  0.5704950000000  0.5554550000000  0.4634810000000 1.0
C      1  0.5655450000000  0.4398200000000  0.4707500000000 1.0
C      1  0.5313300000000  0.5222260000000  0.5436530000000 1.0
C      1  0.5240360000000  0.4442390000000  0.4911300000000 1.0
C      1  0.5367140000000  0.5282150000000  0.4539020000000 1.0
C      1  0.4589170000000  0.4666880000000  0.5480690000000 1.0
C      1  0.4660440000000  0.5473750000000  0.5011710000000 1.0
C      1  0.4743250000000  0.4649620000000  0.4550120000000 1.0
C      1  0.4434390000000  0.4695790000000  0.5716630000000 1.0
C      1  0.4556570000000  0.4517460000000  0.4385440000000 1.0
C      1  0.4473820000000  0.5679090000000  0.4966560000000 1.0
C      1  0.5526410000000  0.5309920000000  0.5598280000000 1.0
C      1  0.5556710000000  0.5444870000000  0.4409410000000 1.0
C      1  0.5452530000000  0.4250990000000  0.4890630000000 1.0
C      1  0.4614250000000  0.5067080000000  0.4740380000000 1.0
C      1  0.4654030000000  0.5061040000000  0.5224380000000 1.0
C      1  0.4561460000000  0.4629970000000  0.5008020000000 1.0
C      1  0.5394160000000  0.4860650000000  0.4706580000000 1.0
C      1  0.5240750000000  0.4822210000000  0.5182020000000 1.0
C      1  0.5498060000000  0.5173440000000  0.5013730000000 1.0
C      1  0.5253050000000  0.5292540000000  0.4082710000000 1.0
C      1  0.5242220000000  0.5693210000000  0.5600890000000 1.0
C      1  0.5194800000000  0.4174710000000  0.5358910000000 1.0
C      1  0.4798260000000  0.4890280000000  0.4073840000000 1.0
C      1  0.4754240000000  0.4354760000000  0.5731010000000 1.0
C      1  0.4769220000000  0.5852780000000  0.5295550000000 1.0
C      1  0.4964810000000  0.5592350000000  0.5696840000000 1.0
C      1  0.4896810000000  0.4082210000000  0.5335410000000 1.0
C      1  0.4971670000000  0.5373420000000  0.4173630000000 1.0
C      1  0.5028160000000  0.4492070000000  0.5731440000000 1.0
C      1  0.5042810000000  0.5871450000000  0.5161160000000 1.0
C      1  0.5097190000000  0.4823950000000  0.4029180000000 1.0
C      1  0.4990700000000  0.4693670000000  0.5217820000000 1.0
C      1  0.5210470000000  0.4741360000000  0.4506710000000 1.0
C      1  0.5102230000000  0.5426020000000  0.5087660000000 1.0
C      1  0.4835050000000  0.5198110000000  0.5413670000000 1.0
C      1  0.4854460000000  0.5087420000000  0.4556240000000 1.0
C      1  0.4749350000000  0.4392700000000  0.4962350000000 1.0
C      1  0.4364220000000  0.4223240000000  0.5289480000000 1.0
C      1  0.4480610000000  0.5264880000000  0.4288900000000 1.0
C      1  0.4476780000000  0.5480650000000  0.5581350000000 1.0
C      1  0.5534230000000  0.5734810000000  0.5134420000000 1.0
C      1  0.5617650000000  0.4851960000000  0.4201530000000 1.0
C      1  0.5492020000000  0.4578080000000  0.5554900000000 1.0
C      1  0.4627390000000  0.6078320000000  0.4870040000000 1.0
C      1  0.4654570000000  0.4678180000000  0.6103270000000 1.0
C      1  0.4727380000000  0.4410660000000  0.3942600000000 1.0
C      1  0.5280440000000  0.3810130000000  0.5026090000000 1.0
C      1  0.5396710000000  0.5433670000000  0.5999610000000 1.0
C      1  0.5368140000000  0.5768030000000  0.4174980000000 1.0
C      1  0.5518010000000  0.4844240000000  0.5703740000000 1.0
C      1  0.5571690000000  0.4531040000000  0.4378540000000 1.0
C      1  0.5527390000000  0.5724180000000  0.4820260000000 1.0
C      1  0.4481840000000  0.5207020000000  0.5741360000000 1.0
C      1  0.4483400000000  0.5541180000000  0.4492990000000 1.0
C      1  0.4378780000000  0.4172340000000  0.4921640000000 1.0
C      1  0.4999020000000  0.4453430000000  0.5051240000000 1.0
C      1  0.5073760000000  0.5332180000000  0.5353490000000 1.0
C      1  0.4952370000000  0.4836440000000  0.4493200000000 1.0
C      1  0.5038960000000  0.5227460000000  0.4880630000000 1.0
END
