TITL C-3623289-7120-495 -1.26118037319111e-06 125000 -911.732131722627 0 0 140 (C1) n - 1
REM
REM in /home/nfs/bkarasulu/CARBON/AIRSS/Generating-Clusters/LCBOP/Higher-Symm/SD-CG/FIRE-CG
REM
REM
REM
REM
REM
REM ./C.cell (b20cbc046b6831c77cfcea5457e17084)
REM AIRSS Version 0.9.1 bugfix July 2018 build 013d7b7c2542+ Fri, 06 Jul 2018 19:26:36 +0100
REM compiler GCC version 9.2.1 20190827 (Red Hat 9.2.1-1)
REM options -cpp -mtune=generic -march=x86-64 -g -O0 -fpre-include=/usr/include/finclude/math-vector-fortran.h
REM seed -1621702336 -2084223578 1504811091 -43572530 -204919437 673754711 -351951265 -267166700 858709694 2022173166 -234556303 670341141 -1150801155 435997060 -1766368335 -885154172 622857139 -1744464394 -595680685 1799985587 -2082538438 1709990322 1481533544 -462435123 1410149507 -1840078918 -580668260 916079487 -1034575970 -1387355390 -2131045201 1562092794 603233990
REM
CELL 1.54180   50.00000   50.00000   50.00000   90.00000   90.00000   90.00000
LATT -1
SFAC C  
C      1  0.5287960000000  0.5254790000000  0.6026620000000 1.0
C      1  0.5348360000000  0.6190850000000  0.5257430000000 1.0
C      1  0.6088540000000  0.5326530000000  0.5401440000000 1.0
C      1  0.4703760000000  0.4679640000000  0.6019020000000 1.0
C      1  0.5289070000000  0.4613350000000  0.3899870000000 1.0
C      1  0.4708900000000  0.5158490000000  0.3984140000000 1.0
C      1  0.4689860000000  0.3871880000000  0.5232580000000 1.0
C      1  0.5278500000000  0.3925410000000  0.4652110000000 1.0
C      1  0.4801700000000  0.6057370000000  0.4688690000000 1.0
C      1  0.3868000000000  0.4719550000000  0.5397160000000 1.0
C      1  0.6057360000000  0.4740780000000  0.4800170000000 1.0
C      1  0.3945480000000  0.5301040000000  0.4849820000000 1.0
C      1  0.5281660000000  0.5186710000000  0.3981470000000 1.0
C      1  0.5343790000000  0.6172720000000  0.4668330000000 1.0
C      1  0.6033830000000  0.5305600000000  0.4857200000000 1.0
C      1  0.4701250000000  0.4611360000000  0.3900320000000 1.0
C      1  0.5293000000000  0.4671700000000  0.6015280000000 1.0
C      1  0.4700760000000  0.5233720000000  0.6031670000000 1.0
C      1  0.4734850000000  0.3917520000000  0.4653040000000 1.0
C      1  0.5324800000000  0.3883110000000  0.5231860000000 1.0
C      1  0.4788330000000  0.6071740000000  0.5260610000000 1.0
C      1  0.3934250000000  0.4726800000000  0.4826560000000 1.0
C      1  0.6102400000000  0.4744750000000  0.5426580000000 1.0
C      1  0.3882320000000  0.5307000000000  0.5400470000000 1.0
C      1  0.4968340000000  0.5945040000000  0.4484770000000 1.0
C      1  0.5968030000000  0.4543920000000  0.4983980000000 1.0
C      1  0.4460070000000  0.4819790000000  0.5975600000000 1.0
C      1  0.5141710000000  0.3977300000000  0.4409390000000 1.0
C      1  0.4872220000000  0.3893660000000  0.5446460000000 1.0
C      1  0.5203040000000  0.6130100000000  0.5491410000000 1.0
C      1  0.4051610000000  0.5516460000000  0.5004800000000 1.0
C      1  0.6044370000000  0.5565600000000  0.5259330000000 1.0
C      1  0.3905600000000  0.4487040000000  0.5241670000000 1.0
C      1  0.5519090000000  0.5102220000000  0.5970380000000 1.0
C      1  0.4491320000000  0.5001430000000  0.4083530000000 1.0
C      1  0.5518070000000  0.4769650000000  0.3953160000000 1.0
C      1  0.4965340000000  0.5979110000000  0.5463550000000 1.0
C      1  0.6088060000000  0.4534210000000  0.5239920000000 1.0
C      1  0.4460000000000  0.4747360000000  0.3958960000000 1.0
C      1  0.5142300000000  0.3898730000000  0.5446140000000 1.0
C      1  0.4869240000000  0.3973550000000  0.4409910000000 1.0
C      1  0.5207680000000  0.6089090000000  0.4434960000000 1.0
C      1  0.3937760000000  0.5548420000000  0.5263710000000 1.0
C      1  0.5928370000000  0.5524880000000  0.5004010000000 1.0
C      1  0.4026510000000  0.4510880000000  0.4986370000000 1.0
C      1  0.5488760000000  0.5020760000000  0.4081180000000 1.0
C      1  0.4459260000000  0.5092920000000  0.5980550000000 1.0
C      1  0.5522190000000  0.4830750000000  0.5968170000000 1.0
C      1  0.4858830000000  0.4757450000000  0.3713810000000 1.0
C      1  0.4865350000000  0.3709880000000  0.4810600000000 1.0
C      1  0.3712010000000  0.4874310000000  0.4914400000000 1.0
C      1  0.5138430000000  0.5102470000000  0.3754980000000 1.0
C      1  0.4863610000000  0.5101090000000  0.6225730000000 1.0
C      1  0.5139890000000  0.4752780000000  0.6235870000000 1.0
C      1  0.5189560000000  0.6356120000000  0.4822600000000 1.0
C      1  0.4853240000000  0.6301130000000  0.5112030000000 1.0
C      1  0.5288360000000  0.3662170000000  0.5054890000000 1.0
C      1  0.6249640000000  0.5149510000000  0.4980480000000 1.0
C      1  0.3687340000000  0.5154100000000  0.5260440000000 1.0
C      1  0.6329070000000  0.4915130000000  0.5404920000000 1.0
C      1  0.4865340000000  0.4804310000000  0.6219840000000 1.0
C      1  0.4733630000000  0.3652770000000  0.5055060000000 1.0
C      1  0.3656640000000  0.4881220000000  0.5313610000000 1.0
C      1  0.5137170000000  0.5156250000000  0.6242620000000 1.0
C      1  0.4860960000000  0.5050490000000  0.3765790000000 1.0
C      1  0.5132670000000  0.4705180000000  0.3687790000000 1.0
C      1  0.5244210000000  0.6393300000000  0.5096480000000 1.0
C      1  0.4899530000000  0.6286430000000  0.4832240000000 1.0
C      1  0.5154680000000  0.3714260000000  0.4810340000000 1.0
C      1  0.6283740000000  0.5159860000000  0.5269330000000 1.0
C      1  0.3729210000000  0.5151440000000  0.4965620000000 1.0
C      1  0.6288260000000  0.4895440000000  0.4858270000000 1.0
C      1  0.4433850000000  0.4345630000000  0.4722080000000 1.0
C      1  0.4336980000000  0.4777530000000  0.4500660000000 1.0
C      1  0.4751290000000  0.4527530000000  0.4401750000000 1.0
C      1  0.5539820000000  0.5694600000000  0.4734700000000 1.0
C      1  0.4475140000000  0.5662310000000  0.5217430000000 1.0
C      1  0.5557540000000  0.4352400000000  0.5194850000000 1.0
C      1  0.5639660000000  0.5275360000000  0.4500810000000 1.0
C      1  0.4387380000000  0.5247090000000  0.5460210000000 1.0
C      1  0.5591280000000  0.4788210000000  0.5426530000000 1.0
C      1  0.5224830000000  0.5522860000000  0.4379760000000 1.0
C      1  0.4740970000000  0.5549550000000  0.5617040000000 1.0
C      1  0.5233760000000  0.4486010000000  0.5535760000000 1.0
C      1  0.4438370000000  0.4331210000000  0.5197520000000 1.0
C      1  0.4375990000000  0.4760970000000  0.5436730000000 1.0
C      1  0.4750450000000  0.4477950000000  0.5543290000000 1.0
C      1  0.5518660000000  0.5701490000000  0.5214560000000 1.0
C      1  0.4462400000000  0.5663880000000  0.4739910000000 1.0
C      1  0.5564930000000  0.4363260000000  0.4720220000000 1.0
C      1  0.5578020000000  0.5274910000000  0.5446420000000 1.0
C      1  0.4333990000000  0.5257420000000  0.4497000000000 1.0
C      1  0.5643230000000  0.4794570000000  0.4493470000000 1.0
C      1  0.5219710000000  0.5565660000000  0.5603730000000 1.0
C      1  0.4741540000000  0.5508960000000  0.4367810000000 1.0
C      1  0.5236990000000  0.4533890000000  0.4402480000000 1.0
C      1  0.5144700000000  0.4512710000000  0.4125430000000 1.0
C      1  0.4578910000000  0.4097080000000  0.5100860000000 1.0
C      1  0.4116640000000  0.5164480000000  0.4669220000000 1.0
C      1  0.4843340000000  0.5336670000000  0.4158340000000 1.0
C      1  0.5138950000000  0.5399570000000  0.5832250000000 1.0
C      1  0.4845760000000  0.4546980000000  0.5810680000000 1.0
C      1  0.5455680000000  0.5968890000000  0.5117040000000 1.0
C      1  0.4627560000000  0.5885360000000  0.4828760000000 1.0
C      1  0.5422300000000  0.4120740000000  0.4800390000000 1.0
C      1  0.5863660000000  0.4884030000000  0.4653980000000 1.0
C      1  0.4103560000000  0.4858320000000  0.5482060000000 1.0
C      1  0.5855550000000  0.5183560000000  0.5490450000000 1.0
C      1  0.5145320000000  0.4548540000000  0.5805590000000 1.0
C      1  0.4585100000000  0.4108020000000  0.4801760000000 1.0
C      1  0.4108690000000  0.5156920000000  0.5493120000000 1.0
C      1  0.4840100000000  0.5390330000000  0.5839900000000 1.0
C      1  0.5137600000000  0.5347800000000  0.4163260000000 1.0
C      1  0.4846580000000  0.4507830000000  0.4124260000000 1.0
C      1  0.5465570000000  0.5965180000000  0.4819420000000 1.0
C      1  0.4630780000000  0.5884580000000  0.5122440000000 1.0
C      1  0.5427520000000  0.4111740000000  0.5099400000000 1.0
C      1  0.5859510000000  0.4884350000000  0.5485530000000 1.0
C      1  0.4118050000000  0.4869420000000  0.4666240000000 1.0
C      1  0.5862050000000  0.5178070000000  0.4668930000000 1.0
C      1  0.4535070000000  0.5002400000000  0.5414340000000 1.0
C      1  0.5563890000000  0.5036850000000  0.4349600000000 1.0
C      1  0.4975430000000  0.5667830000000  0.4443980000000 1.0
C      1  0.5708350000000  0.4442120000000  0.4960990000000 1.0
C      1  0.4993950000000  0.4549170000000  0.4558940000000 1.0
C      1  0.4990990000000  0.4437030000000  0.5388320000000 1.0
C      1  0.4972050000000  0.5708380000000  0.5535800000000 1.0
C      1  0.4319750000000  0.5587380000000  0.4980760000000 1.0
C      1  0.5658000000000  0.5591110000000  0.4979940000000 1.0
C      1  0.4288010000000  0.4417790000000  0.4962190000000 1.0
C      1  0.5432280000000  0.5028670000000  0.5395590000000 1.0
C      1  0.4411600000000  0.5018560000000  0.4350410000000 1.0
C      1  0.5492410000000  0.4555090000000  0.4522550000000 1.0
C      1  0.4502900000000  0.4508940000000  0.5409670000000 1.0
C      1  0.4502980000000  0.5485990000000  0.4522250000000 1.0
C      1  0.5446430000000  0.5528800000000  0.5432100000000 1.0
C      1  0.5477410000000  0.4530570000000  0.5400580000000 1.0
C      1  0.4520050000000  0.5497530000000  0.5444430000000 1.0
C      1  0.5471940000000  0.5509040000000  0.4527030000000 1.0
C      1  0.4496020000000  0.4541560000000  0.4524870000000 1.0
END
