TITL C-3623284-6838-907 6312.15934488784 125000 -905.589953689687 0 0 146 (C1) n - 1
REM
REM in /home/nfs/bkarasulu/CARBON/AIRSS/Generating-Clusters/LCBOP/Higher-Symm/SD-CG/FIRE-CG
REM
REM
REM
REM
REM
REM ./C.cell (b20cbc046b6831c77cfcea5457e17084)
REM AIRSS Version 0.9.1 bugfix July 2018 build 013d7b7c2542+ Fri, 06 Jul 2018 19:26:36 +0100
REM compiler GCC version 9.2.1 20190827 (Red Hat 9.2.1-1)
REM options -cpp -mtune=generic -march=x86-64 -g -O0 -fpre-include=/usr/include/finclude/math-vector-fortran.h
REM seed -1568487591 -1102082205 1362586906 -1799625056 1608243968 -960939317 -312436993 1511204115 -1957306507 284623856 -608018734 251545617 -1582036328 1877983855 468201531 -1660208560 158569550 -940800677 2046668301 -900740100 57918288 -1709972956 -843836615 -1060470238 1195683095 -665309515 524734397 -2061085339 -331773760 -5490053 982952923 1404259165 -1501134310
REM
CELL 1.54180   50.00000   50.00000   50.00000   90.00000   90.00000   90.00000
LATT -1
SFAC C  
C      1  0.3676560000000  0.4973620000000  0.6125260000000 1.0
C      1  0.6538960000000  0.4703980000000  0.5130460000000 1.0
C      1  0.4741280000000  0.5378640000000  0.4127210000000 1.0
C      1  0.4477170000000  0.5265890000000  0.4511310000000 1.0
C      1  0.4690030000000  0.5391800000000  0.5675880000000 1.0
C      1  0.5767080000000  0.5349330000000  0.4865700000000 1.0
C      1  0.5213850000000  0.4061950000000  0.5489760000000 1.0
C      1  0.5134750000000  0.3910560000000  0.4634700000000 1.0
C      1  0.4394250000000  0.3920170000000  0.4613430000000 1.0
C      1  0.5093060000000  0.5153750000000  0.5807640000000 1.0
C      1  0.5646810000000  0.4939650000000  0.4569270000000 1.0
C      1  0.4383540000000  0.4959500000000  0.4869060000000 1.0
C      1  0.5552820000000  0.4951180000000  0.5039570000000 1.0
C      1  0.4760790000000  0.5265310000000  0.4933090000000 1.0
C      1  0.4837930000000  0.5109980000000  0.5269140000000 1.0
C      1  0.5711950000000  0.4284480000000  0.4511540000000 1.0
C      1  0.3767400000000  0.4100500000000  0.4754890000000 1.0
C      1  0.5298320000000  0.4478740000000  0.6050420000000 1.0
C      1  0.3881030000000  0.4544720000000  0.4930220000000 1.0
C      1  0.5558500000000  0.4868910000000  0.5907650000000 1.0
C      1  0.5620260000000  0.4608060000000  0.4131250000000 1.0
C      1  0.3964360000000  0.4454540000000  0.5183220000000 1.0
C      1  0.5732970000000  0.4717060000000  0.5750100000000 1.0
C      1  0.5398580000000  0.4464960000000  0.4034660000000 1.0
C      1  0.5077960000000  0.4916230000000  0.5970100000000 1.0
C      1  0.5866890000000  0.4739700000000  0.4515120000000 1.0
C      1  0.3862810000000  0.4460350000000  0.4449420000000 1.0
C      1  0.5284550000000  0.4070440000000  0.5746570000000 1.0
C      1  0.5400920000000  0.3920440000000  0.4584590000000 1.0
C      1  0.4157590000000  0.3810010000000  0.4664490000000 1.0
C      1  0.4572310000000  0.4117180000000  0.4616100000000 1.0
C      1  0.5084730000000  0.4207150000000  0.5286330000000 1.0
C      1  0.5016730000000  0.4110840000000  0.4798220000000 1.0
C      1  0.5377180000000  0.5668270000000  0.4978550000000 1.0
C      1  0.4743370000000  0.5636440000000  0.4593050000000 1.0
C      1  0.4720050000000  0.5664820000000  0.5278830000000 1.0
C      1  0.5130780000000  0.4459960000000  0.4053270000000 1.0
C      1  0.4101770000000  0.4514970000000  0.5403950000000 1.0
C      1  0.5797520000000  0.4562020000000  0.5543570000000 1.0
C      1  0.4836910000000  0.4839840000000  0.3987380000000 1.0
C      1  0.4098230000000  0.4827080000000  0.5772600000000 1.0
C      1  0.6237500000000  0.4256670000000  0.5038400000000 1.0
C      1  0.4821980000000  0.4542810000000  0.4671120000000 1.0
C      1  0.4707170000000  0.4544510000000  0.5495410000000 1.0
C      1  0.5467820000000  0.4223730000000  0.4952710000000 1.0
C      1  0.4072190000000  0.5576360000000  0.5426880000000 1.0
C      1  0.5715100000000  0.5800300000000  0.5437450000000 1.0
C      1  0.4719320000000  0.6315280000000  0.4304330000000 1.0
C      1  0.4685370000000  0.6109640000000  0.4460930000000 1.0
C      1  0.4185840000000  0.5777120000000  0.5568550000000 1.0
C      1  0.5829370000000  0.5926240000000  0.5228360000000 1.0
C      1  0.4339200000000  0.4760900000000  0.3937610000000 1.0
C      1  0.4374520000000  0.4730970000000  0.6181820000000 1.0
C      1  0.6589180000000  0.4985450000000  0.4511570000000 1.0
C      1  0.4566380000000  0.4930830000000  0.3958250000000 1.0
C      1  0.4125710000000  0.4779900000000  0.6057000000000 1.0
C      1  0.6111690000000  0.4466160000000  0.5187270000000 1.0
C      1  0.3669520000000  0.5056690000000  0.5866000000000 1.0
C      1  0.6646140000000  0.4494750000000  0.4991010000000 1.0
C      1  0.5015800000000  0.5301340000000  0.4070470000000 1.0
C      1  0.4870400000000  0.4370530000000  0.5372950000000 1.0
C      1  0.5183910000000  0.4192860000000  0.5018370000000 1.0
C      1  0.4798580000000  0.4260130000000  0.4694310000000 1.0
C      1  0.5509250000000  0.5088290000000  0.5286830000000 1.0
C      1  0.5137520000000  0.4868090000000  0.4513090000000 1.0
C      1  0.4566670000000  0.4980070000000  0.5303470000000 1.0
C      1  0.4928840000000  0.4628160000000  0.4158280000000 1.0
C      1  0.4243720000000  0.4693940000000  0.5570200000000 1.0
C      1  0.5850290000000  0.4449750000000  0.5291850000000 1.0
C      1  0.4508560000000  0.5198530000000  0.6110830000000 1.0
C      1  0.6234940000000  0.5272840000000  0.4683420000000 1.0
C      1  0.4093520000000  0.5039600000000  0.4245470000000 1.0
C      1  0.4592360000000  0.5879770000000  0.4587080000000 1.0
C      1  0.4398420000000  0.5903850000000  0.5676470000000 1.0
C      1  0.5868400000000  0.5950990000000  0.4963490000000 1.0
C      1  0.5099400000000  0.5144060000000  0.4495590000000 1.0
C      1  0.4402550000000  0.5249200000000  0.5334590000000 1.0
C      1  0.5562160000000  0.5369380000000  0.5296520000000 1.0
C      1  0.5056480000000  0.4931340000000  0.5256780000000 1.0
C      1  0.5343670000000  0.4776840000000  0.4925450000000 1.0
C      1  0.4814400000000  0.4693990000000  0.4918270000000 1.0
C      1  0.4900530000000  0.5224410000000  0.5619050000000 1.0
C      1  0.5694540000000  0.5080420000000  0.4827710000000 1.0
C      1  0.4549580000000  0.5161680000000  0.4762870000000 1.0
C      1  0.5556590000000  0.5573090000000  0.5499390000000 1.0
C      1  0.5194840000000  0.5313070000000  0.4290270000000 1.0
C      1  0.4142440000000  0.5344470000000  0.5275720000000 1.0
C      1  0.4418730000000  0.4501100000000  0.6322890000000 1.0
C      1  0.6838500000000  0.4943710000000  0.4448160000000 1.0
C      1  0.4320240000000  0.4578670000000  0.3734320000000 1.0
C      1  0.5025240000000  0.5051160000000  0.3926840000000 1.0
C      1  0.3875220000000  0.4991070000000  0.5700350000000 1.0
C      1  0.6493870000000  0.4272430000000  0.4945210000000 1.0
C      1  0.4514350000000  0.4754390000000  0.5499500000000 1.0
C      1  0.5648860000000  0.4327470000000  0.5139770000000 1.0
C      1  0.4940900000000  0.4674190000000  0.4442940000000 1.0
C      1  0.5377150000000  0.4796720000000  0.4640660000000 1.0
C      1  0.4564440000000  0.4809780000000  0.5033180000000 1.0
C      1  0.5284770000000  0.4978650000000  0.5411390000000 1.0
C      1  0.5592020000000  0.5595270000000  0.4367470000000 1.0
C      1  0.3997920000000  0.5499950000000  0.4846510000000 1.0
C      1  0.5159500000000  0.5760410000000  0.5741980000000 1.0
C      1  0.4110480000000  0.5719940000000  0.4744940000000 1.0
C      1  0.4921750000000  0.5885710000000  0.5758940000000 1.0
C      1  0.5618310000000  0.5842440000000  0.4505050000000 1.0
C      1  0.5811600000000  0.5896400000000  0.4706210000000 1.0
C      1  0.4324870000000  0.5861800000000  0.4674080000000 1.0
C      1  0.4658110000000  0.5939690000000  0.5740760000000 1.0
C      1  0.5147890000000  0.5830690000000  0.5015030000000 1.0
C      1  0.4831860000000  0.5526800000000  0.4849210000000 1.0
C      1  0.4900250000000  0.5699180000000  0.5062380000000 1.0
C      1  0.4575490000000  0.4928700000000  0.6154760000000 1.0
C      1  0.6322610000000  0.5025320000000  0.4582110000000 1.0
C      1  0.4129390000000  0.4786900000000  0.4129570000000 1.0
C      1  0.4560280000000  0.5381550000000  0.5922710000000 1.0
C      1  0.6029590000000  0.5408620000000  0.4788640000000 1.0
C      1  0.4231670000000  0.5212880000000  0.4391650000000 1.0
C      1  0.5558220000000  0.5152360000000  0.5910730000000 1.0
C      1  0.5629870000000  0.4895130000000  0.4091870000000 1.0
C      1  0.3917710000000  0.4819070000000  0.4883980000000 1.0
C      1  0.3987140000000  0.4574570000000  0.4243590000000 1.0
C      1  0.4842760000000  0.4859340000000  0.6109100000000 1.0
C      1  0.6132230000000  0.4820350000000  0.4550760000000 1.0
C      1  0.4551830000000  0.5217620000000  0.3979140000000 1.0
C      1  0.3893250000000  0.4834510000000  0.6213510000000 1.0
C      1  0.6282300000000  0.4693180000000  0.5223500000000 1.0
C      1  0.3906110000000  0.3873410000000  0.4728540000000 1.0
C      1  0.5303420000000  0.4228420000000  0.5960200000000 1.0
C      1  0.5555390000000  0.4134560000000  0.4689800000000 1.0
C      1  0.4575200000000  0.5469380000000  0.5429800000000 1.0
C      1  0.5581680000000  0.5484930000000  0.5032860000000 1.0
C      1  0.4664050000000  0.5445690000000  0.4394440000000 1.0
C      1  0.5334280000000  0.5307970000000  0.5831910000000 1.0
C      1  0.5615040000000  0.5090260000000  0.4304700000000 1.0
C      1  0.4108340000000  0.5019690000000  0.4914010000000 1.0
C      1  0.5479220000000  0.5344870000000  0.4297270000000 1.0
C      1  0.4045800000000  0.5280780000000  0.5015860000000 1.0
C      1  0.5357750000000  0.5560960000000  0.5703750000000 1.0
C      1  0.3817200000000  0.4373430000000  0.4713090000000 1.0
C      1  0.5310770000000  0.4751530000000  0.5992680000000 1.0
C      1  0.5764460000000  0.4518580000000  0.4366190000000 1.0
C      1  0.5226630000000  0.6468570000000  0.4606690000000 1.0
C      1  0.5158140000000  0.6084260000000  0.4894410000000 1.0
C      1  0.5412710000000  0.6035780000000  0.4491480000000 1.0
C      1  0.5075590000000  0.4768260000000  0.5030310000000 1.0
C      1  0.5259710000000  0.6203060000000  0.4659710000000 1.0
END
