TITL C-3623289-7120-49 -1.03865149559214e-06 125000 -847.12249276543 0 0 150 (Oh) n - 1
REM
REM in /home/nfs/bkarasulu/CARBON/AIRSS/Generating-Clusters/LCBOP/Higher-Symm/SD-CG/FIRE-CG
REM
REM
REM
REM
REM
REM ./C.cell (b20cbc046b6831c77cfcea5457e17084)
REM AIRSS Version 0.9.1 bugfix July 2018 build 013d7b7c2542+ Fri, 06 Jul 2018 19:26:36 +0100
REM compiler GCC version 9.2.1 20190827 (Red Hat 9.2.1-1)
REM options -cpp -mtune=generic -march=x86-64 -g -O0 -fpre-include=/usr/include/finclude/math-vector-fortran.h
REM seed 2143203429 1915187226 -968249061 -1249797528 1774135352 440070645 1936357335 -301320124 308973183 -1627780172 -2017911926 1838167208 -177114303 1368864358 -117134392 694418114 -1084467657 -989135379 -1860290996 -1818491509 427637326 -1703574904 1600244899 -939822312 -507831426 805312922 -929431535 -1746360050 1894488969 -1933114327 849126987 -183971243 -254987823
REM
CELL 1.54180   50.00000   50.00000   50.00000   90.00000   90.00000   90.00000
LATT -1
SFAC C  
C      1  0.5965770000000  0.4747250000000  0.5248200000000 1.0
C      1  0.4750810000000  0.5248170000000  0.5963870000000 1.0
C      1  0.5250440000000  0.5963750000000  0.4748060000000 1.0
C      1  0.5966050000000  0.5246970000000  0.4748180000000 1.0
C      1  0.4035000000000  0.4746720000000  0.4748260000000 1.0
C      1  0.4034250000000  0.5245340000000  0.5248260000000 1.0
C      1  0.4751220000000  0.4748220000000  0.4031210000000 1.0
C      1  0.5250710000000  0.5246760000000  0.4031000000000 1.0
C      1  0.5250120000000  0.4747530000000  0.5964610000000 1.0
C      1  0.5249690000000  0.4030430000000  0.5247880000000 1.0
C      1  0.4751610000000  0.5963270000000  0.5247720000000 1.0
C      1  0.4751210000000  0.4029720000000  0.4748000000000 1.0
C      1  0.4034720000000  0.4745910000000  0.5248170000000 1.0
C      1  0.5249770000000  0.5247100000000  0.5964240000000 1.0
C      1  0.4750790000000  0.5962690000000  0.4748130000000 1.0
C      1  0.4034440000000  0.5246330000000  0.4749280000000 1.0
C      1  0.5966110000000  0.4747060000000  0.4748300000000 1.0
C      1  0.5965570000000  0.5246760000000  0.5247690000000 1.0
C      1  0.5250400000000  0.4747290000000  0.4030930000000 1.0
C      1  0.4751830000000  0.5247790000000  0.4031160000000 1.0
C      1  0.4750970000000  0.4748240000000  0.5964630000000 1.0
C      1  0.4751330000000  0.4029940000000  0.5248040000000 1.0
C      1  0.5250700000000  0.5963730000000  0.5247320000000 1.0
C      1  0.5250260000000  0.4030030000000  0.4748030000000 1.0
C      1  0.5155780000000  0.5415350000000  0.4579650000000 1.0
C      1  0.5418620000000  0.4578200000000  0.5152860000000 1.0
C      1  0.4581640000000  0.5151720000000  0.5416630000000 1.0
C      1  0.5155030000000  0.4579060000000  0.5416220000000 1.0
C      1  0.4845860000000  0.5415940000000  0.5416220000000 1.0
C      1  0.4845530000000  0.4578580000000  0.4579700000000 1.0
C      1  0.5418650000000  0.5415990000000  0.4842690000000 1.0
C      1  0.4582330000000  0.4577300000000  0.4842790000000 1.0
C      1  0.4583010000000  0.5414650000000  0.5153160000000 1.0
C      1  0.4582530000000  0.4841950000000  0.4578880000000 1.0
C      1  0.5419000000000  0.5151850000000  0.4578770000000 1.0
C      1  0.5418340000000  0.4841980000000  0.5416780000000 1.0
C      1  0.4845940000000  0.5415530000000  0.4578920000000 1.0
C      1  0.4582090000000  0.4577160000000  0.5152970000000 1.0
C      1  0.5418300000000  0.5151890000000  0.5416740000000 1.0
C      1  0.4845330000000  0.4579070000000  0.5416060000000 1.0
C      1  0.5155560000000  0.5415130000000  0.5415710000000 1.0
C      1  0.5155340000000  0.4578460000000  0.4579400000000 1.0
C      1  0.4582180000000  0.5415070000000  0.4843260000000 1.0
C      1  0.5418800000000  0.4578120000000  0.4842750000000 1.0
C      1  0.5418530000000  0.5416160000000  0.5152570000000 1.0
C      1  0.5418910000000  0.4841760000000  0.4579020000000 1.0
C      1  0.4582890000000  0.5152000000000  0.4579900000000 1.0
C      1  0.4582320000000  0.4841710000000  0.5417340000000 1.0
C      1  0.5638290000000  0.4747930000000  0.5637020000000 1.0
C      1  0.4751900000000  0.5636220000000  0.5635900000000 1.0
C      1  0.5638730000000  0.5636020000000  0.4748510000000 1.0
C      1  0.5638740000000  0.5246530000000  0.4358520000000 1.0
C      1  0.4362580000000  0.4748150000000  0.4358660000000 1.0
C      1  0.4361250000000  0.5246530000000  0.5636100000000 1.0
C      1  0.4750400000000  0.4358990000000  0.4359670000000 1.0
C      1  0.5251590000000  0.5634900000000  0.4359710000000 1.0
C      1  0.5250530000000  0.4359120000000  0.5635710000000 1.0
C      1  0.5638120000000  0.4357810000000  0.5247770000000 1.0
C      1  0.4362900000000  0.5634110000000  0.5248900000000 1.0
C      1  0.4362450000000  0.4357160000000  0.4748330000000 1.0
C      1  0.4362320000000  0.4747420000000  0.5637370000000 1.0
C      1  0.5251270000000  0.5634930000000  0.5635440000000 1.0
C      1  0.4361590000000  0.5634600000000  0.4749430000000 1.0
C      1  0.4362970000000  0.5248000000000  0.4360340000000 1.0
C      1  0.5638660000000  0.4747470000000  0.4358630000000 1.0
C      1  0.5638190000000  0.5246630000000  0.5636740000000 1.0
C      1  0.5250980000000  0.4358880000000  0.4359610000000 1.0
C      1  0.4751830000000  0.5635230000000  0.4358680000000 1.0
C      1  0.4750420000000  0.4359060000000  0.5635790000000 1.0
C      1  0.4362380000000  0.4356980000000  0.5247840000000 1.0
C      1  0.5638570000000  0.5636050000000  0.5247180000000 1.0
C      1  0.5638520000000  0.4357600000000  0.4748680000000 1.0
C      1  0.5746890000000  0.4498250000000  0.5747820000000 1.0
C      1  0.4502150000000  0.5747080000000  0.5744280000000 1.0
C      1  0.5747570000000  0.5746690000000  0.4498850000000 1.0
C      1  0.5747030000000  0.5496470000000  0.4247890000000 1.0
C      1  0.4254570000000  0.4498250000000  0.4247880000000 1.0
C      1  0.4250310000000  0.5496700000000  0.5743540000000 1.0
C      1  0.4497740000000  0.4252250000000  0.4252710000000 1.0
C      1  0.5504170000000  0.5741970000000  0.4252700000000 1.0
C      1  0.5503030000000  0.4251810000000  0.5742670000000 1.0
C      1  0.5746090000000  0.4247240000000  0.5497890000000 1.0
C      1  0.4255560000000  0.5741480000000  0.5501230000000 1.0
C      1  0.4254540000000  0.4247140000000  0.4498070000000 1.0
C      1  0.4254460000000  0.4497520000000  0.5748340000000 1.0
C      1  0.5503690000000  0.5741990000000  0.5742890000000 1.0
C      1  0.4250680000000  0.5742740000000  0.4499580000000 1.0
C      1  0.4255630000000  0.5500650000000  0.4253830000000 1.0
C      1  0.5746850000000  0.4497500000000  0.4248090000000 1.0
C      1  0.5746900000000  0.5496390000000  0.5747410000000 1.0
C      1  0.5503710000000  0.4252110000000  0.4252750000000 1.0
C      1  0.4501740000000  0.5743180000000  0.4248240000000 1.0
C      1  0.4498120000000  0.4251600000000  0.5743000000000 1.0
C      1  0.4254500000000  0.4246800000000  0.5498100000000 1.0
C      1  0.5747240000000  0.5746750000000  0.5496930000000 1.0
C      1  0.5746850000000  0.4246950000000  0.4498840000000 1.0
C      1  0.4506580000000  0.5881710000000  0.4856830000000 1.0
C      1  0.5885730000000  0.4855230000000  0.4503790000000 1.0
C      1  0.4858670000000  0.4503540000000  0.5883170000000 1.0
C      1  0.4507510000000  0.4110340000000  0.5139760000000 1.0
C      1  0.5493220000000  0.5882790000000  0.5139050000000 1.0
C      1  0.5492860000000  0.4111210000000  0.4856930000000 1.0
C      1  0.5885070000000  0.5138890000000  0.5491000000000 1.0
C      1  0.4115470000000  0.4854230000000  0.5491300000000 1.0
C      1  0.4115580000000  0.5139290000000  0.4504730000000 1.0
C      1  0.4860790000000  0.5490330000000  0.4112230000000 1.0
C      1  0.5142550000000  0.4503090000000  0.4112220000000 1.0
C      1  0.5142600000000  0.5490340000000  0.5882840000000 1.0
C      1  0.5493180000000  0.5882660000000  0.4856490000000 1.0
C      1  0.4115720000000  0.4855570000000  0.4504020000000 1.0
C      1  0.5142370000000  0.4503320000000  0.5883280000000 1.0
C      1  0.5492500000000  0.4111310000000  0.5139630000000 1.0
C      1  0.4507150000000  0.5881780000000  0.5140560000000 1.0
C      1  0.4507390000000  0.4110440000000  0.4856600000000 1.0
C      1  0.4114820000000  0.5137110000000  0.5491050000000 1.0
C      1  0.5885120000000  0.4855720000000  0.5491330000000 1.0
C      1  0.5885810000000  0.5138970000000  0.4503810000000 1.0
C      1  0.5143580000000  0.5489910000000  0.4112430000000 1.0
C      1  0.4858850000000  0.4503450000000  0.4112460000000 1.0
C      1  0.4859560000000  0.5490970000000  0.5882790000000 1.0
C      1  0.4506680000000  0.5140140000000  0.5883420000000 1.0
C      1  0.5143010000000  0.5882520000000  0.4503780000000 1.0
C      1  0.5885400000000  0.4502860000000  0.5140320000000 1.0
C      1  0.4507290000000  0.4857140000000  0.4112190000000 1.0
C      1  0.5493230000000  0.5138320000000  0.4111970000000 1.0
C      1  0.5492740000000  0.4856150000000  0.5883540000000 1.0
C      1  0.5142080000000  0.4111960000000  0.5490940000000 1.0
C      1  0.4860580000000  0.5882540000000  0.5490560000000 1.0
C      1  0.4858960000000  0.4111450000000  0.4503580000000 1.0
C      1  0.5885460000000  0.5490200000000  0.4856450000000 1.0
C      1  0.4115460000000  0.4502100000000  0.4856270000000 1.0
C      1  0.4115680000000  0.5488600000000  0.5141120000000 1.0
C      1  0.5492540000000  0.5138790000000  0.5883420000000 1.0
C      1  0.4859310000000  0.5882210000000  0.4503660000000 1.0
C      1  0.4115250000000  0.4501800000000  0.5140000000000 1.0
C      1  0.5493110000000  0.4855720000000  0.4112130000000 1.0
C      1  0.4507570000000  0.5140580000000  0.4112640000000 1.0
C      1  0.4506860000000  0.4856690000000  0.5883990000000 1.0
C      1  0.4859080000000  0.4111910000000  0.5491030000000 1.0
C      1  0.5143420000000  0.5882350000000  0.5490370000000 1.0
C      1  0.5142650000000  0.4111400000000  0.4503630000000 1.0
C      1  0.4115380000000  0.5489040000000  0.4858260000000 1.0
C      1  0.5885570000000  0.4502670000000  0.4856580000000 1.0
C      1  0.5885350000000  0.5490060000000  0.5139620000000 1.0
C      1  0.4996510000000  0.4993210000000  0.5995200000000 1.0
C      1  0.4997360000000  0.3999090000000  0.4993180000000 1.0
C      1  0.4996870000000  0.4992810000000  0.4000100000000 1.0
C      1  0.4996300000000  0.5994260000000  0.4993460000000 1.0
C      1  0.4003850000000  0.4991790000000  0.4994200000000 1.0
C      1  0.5996380000000  0.4993050000000  0.4994160000000 1.0
END
