TITL C-3623285-6872-1337 10947.9221997931 125000 -1134.57641210669 0 0 188 (C1) n - 1
REM
REM in /home/nfs/bkarasulu/CARBON/AIRSS/Generating-Clusters/LCBOP/Higher-Symm/SD-CG/FIRE-CG
REM
REM
REM
REM
REM
REM ./C.cell (b20cbc046b6831c77cfcea5457e17084)
REM AIRSS Version 0.9.1 bugfix July 2018 build 013d7b7c2542+ Fri, 06 Jul 2018 19:26:36 +0100
REM compiler GCC version 9.2.1 20190827 (Red Hat 9.2.1-1)
REM options -cpp -mtune=generic -march=x86-64 -g -O0 -fpre-include=/usr/include/finclude/math-vector-fortran.h
REM seed 343446396 -1478798260 34073845 125591828 439465000 826347363 836347406 -1235266998 379097256 -1291379335 180167482 -1572398667 1589862433 224664638 544169211 1811787319 579562310 -5996180 530343154 -1611189126 -1414383185 71616240 -1014219658 462206367 -1411802419 -421933498 1984723931 -1940786274 -1828060281 2035669963 -1664402598 -789864716 -1608356531
REM
CELL 1.54180   50.00000   50.00000   50.00000   90.00000   90.00000   90.00000
LATT -1
SFAC C  
C      1  0.5410130000000  0.4046730000000  0.5606130000000 1.0
C      1  0.5724440000000  0.5955950000000  0.4804540000000 1.0
C      1  0.5206810000000  0.4087850000000  0.4343040000000 1.0
C      1  0.4534170000000  0.5862670000000  0.4478250000000 1.0
C      1  0.4305690000000  0.4223670000000  0.5205830000000 1.0
C      1  0.4724330000000  0.5908110000000  0.5623390000000 1.0
C      1  0.4873050000000  0.5086030000000  0.5522880000000 1.0
C      1  0.5446930000000  0.4818820000000  0.5412470000000 1.0
C      1  0.5430760000000  0.5269580000000  0.4773420000000 1.0
C      1  0.5064760000000  0.4842780000000  0.4402660000000 1.0
C      1  0.4450610000000  0.5159490000000  0.4591020000000 1.0
C      1  0.4483960000000  0.4910010000000  0.5151590000000 1.0
C      1  0.5445470000000  0.5173530000000  0.4504320000000 1.0
C      1  0.4774720000000  0.4866380000000  0.4349550000000 1.0
C      1  0.4274230000000  0.5162800000000  0.4823320000000 1.0
C      1  0.4505720000000  0.4822270000000  0.5495020000000 1.0
C      1  0.5160820000000  0.5134520000000  0.5640140000000 1.0
C      1  0.5639520000000  0.4804010000000  0.5194650000000 1.0
C      1  0.5245580000000  0.3956040000000  0.4936450000000 1.0
C      1  0.5010780000000  0.6082230000000  0.4670850000000 1.0
C      1  0.4735600000000  0.3958960000000  0.4867750000000 1.0
C      1  0.4671990000000  0.6056950000000  0.5086850000000 1.0
C      1  0.4901680000000  0.3954320000000  0.5352070000000 1.0
C      1  0.5212310000000  0.6047750000000  0.5142460000000 1.0
C      1  0.5132970000000  0.5414030000000  0.5268020000000 1.0
C      1  0.5298220000000  0.4823450000000  0.4870180000000 1.0
C      1  0.4852540000000  0.5364510000000  0.4606650000000 1.0
C      1  0.4859480000000  0.4568640000000  0.4773050000000 1.0
C      1  0.4730450000000  0.5401660000000  0.5050940000000 1.0
C      1  0.4924200000000  0.4620100000000  0.5244010000000 1.0
C      1  0.4869930000000  0.5806950000000  0.5405830000000 1.0
C      1  0.5298850000000  0.4147530000000  0.5373010000000 1.0
C      1  0.5474010000000  0.5996290000000  0.4684320000000 1.0
C      1  0.4998680000000  0.4117070000000  0.4525440000000 1.0
C      1  0.4661940000000  0.5800980000000  0.4719130000000 1.0
C      1  0.4580410000000  0.4256330000000  0.5170810000000 1.0
C      1  0.4314410000000  0.4982450000000  0.5597970000000 1.0
C      1  0.5163260000000  0.4959200000000  0.5864300000000 1.0
C      1  0.5813180000000  0.5022750000000  0.5247380000000 1.0
C      1  0.5659840000000  0.4993840000000  0.4469140000000 1.0
C      1  0.4791860000000  0.5037000000000  0.4120050000000 1.0
C      1  0.4111770000000  0.4937470000000  0.4755450000000 1.0
C      1  0.3853540000000  0.5369430000000  0.4942550000000 1.0
C      1  0.4377140000000  0.4575430000000  0.5962320000000 1.0
C      1  0.5492500000000  0.5394540000000  0.5941680000000 1.0
C      1  0.6099910000000  0.4573660000000  0.5077640000000 1.0
C      1  0.5632150000000  0.5466850000000  0.4149260000000 1.0
C      1  0.4586070000000  0.4577260000000  0.4066600000000 1.0
C      1  0.4209880000000  0.5325960000000  0.4211150000000 1.0
C      1  0.3914050000000  0.4600860000000  0.5270850000000 1.0
C      1  0.4712060000000  0.5328940000000  0.6007730000000 1.0
C      1  0.5733600000000  0.4641370000000  0.5776540000000 1.0
C      1  0.6013460000000  0.5296840000000  0.4735240000000 1.0
C      1  0.5312220000000  0.4720060000000  0.3992020000000 1.0
C      1  0.5170590000000  0.4573440000000  0.4768250000000 1.0
C      1  0.4834960000000  0.5572340000000  0.4813570000000 1.0
C      1  0.4705090000000  0.4500320000000  0.5046760000000 1.0
C      1  0.4849330000000  0.5516170000000  0.5320160000000 1.0
C      1  0.5189660000000  0.4434370000000  0.5296370000000 1.0
C      1  0.5315630000000  0.5590340000000  0.5112030000000 1.0
C      1  0.4338810000000  0.4716940000000  0.4696060000000 1.0
C      1  0.4369220000000  0.5278990000000  0.5370170000000 1.0
C      1  0.5014020000000  0.4698920000000  0.5732530000000 1.0
C      1  0.5614180000000  0.5261260000000  0.5315590000000 1.0
C      1  0.5698810000000  0.4786010000000  0.4672460000000 1.0
C      1  0.5015240000000  0.5221530000000  0.4175070000000 1.0
C      1  0.4842730000000  0.4088790000000  0.5678080000000 1.0
C      1  0.5402800000000  0.5832060000000  0.5288310000000 1.0
C      1  0.5560730000000  0.4098000000000  0.4843760000000 1.0
C      1  0.5080290000000  0.5918500000000  0.4408930000000 1.0
C      1  0.4552980000000  0.4139720000000  0.4700810000000 1.0
C      1  0.4365900000000  0.5887080000000  0.5177430000000 1.0
C      1  0.5869260000000  0.5494710000000  0.4944200000000 1.0
C      1  0.5410690000000  0.4516050000000  0.4240470000000 1.0
C      1  0.4499330000000  0.5489300000000  0.4206110000000 1.0
C      1  0.3918560000000  0.4407080000000  0.5023610000000 1.0
C      1  0.4553160000000  0.5491190000000  0.5785390000000 1.0
C      1  0.5463900000000  0.4467420000000  0.5817170000000 1.0
C      1  0.4566810000000  0.4120050000000  0.5772450000000 1.0
C      1  0.5348520000000  0.5806580000000  0.5612930000000 1.0
C      1  0.5772750000000  0.4138460000000  0.5044240000000 1.0
C      1  0.5375190000000  0.5877950000000  0.4434090000000 1.0
C      1  0.4765240000000  0.4326050000000  0.4554070000000 1.0
C      1  0.4159250000000  0.5823570000000  0.4972380000000 1.0
C      1  0.5218190000000  0.4617830000000  0.4468900000000 1.0
C      1  0.4611530000000  0.5349160000000  0.4465200000000 1.0
C      1  0.4454370000000  0.4671980000000  0.4981240000000 1.0
C      1  0.4679370000000  0.5343220000000  0.5511080000000 1.0
C      1  0.5284560000000  0.4597330000000  0.5548840000000 1.0
C      1  0.5559680000000  0.5401690000000  0.5016480000000 1.0
C      1  0.3830200000000  0.5179660000000  0.5178110000000 1.0
C      1  0.4561620000000  0.4777650000000  0.6081690000000 1.0
C      1  0.5709230000000  0.5204310000000  0.5874290000000 1.0
C      1  0.6153120000000  0.4753600000000  0.4846580000000 1.0
C      1  0.5469720000000  0.5291860000000  0.3969530000000 1.0
C      1  0.4324050000000  0.4727990000000  0.4107420000000 1.0
C      1  0.3838360000000  0.4880930000000  0.5139960000000 1.0
C      1  0.4533910000000  0.5065000000000  0.6026700000000 1.0
C      1  0.5655520000000  0.4916460000000  0.5907320000000 1.0
C      1  0.6117720000000  0.5046870000000  0.4879790000000 1.0
C      1  0.5491820000000  0.4981600000000  0.4001010000000 1.0
C      1  0.4317620000000  0.5033140000000  0.4061380000000 1.0
C      1  0.5716280000000  0.5780980000000  0.5277230000000 1.0
C      1  0.5615000000000  0.4240700000000  0.4587840000000 1.0
C      1  0.4919690000000  0.5757830000000  0.4213900000000 1.0
C      1  0.4274470000000  0.4234620000000  0.4721500000000 1.0
C      1  0.4304180000000  0.5749310000000  0.5446470000000 1.0
C      1  0.5042800000000  0.4225010000000  0.5858050000000 1.0
C      1  0.5788120000000  0.4075120000000  0.5321130000000 1.0
C      1  0.6567210000000  0.5578780000000  0.4378110000000 1.0
C      1  0.5226800000000  0.4444220000000  0.3339000000000 1.0
C      1  0.4136700000000  0.5882580000000  0.4693630000000 1.0
C      1  0.4328550000000  0.4053860000000  0.5634880000000 1.0
C      1  0.5137790000000  0.5885210000000  0.5791550000000 1.0
C      1  0.4057400000000  0.4485750000000  0.5519380000000 1.0
C      1  0.4975980000000  0.5462950000000  0.6057010000000 1.0
C      1  0.5914570000000  0.4512450000000  0.5577850000000 1.0
C      1  0.6074510000000  0.5380390000000  0.4469100000000 1.0
C      1  0.5090800000000  0.4642250000000  0.3822250000000 1.0
C      1  0.4025450000000  0.5445070000000  0.4423140000000 1.0
C      1  0.4819390000000  0.4911630000000  0.4807360000000 1.0
C      1  0.4731040000000  0.5029850000000  0.5062880000000 1.0
C      1  0.4940600000000  0.4972880000000  0.5250110000000 1.0
C      1  0.5141830000000  0.5155710000000  0.5154130000000 1.0
C      1  0.5211820000000  0.5104570000000  0.4878600000000 1.0
C      1  0.4971200000000  0.5128900000000  0.4708100000000 1.0
C      1  0.5983160000000  0.4324910000000  0.4990720000000 1.0
C      1  0.5511830000000  0.5702820000000  0.4259830000000 1.0
C      1  0.4656850000000  0.4408750000000  0.4288570000000 1.0
C      1  0.3958900000000  0.5625380000000  0.5029410000000 1.0
C      1  0.4501060000000  0.4315250000000  0.5968570000000 1.0
C      1  0.5502620000000  0.5625070000000  0.5770900000000 1.0
C      1  0.4756850000000  0.6052510000000  0.4813930000000 1.0
C      1  0.4714620000000  0.4011070000000  0.5149130000000 1.0
C      1  0.4928910000000  0.6014950000000  0.5225160000000 1.0
C      1  0.5166970000000  0.3952170000000  0.5220410000000 1.0
C      1  0.5251960000000  0.6096450000000  0.4848700000000 1.0
C      1  0.5011740000000  0.3955650000000  0.4763730000000 1.0
C      1  0.5400930000000  0.5103940000000  0.5480850000000 1.0
C      1  0.5571700000000  0.4781130000000  0.4923010000000 1.0
C      1  0.5204330000000  0.5101080000000  0.4351980000000 1.0
C      1  0.4523210000000  0.4883040000000  0.4508630000000 1.0
C      1  0.4317550000000  0.5155130000000  0.5112340000000 1.0
C      1  0.4754860000000  0.4826710000000  0.5626550000000 1.0
C      1  0.4139030000000  0.4226200000000  0.4984730000000 1.0
C      1  0.4493910000000  0.5768730000000  0.5675790000000 1.0
C      1  0.5337570000000  0.4194010000000  0.5827460000000 1.0
C      1  0.5827630000000  0.5793960000000  0.5009460000000 1.0
C      1  0.5446430000000  0.4233740000000  0.4351580000000 1.0
C      1  0.4630920000000  0.5757230000000  0.4241380000000 1.0
C      1  0.6063900000000  0.5120000000000  0.5157460000000 1.0
C      1  0.5697940000000  0.4895510000000  0.4200120000000 1.0
C      1  0.4579470000000  0.5124710000000  0.3954680000000 1.0
C      1  0.3876540000000  0.4823830000000  0.4850220000000 1.0
C      1  0.4299850000000  0.5111640000000  0.5845680000000 1.0
C      1  0.5383840000000  0.4870890000000  0.6025250000000 1.0
C      1  0.4995750000000  0.5740760000000  0.5975580000000 1.0
C      1  0.5864600000000  0.4232120000000  0.5530340000000 1.0
C      1  0.6336370000000  0.5463410000000  0.4414600000000 1.0
C      1  0.5158640000000  0.4560930000000  0.3561860000000 1.0
C      1  0.4069000000000  0.5727190000000  0.4479300000000 1.0
C      1  0.4195340000000  0.4232780000000  0.5461410000000 1.0
C      1  0.5318510000000  0.4589050000000  0.6065120000000 1.0
C      1  0.6039660000000  0.5408120000000  0.5206680000000 1.0
C      1  0.5712480000000  0.4606020000000  0.4249370000000 1.0
C      1  0.4631720000000  0.5402140000000  0.3944720000000 1.0
C      1  0.3888600000000  0.4547790000000  0.4769710000000 1.0
C      1  0.4254540000000  0.5392850000000  0.5797670000000 1.0
C      1  0.4156210000000  0.4491380000000  0.4580360000000 1.0
C      1  0.4166890000000  0.5462150000000  0.5501940000000 1.0
C      1  0.5018600000000  0.4515680000000  0.5985140000000 1.0
C      1  0.5828980000000  0.5473040000000  0.5422700000000 1.0
C      1  0.5813800000000  0.4537970000000  0.4534570000000 1.0
C      1  0.4985660000000  0.5471800000000  0.4025060000000 1.0
C      1  0.5244910000000  0.5360160000000  0.6087240000000 1.0
C      1  0.6076200000000  0.4621510000000  0.5363010000000 1.0
C      1  0.5882370000000  0.5399470000000  0.4262640000000 1.0
C      1  0.4811460000000  0.4621760000000  0.3892090000000 1.0
C      1  0.3869810000000  0.5333090000000  0.4649000000000 1.0
C      1  0.4147320000000  0.4590650000000  0.5778580000000 1.0
C      1  0.6103540000000  0.4595450000000  0.4600950000000 1.0
C      1  0.5238160000000  0.5444220000000  0.3859910000000 1.0
C      1  0.4145180000000  0.4578200000000  0.4286240000000 1.0
C      1  0.3905800000000  0.5326580000000  0.5419500000000 1.0
C      1  0.4809620000000  0.4649320000000  0.6156510000000 1.0
C      1  0.5889220000000  0.5345690000000  0.5693550000000 1.0
C      1  0.5251900000000  0.4402830000000  0.4994210000000 1.0
C      1  0.5123520000000  0.5652410000000  0.4880960000000 1.0
END
