TITL C-3623287-7182-627 36025.2271390793 125000 -586.640621953996 0 0 100 (C1) n - 1
REM
REM in /home/nfs/bkarasulu/CARBON/AIRSS/Generating-Clusters/LCBOP/Higher-Symm/SD-CG/FIRE-CG
REM
REM
REM
REM
REM
REM ./C.cell (b20cbc046b6831c77cfcea5457e17084)
REM AIRSS Version 0.9.1 bugfix July 2018 build 013d7b7c2542+ Fri, 06 Jul 2018 19:26:36 +0100
REM compiler GCC version 9.2.1 20190827 (Red Hat 9.2.1-1)
REM options -cpp -mtune=generic -march=x86-64 -g -O0 -fpre-include=/usr/include/finclude/math-vector-fortran.h
REM seed -845907662 150579288 -1265010798 -560173686 2057536657 1832619819 -1511861756 1001354564 -1095116020 -567297921 1072866579 -2003733177 -1657327086 -1892603220 -824288958 -1088218886 -579752731 580051403 1606475142 1181362440 1478140982 1992960050 1329556499 -160074347 -725436513 975732396 -1464855925 731312030 1394891656 -1596639589 -113570389 2051767951 -1404507758
REM
CELL 1.54180   50.00000   50.00000   50.00000   90.00000   90.00000   90.00000
LATT -1
SFAC C  
C      1  0.5483920000000  0.5402100000000  0.4951730000000 1.0
C      1  0.5011950000000  0.5446830000000  0.5070260000000 1.0
C      1  0.5275000000000  0.4986270000000  0.5392490000000 1.0
C      1  0.4572450000000  0.4564840000000  0.4780920000000 1.0
C      1  0.4557940000000  0.5182020000000  0.5028530000000 1.0
C      1  0.5528450000000  0.4899420000000  0.5002920000000 1.0
C      1  0.5171410000000  0.4551750000000  0.5112440000000 1.0
C      1  0.4974260000000  0.5189590000000  0.4996590000000 1.0
C      1  0.5176360000000  0.4410980000000  0.4853710000000 1.0
C      1  0.4629970000000  0.4923280000000  0.5419910000000 1.0
C      1  0.4812690000000  0.5102140000000  0.4627940000000 1.0
C      1  0.5019750000000  0.4906910000000  0.4639610000000 1.0
C      1  0.5344670000000  0.5548320000000  0.5465040000000 1.0
C      1  0.5635960000000  0.5501000000000  0.5383230000000 1.0
C      1  0.5916540000000  0.5564600000000  0.5314060000000 1.0
C      1  0.4649270000000  0.4463950000000  0.5534260000000 1.0
C      1  0.4847880000000  0.5649660000000  0.4604270000000 1.0
C      1  0.5124050000000  0.4504030000000  0.4308720000000 1.0
C      1  0.4390840000000  0.4519970000000  0.5407810000000 1.0
C      1  0.4407100000000  0.5318850000000  0.4560910000000 1.0
C      1  0.5558110000000  0.4738490000000  0.4562060000000 1.0
C      1  0.4320950000000  0.4419890000000  0.5147280000000 1.0
C      1  0.4363610000000  0.5552700000000  0.4730290000000 1.0
C      1  0.5653980000000  0.4482090000000  0.4790300000000 1.0
C      1  0.4963400000000  0.4696090000000  0.4438120000000 1.0
C      1  0.4415370000000  0.5122440000000  0.4770400000000 1.0
C      1  0.4549470000000  0.4341020000000  0.4970540000000 1.0
C      1  0.4906530000000  0.5372760000000  0.4517340000000 1.0
C      1  0.4795530000000  0.4715280000000  0.5572680000000 1.0
C      1  0.5191130000000  0.5260180000000  0.5495910000000 1.0
C      1  0.5614330000000  0.4951300000000  0.4730530000000 1.0
C      1  0.5596740000000  0.5292500000000  0.5188580000000 1.0
C      1  0.4338360000000  0.4809240000000  0.5446100000000 1.0
C      1  0.5265790000000  0.5564510000000  0.5000170000000 1.0
C      1  0.5447600000000  0.4293570000000  0.4871480000000 1.0
C      1  0.4612470000000  0.5707350000000  0.4779550000000 1.0
C      1  0.5113280000000  0.5324330000000  0.4312840000000 1.0
C      1  0.4127870000000  0.4991630000000  0.5383940000000 1.0
C      1  0.5397820000000  0.4129630000000  0.5122220000000 1.0
C      1  0.4717010000000  0.4754770000000  0.4286840000000 1.0
C      1  0.4935030000000  0.5252680000000  0.5631010000000 1.0
C      1  0.5037590000000  0.4742210000000  0.5724470000000 1.0
C      1  0.5697760000000  0.5033740000000  0.5190560000000 1.0
C      1  0.5804170000000  0.5172950000000  0.4705080000000 1.0
C      1  0.4248880000000  0.4897240000000  0.4731510000000 1.0
C      1  0.4705040000000  0.5806690000000  0.5038790000000 1.0
C      1  0.4771020000000  0.4157420000000  0.4954780000000 1.0
C      1  0.5334160000000  0.5839000000000  0.4977350000000 1.0
C      1  0.5059300000000  0.5072020000000  0.4193990000000 1.0
C      1  0.4053430000000  0.5073490000000  0.5120840000000 1.0
C      1  0.5189140000000  0.3922460000000  0.5115980000000 1.0
C      1  0.4776600000000  0.5022200000000  0.4185230000000 1.0
C      1  0.4908080000000  0.5165420000000  0.5916900000000 1.0
C      1  0.5049150000000  0.4924350000000  0.5963350000000 1.0
C      1  0.5951930000000  0.4940180000000  0.5094240000000 1.0
C      1  0.6023500000000  0.5176270000000  0.4927740000000 1.0
C      1  0.4068800000000  0.4844280000000  0.4951070000000 1.0
C      1  0.4936730000000  0.5976850000000  0.5089780000000 1.0
C      1  0.4913300000000  0.3949040000000  0.5097390000000 1.0
C      1  0.5114410000000  0.5989110000000  0.4873460000000 1.0
C      1  0.4817530000000  0.4241400000000  0.5555280000000 1.0
C      1  0.5393890000000  0.4907780000000  0.4283740000000 1.0
C      1  0.4156730000000  0.5409580000000  0.5007000000000 1.0
C      1  0.5109450000000  0.5812820000000  0.5390890000000 1.0
C      1  0.5107820000000  0.4235710000000  0.4301250000000 1.0
C      1  0.5068560000000  0.5851350000000  0.4616480000000 1.0
C      1  0.4468470000000  0.5190500000000  0.4293640000000 1.0
C      1  0.4638820000000  0.5227240000000  0.5992820000000 1.0
C      1  0.5321390000000  0.4928870000000  0.6051800000000 1.0
C      1  0.5851620000000  0.4604360000000  0.5050850000000 1.0
C      1  0.6021350000000  0.5468320000000  0.5046720000000 1.0
C      1  0.4097780000000  0.4541750000000  0.4988460000000 1.0
C      1  0.4637820000000  0.5215970000000  0.5513120000000 1.0
C      1  0.5489160000000  0.4528970000000  0.5456470000000 1.0
C      1  0.5496730000000  0.5566750000000  0.4482540000000 1.0
C      1  0.5341190000000  0.4762260000000  0.5599880000000 1.0
C      1  0.5398680000000  0.5373470000000  0.4304230000000 1.0
C      1  0.4430960000000  0.4718420000000  0.4325140000000 1.0
C      1  0.4556760000000  0.5380020000000  0.5265530000000 1.0
C      1  0.4341450000000  0.4630320000000  0.4594340000000 1.0
C      1  0.5662850000000  0.5455250000000  0.4708460000000 1.0
C      1  0.4968890000000  0.4240840000000  0.4759000000000 1.0
C      1  0.4768910000000  0.5575270000000  0.5226120000000 1.0
C      1  0.5287790000000  0.4349390000000  0.5323480000000 1.0
C      1  0.4298160000000  0.4964960000000  0.4237790000000 1.0
C      1  0.4117910000000  0.4450070000000  0.4703060000000 1.0
C      1  0.5002170000000  0.4107410000000  0.4513390000000 1.0
C      1  0.5539870000000  0.5136970000000  0.4229900000000 1.0
C      1  0.5491660000000  0.4853330000000  0.5849000000000 1.0
C      1  0.4479460000000  0.5261840000000  0.5769330000000 1.0
C      1  0.5894720000000  0.5617830000000  0.4823770000000 1.0
C      1  0.5742740000000  0.4531690000000  0.5315190000000 1.0
C      1  0.4286600000000  0.5497430000000  0.5233980000000 1.0
C      1  0.5321230000000  0.5792230000000  0.4491230000000 1.0
C      1  0.5082090000000  0.4232780000000  0.5503790000000 1.0
C      1  0.4876300000000  0.5697090000000  0.5476900000000 1.0
C      1  0.5108190000000  0.4969670000000  0.4913140000000 1.0
C      1  0.4663280000000  0.4933450000000  0.5118460000000 1.0
C      1  0.5262160000000  0.4838030000000  0.5112590000000 1.0
C      1  0.4691450000000  0.4797550000000  0.4878370000000 1.0
END
