TITL C-3623286-7563-1472 348419.344499619 125000 -979.867621607111 0 0 160 (C1) n - 1
REM
REM in /home/nfs/bkarasulu/CARBON/AIRSS/Generating-Clusters/LCBOP/Higher-Symm/SD-CG/FIRE-CG
REM
REM
REM
REM
REM
REM ./C.cell (b20cbc046b6831c77cfcea5457e17084)
REM AIRSS Version 0.9.1 bugfix July 2018 build 013d7b7c2542+ Fri, 06 Jul 2018 19:26:36 +0100
REM compiler GCC version 9.2.1 20190827 (Red Hat 9.2.1-1)
REM options -cpp -mtune=generic -march=x86-64 -g -O0 -fpre-include=/usr/include/finclude/math-vector-fortran.h
REM seed -826452469 290078643 -2014661077 981941357 1781801119 -1118113910 -1776024465 -3334407 884741443 993261451 -243052233 1326502217 776118008 830648951 -1449495529 1674645510 1806517662 -234368022 417531172 -757488060 768851571 -649838694 -678381010 1183000962 -1614459205 1966300914 750096832 855029082 -610096346 -625115638 374682351 -1372846900 -2091040431
REM
CELL 1.54180   50.00000   50.00000   50.00000   90.00000   90.00000   90.00000
LATT -1
SFAC C  
C      1  0.5232780000000  0.5829880000000  0.5488490000000 1.0
C      1  0.4752090000000  0.4212300000000  0.5482480000000 1.0
C      1  0.5284860000000  0.5811160000000  0.4501070000000 1.0
C      1  0.4698130000000  0.4215430000000  0.4471780000000 1.0
C      1  0.4425310000000  0.5847350000000  0.5060230000000 1.0
C      1  0.5623580000000  0.4154120000000  0.5038230000000 1.0
C      1  0.4540290000000  0.5951920000000  0.4815330000000 1.0
C      1  0.5509460000000  0.4028930000000  0.4802030000000 1.0
C      1  0.5783420000000  0.5488910000000  0.4596530000000 1.0
C      1  0.4174730000000  0.4511380000000  0.4523270000000 1.0
C      1  0.5750180000000  0.5565010000000  0.5393280000000 1.0
C      1  0.4204720000000  0.4453800000000  0.5472850000000 1.0
C      1  0.4176730000000  0.5743860000000  0.4975630000000 1.0
C      1  0.5862340000000  0.4272180000000  0.4934860000000 1.0
C      1  0.4075260000000  0.5516540000000  0.4846110000000 1.0
C      1  0.5900870000000  0.4517280000000  0.4800080000000 1.0
C      1  0.4424190000000  0.4572990000000  0.5601180000000 1.0
C      1  0.5497610000000  0.5431890000000  0.5481660000000 1.0
C      1  0.4392480000000  0.4600140000000  0.4366800000000 1.0
C      1  0.5517080000000  0.5392520000000  0.4497660000000 1.0
C      1  0.4611960000000  0.5025140000000  0.5217710000000 1.0
C      1  0.5343170000000  0.4949390000000  0.5201880000000 1.0
C      1  0.4602630000000  0.5009090000000  0.4748610000000 1.0
C      1  0.5324770000000  0.4917660000000  0.4777050000000 1.0
C      1  0.6080050000000  0.5805790000000  0.5121640000000 1.0
C      1  0.3936300000000  0.4220250000000  0.5132860000000 1.0
C      1  0.6099640000000  0.5765780000000  0.4839240000000 1.0
C      1  0.3923580000000  0.4248750000000  0.4848840000000 1.0
C      1  0.5299540000000  0.5396990000000  0.4715630000000 1.0
C      1  0.4715720000000  0.4504180000000  0.4827150000000 1.0
C      1  0.5277810000000  0.5424610000000  0.5263800000000 1.0
C      1  0.4751160000000  0.4515390000000  0.5144850000000 1.0
C      1  0.5562860000000  0.5075690000000  0.4109070000000 1.0
C      1  0.4449930000000  0.4956300000000  0.4042990000000 1.0
C      1  0.5552670000000  0.5111020000000  0.5866760000000 1.0
C      1  0.4464970000000  0.4919830000000  0.5923270000000 1.0
C      1  0.4935620000000  0.5043060000000  0.4455520000000 1.0
C      1  0.5036520000000  0.4788340000000  0.4451600000000 1.0
C      1  0.4924790000000  0.5052470000000  0.5525540000000 1.0
C      1  0.5057620000000  0.4811440000000  0.5525260000000 1.0
C      1  0.5145680000000  0.4251370000000  0.5119960000000 1.0
C      1  0.4884480000000  0.5703640000000  0.5129370000000 1.0
C      1  0.5100920000000  0.4236050000000  0.4817050000000 1.0
C      1  0.4924570000000  0.5701760000000  0.4840710000000 1.0
C      1  0.4546360000000  0.4756820000000  0.4847660000000 1.0
C      1  0.5164100000000  0.5170640000000  0.4843510000000 1.0
C      1  0.4572740000000  0.4763140000000  0.5144180000000 1.0
C      1  0.5163350000000  0.5186250000000  0.5137030000000 1.0
C      1  0.4880360000000  0.5109630000000  0.4733040000000 1.0
C      1  0.5121120000000  0.4718020000000  0.4719010000000 1.0
C      1  0.4882240000000  0.5125390000000  0.5248970000000 1.0
C      1  0.5149490000000  0.4742140000000  0.5261210000000 1.0
C      1  0.4583990000000  0.5618740000000  0.5531500000000 1.0
C      1  0.5473070000000  0.4382180000000  0.5519670000000 1.0
C      1  0.4644830000000  0.5620230000000  0.4442120000000 1.0
C      1  0.5396010000000  0.4348530000000  0.4422570000000 1.0
C      1  0.5341470000000  0.6064130000000  0.5373460000000 1.0
C      1  0.4594970000000  0.4000380000000  0.5367370000000 1.0
C      1  0.5383990000000  0.6052520000000  0.4609010000000 1.0
C      1  0.4546060000000  0.3999620000000  0.4588980000000 1.0
C      1  0.5224560000000  0.4749280000000  0.5963880000000 1.0
C      1  0.4812420000000  0.5253410000000  0.5955930000000 1.0
C      1  0.5212290000000  0.4734070000000  0.3996730000000 1.0
C      1  0.4831850000000  0.5256070000000  0.4013500000000 1.0
C      1  0.5572030000000  0.5114560000000  0.4396090000000 1.0
C      1  0.4396540000000  0.4886000000000  0.4318260000000 1.0
C      1  0.5579140000000  0.5154760000000  0.5579390000000 1.0
C      1  0.4400420000000  0.4854250000000  0.5653310000000 1.0
C      1  0.5536380000000  0.4893030000000  0.4583560000000 1.0
C      1  0.4444990000000  0.5094090000000  0.4526350000000 1.0
C      1  0.5593290000000  0.4916820000000  0.5369630000000 1.0
C      1  0.4398940000000  0.5127890000000  0.5394800000000 1.0
C      1  0.6196430000000  0.5118240000000  0.5383820000000 1.0
C      1  0.3759760000000  0.4898130000000  0.5356260000000 1.0
C      1  0.6201580000000  0.5021740000000  0.4781820000000 1.0
C      1  0.3837980000000  0.4992980000000  0.4771650000000 1.0
C      1  0.4796490000000  0.5205310000000  0.4287730000000 1.0
C      1  0.5249450000000  0.4755530000000  0.4276070000000 1.0
C      1  0.4757210000000  0.5199670000000  0.5684480000000 1.0
C      1  0.5281340000000  0.4779650000000  0.5687760000000 1.0
C      1  0.4784660000000  0.4523390000000  0.4044230000000 1.0
C      1  0.5222020000000  0.5487180000000  0.4071750000000 1.0
C      1  0.4827520000000  0.4519340000000  0.5911050000000 1.0
C      1  0.5195100000000  0.5498650000000  0.5902770000000 1.0
C      1  0.4396070000000  0.5177210000000  0.6034380000000 1.0
C      1  0.5640040000000  0.4862280000000  0.5986030000000 1.0
C      1  0.4374170000000  0.5229800000000  0.3967220000000 1.0
C      1  0.5664010000000  0.4822580000000  0.4002330000000 1.0
C      1  0.5972350000000  0.4591510000000  0.5848650000000 1.0
C      1  0.4087690000000  0.5447260000000  0.5819400000000 1.0
C      1  0.5886490000000  0.4503440000000  0.4283610000000 1.0
C      1  0.4170850000000  0.5525300000000  0.4312420000000 1.0
C      1  0.6209380000000  0.4881570000000  0.5243490000000 1.0
C      1  0.3607890000000  0.5074920000000  0.5192030000000 1.0
C      1  0.6244570000000  0.4838890000000  0.4987190000000 1.0
C      1  0.3759730000000  0.5176620000000  0.4980540000000 1.0
C      1  0.6017960000000  0.5505740000000  0.4749160000000 1.0
C      1  0.3994710000000  0.4503920000000  0.4739270000000 1.0
C      1  0.5999460000000  0.5574080000000  0.5267750000000 1.0
C      1  0.4001990000000  0.4454690000000  0.5281110000000 1.0
C      1  0.5424100000000  0.4249340000000  0.5242020000000 1.0
C      1  0.4619700000000  0.5740300000000  0.5257040000000 1.0
C      1  0.5328710000000  0.4183620000000  0.4647830000000 1.0
C      1  0.4706720000000  0.5775650000000  0.4670640000000 1.0
C      1  0.5329060000000  0.5204970000000  0.3975460000000 1.0
C      1  0.4691150000000  0.4809660000000  0.3932610000000 1.0
C      1  0.5312760000000  0.5228670000000  0.5993660000000 1.0
C      1  0.4714660000000  0.4789580000000  0.6025410000000 1.0
C      1  0.4892300000000  0.5535350000000  0.5942010000000 1.0
C      1  0.5134070000000  0.4473270000000  0.5958810000000 1.0
C      1  0.4916430000000  0.5536090000000  0.4023330000000 1.0
C      1  0.5125250000000  0.4456180000000  0.3988070000000 1.0
C      1  0.4589780000000  0.5333330000000  0.4443440000000 1.0
C      1  0.5459360000000  0.4643550000000  0.4447950000000 1.0
C      1  0.4551470000000  0.5331670000000  0.5534870000000 1.0
C      1  0.5500720000000  0.4674260000000  0.5527330000000 1.0
C      1  0.3992380000000  0.5326780000000  0.5045790000000 1.0
C      1  0.5870020000000  0.4722390000000  0.4981700000000 1.0
C      1  0.4167520000000  0.5230960000000  0.5247040000000 1.0
C      1  0.5822940000000  0.4830970000000  0.5212580000000 1.0
C      1  0.4373330000000  0.5502120000000  0.4084640000000 1.0
C      1  0.5686850000000  0.4543430000000  0.4076460000000 1.0
C      1  0.4346230000000  0.5446600000000  0.5942380000000 1.0
C      1  0.5696910000000  0.4578560000000  0.5933540000000 1.0
C      1  0.5436650000000  0.4345610000000  0.5820750000000 1.0
C      1  0.4625450000000  0.5652890000000  0.5828400000000 1.0
C      1  0.5381240000000  0.4335350000000  0.4127610000000 1.0
C      1  0.4650690000000  0.5654870000000  0.4143350000000 1.0
C      1  0.5160370000000  0.4980490000000  0.3870320000000 1.0
C      1  0.4881410000000  0.5025230000000  0.3861820000000 1.0
C      1  0.5160160000000  0.4992080000000  0.6093900000000 1.0
C      1  0.4881680000000  0.5022610000000  0.6102190000000 1.0
C      1  0.3938300000000  0.5149520000000  0.4552150000000 1.0
C      1  0.6114290000000  0.4875940000000  0.4546470000000 1.0
C      1  0.3844040000000  0.5023160000000  0.5599100000000 1.0
C      1  0.6173200000000  0.5051210000000  0.5660550000000 1.0
C      1  0.6121860000000  0.4812340000000  0.5784490000000 1.0
C      1  0.3923150000000  0.5250750000000  0.5725130000000 1.0
C      1  0.5982780000000  0.4610710000000  0.4534120000000 1.0
C      1  0.4057590000000  0.5419010000000  0.4563070000000 1.0
C      1  0.4911400000000  0.4327390000000  0.5272210000000 1.0
C      1  0.5112350000000  0.5658780000000  0.5286230000000 1.0
C      1  0.4858320000000  0.4316350000000  0.4688390000000 1.0
C      1  0.5164440000000  0.5646450000000  0.4709990000000 1.0
C      1  0.5340770000000  0.5625890000000  0.5683230000000 1.0
C      1  0.4663450000000  0.4412440000000  0.5682530000000 1.0
C      1  0.5374490000000  0.5602020000000  0.4300320000000 1.0
C      1  0.4617870000000  0.4423440000000  0.4276760000000 1.0
C      1  0.3905260000000  0.4734870000000  0.4886070000000 1.0
C      1  0.6131650000000  0.5283250000000  0.4894160000000 1.0
C      1  0.3890500000000  0.4699410000000  0.5185110000000 1.0
C      1  0.6131160000000  0.5329770000000  0.5195000000000 1.0
C      1  0.5416530000000  0.6155320000000  0.4857580000000 1.0
C      1  0.4505520000000  0.3916660000000  0.4846240000000 1.0
C      1  0.5400730000000  0.6158260000000  0.5126670000000 1.0
C      1  0.4524900000000  0.3918530000000  0.5116770000000 1.0
C      1  0.3885000000000  0.3982640000000  0.5257630000000 1.0
C      1  0.6131740000000  0.6044390000000  0.5243150000000 1.0
C      1  0.3846140000000  0.4042530000000  0.4686760000000 1.0
C      1  0.6185550000000  0.5958800000000  0.4666580000000 1.0
END
