TITL C-3623285-6872-58 1.19699284052563e-07 125000 -646.921607769934 0 0 106 (C1) n - 1
REM
REM in /home/nfs/bkarasulu/CARBON/AIRSS/Generating-Clusters/LCBOP/Higher-Symm/SD-CG/FIRE-CG
REM
REM
REM
REM
REM
REM ./C.cell (b20cbc046b6831c77cfcea5457e17084)
REM AIRSS Version 0.9.1 bugfix July 2018 build 013d7b7c2542+ Fri, 06 Jul 2018 19:26:36 +0100
REM compiler GCC version 9.2.1 20190827 (Red Hat 9.2.1-1)
REM options -cpp -mtune=generic -march=x86-64 -g -O0 -fpre-include=/usr/include/finclude/math-vector-fortran.h
REM seed -1082976407 -669331842 -786347388 1370157079 -1170697732 -575336541 1987253349 685734945 -2000667020 -317831723 1627267709 1006120560 -637296485 -1023365939 -966170410 1461770482 762831880 1350344509 1274126502 -105696099 1717840032 969265070 1599686427 -1849025976 196673754 1745499735 354229628 -243159818 1482708104 565997318 -188526006 2129438354 -322262184
REM
CELL 1.54180   50.00000   50.00000   50.00000   90.00000   90.00000   90.00000
LATT -1
SFAC C  
C      1  0.4703670000000  0.5928570000000  0.4974990000000 1.0
C      1  0.5102070000000  0.5899380000000  0.4709480000000 1.0
C      1  0.5127100000000  0.5885780000000  0.5181650000000 1.0
C      1  0.4489730000000  0.4859480000000  0.5422280000000 1.0
C      1  0.4865120000000  0.4788460000000  0.4211590000000 1.0
C      1  0.5646580000000  0.4729400000000  0.5189480000000 1.0
C      1  0.4068260000000  0.5267820000000  0.4809000000000 1.0
C      1  0.5711060000000  0.5261670000000  0.4243520000000 1.0
C      1  0.5380950000000  0.5190020000000  0.5858040000000 1.0
C      1  0.4860760000000  0.5244210000000  0.4055490000000 1.0
C      1  0.5873140000000  0.5219050000000  0.5234640000000 1.0
C      1  0.4241420000000  0.5260940000000  0.5575390000000 1.0
C      1  0.5345090000000  0.5112100000000  0.5150770000000 1.0
C      1  0.4868050000000  0.5060040000000  0.5293280000000 1.0
C      1  0.4779310000000  0.5141600000000  0.4688100000000 1.0
C      1  0.4743280000000  0.5285270000000  0.5140440000000 1.0
C      1  0.4975480000000  0.5350500000000  0.4743620000000 1.0
C      1  0.5206710000000  0.5363740000000  0.5198860000000 1.0
C      1  0.4738900000000  0.5272500000000  0.5656440000000 1.0
C      1  0.4477820000000  0.5014290000000  0.4354620000000 1.0
C      1  0.5697410000000  0.5194980000000  0.4723570000000 1.0
C      1  0.5009030000000  0.4605100000000  0.5327590000000 1.0
C      1  0.4725230000000  0.4695280000000  0.4984850000000 1.0
C      1  0.5272200000000  0.4693380000000  0.4875650000000 1.0
C      1  0.3960420000000  0.5011690000000  0.4780380000000 1.0
C      1  0.5717680000000  0.5072070000000  0.4456720000000 1.0
C      1  0.5405750000000  0.4943200000000  0.5985220000000 1.0
C      1  0.5651640000000  0.4288250000000  0.5054810000000 1.0
C      1  0.4644420000000  0.4310470000000  0.5530480000000 1.0
C      1  0.4785740000000  0.4381270000000  0.4477660000000 1.0
C      1  0.4341240000000  0.4373850000000  0.4760440000000 1.0
C      1  0.5588140000000  0.4350710000000  0.4547060000000 1.0
C      1  0.5153670000000  0.4300200000000  0.5684600000000 1.0
C      1  0.5145910000000  0.4347750000000  0.5168970000000 1.0
C      1  0.4715050000000  0.4401660000000  0.5049470000000 1.0
C      1  0.5169550000000  0.4375670000000  0.4860700000000 1.0
C      1  0.5331010000000  0.4435450000000  0.4404540000000 1.0
C      1  0.5422880000000  0.4354800000000  0.5549030000000 1.0
C      1  0.4275300000000  0.4400260000000  0.5077300000000 1.0
C      1  0.5005310000000  0.4103590000000  0.5280760000000 1.0
C      1  0.4736870000000  0.4177200000000  0.4879160000000 1.0
C      1  0.5309570000000  0.4101330000000  0.4819000000000 1.0
C      1  0.4839260000000  0.5878790000000  0.5223500000000 1.0
C      1  0.4816770000000  0.5917660000000  0.4710520000000 1.0
C      1  0.5263510000000  0.5825690000000  0.4932410000000 1.0
C      1  0.4149720000000  0.4670170000000  0.5095090000000 1.0
C      1  0.5392310000000  0.4694680000000  0.4267800000000 1.0
C      1  0.5536120000000  0.4613580000000  0.5645850000000 1.0
C      1  0.5689970000000  0.4785800000000  0.5467610000000 1.0
C      1  0.4213240000000  0.4841110000000  0.5314300000000 1.0
C      1  0.5166660000000  0.4896030000000  0.4233180000000 1.0
C      1  0.5416640000000  0.4844550000000  0.5072260000000 1.0
C      1  0.4755170000000  0.4793960000000  0.5268300000000 1.0
C      1  0.4840440000000  0.4875930000000  0.4790500000000 1.0
C      1  0.4025450000000  0.5474590000000  0.5006040000000 1.0
C      1  0.5523310000000  0.5451610000000  0.4195910000000 1.0
C      1  0.5493920000000  0.5454250000000  0.5856240000000 1.0
C      1  0.5130640000000  0.5130310000000  0.4036380000000 1.0
C      1  0.5835710000000  0.5035940000000  0.5455830000000 1.0
C      1  0.4074180000000  0.5071400000000  0.5429570000000 1.0
C      1  0.4720650000000  0.5745470000000  0.5452740000000 1.0
C      1  0.4665940000000  0.5897340000000  0.4470530000000 1.0
C      1  0.5484780000000  0.5639870000000  0.4912320000000 1.0
C      1  0.5909940000000  0.4605170000000  0.4794080000000 1.0
C      1  0.4835950000000  0.4579890000000  0.5907200000000 1.0
C      1  0.4429130000000  0.4729810000000  0.4419020000000 1.0
C      1  0.5478780000000  0.5391390000000  0.4753120000000 1.0
C      1  0.4873020000000  0.5533500000000  0.5570210000000 1.0
C      1  0.4444250000000  0.6054880000000  0.4436650000000 1.0
C      1  0.4264470000000  0.5543110000000  0.5598810000000 1.0
C      1  0.4797690000000  0.5511900000000  0.4105950000000 1.0
C      1  0.5837090000000  0.5498410000000  0.5263850000000 1.0
C      1  0.4624250000000  0.4481890000000  0.5761770000000 1.0
C      1  0.4685060000000  0.4600450000000  0.4335250000000 1.0
C      1  0.5791320000000  0.4537540000000  0.5042850000000 1.0
C      1  0.4514210000000  0.4349820000000  0.5254870000000 1.0
C      1  0.5068680000000  0.4392200000000  0.4553470000000 1.0
C      1  0.5440600000000  0.4293500000000  0.5264950000000 1.0
C      1  0.5692110000000  0.5661590000000  0.5105110000000 1.0
C      1  0.4446810000000  0.5736880000000  0.5535840000000 1.0
C      1  0.4740630000000  0.5718450000000  0.4265520000000 1.0
C      1  0.5356210000000  0.4693130000000  0.5866220000000 1.0
C      1  0.4095930000000  0.4769400000000  0.4824550000000 1.0
C      1  0.5651840000000  0.4796550000000  0.4395490000000 1.0
C      1  0.5227270000000  0.5325520000000  0.4581680000000 1.0
C      1  0.5180350000000  0.5469000000000  0.5490650000000 1.0
C      1  0.4483840000000  0.5369380000000  0.5038200000000 1.0
C      1  0.5196410000000  0.5028780000000  0.4507240000000 1.0
C      1  0.5197020000000  0.5186530000000  0.5639490000000 1.0
C      1  0.4358280000000  0.5270720000000  0.4784520000000 1.0
C      1  0.5768540000000  0.4579890000000  0.4550550000000 1.0
C      1  0.5113230000000  0.4528550000000  0.5866820000000 1.0
C      1  0.4258940000000  0.4626870000000  0.4627490000000 1.0
C      1  0.4264890000000  0.5536420000000  0.5133010000000 1.0
C      1  0.5291980000000  0.5486690000000  0.4336230000000 1.0
C      1  0.5390480000000  0.5613220000000  0.5651510000000 1.0
C      1  0.4916200000000  0.4180560000000  0.5541410000000 1.0
C      1  0.4589250000000  0.4247390000000  0.4646850000000 1.0
C      1  0.5582890000000  0.4181970000000  0.4787410000000 1.0
C      1  0.5113670000000  0.4851620000000  0.4715750000000 1.0
C      1  0.4948400000000  0.5088840000000  0.5569300000000 1.0
C      1  0.4522100000000  0.5174430000000  0.4584860000000 1.0
C      1  0.4693600000000  0.5032940000000  0.4156950000000 1.0
C      1  0.5855110000000  0.5141980000000  0.4956310000000 1.0
C      1  0.4496640000000  0.5118990000000  0.5597850000000 1.0
C      1  0.4979880000000  0.5403720000000  0.5021770000000 1.0
END
