TITL C-3623283-6828-1169 627064.436989306 125000 -716.573871587924 0 0 117 (C1) n - 1
REM
REM in /home/nfs/bkarasulu/CARBON/AIRSS/Generating-Clusters/LCBOP/Higher-Symm/SD-CG/FIRE-CG
REM
REM
REM
REM
REM
REM ./C.cell (b20cbc046b6831c77cfcea5457e17084)
REM AIRSS Version 0.9.1 bugfix July 2018 build 013d7b7c2542+ Fri, 06 Jul 2018 19:26:36 +0100
REM compiler GCC version 9.2.1 20190827 (Red Hat 9.2.1-1)
REM options -cpp -mtune=generic -march=x86-64 -g -O0 -fpre-include=/usr/include/finclude/math-vector-fortran.h
REM seed 1360342079 1514207935 1002255262 -559868386 523447783 -2075571777 -1133044872 -1803996954 628403237 -366098479 -252521515 -2043156104 596148465 61090920 -1429813643 384863668 -845416758 801609230 -362557276 -404447846 1781058044 1535210410 -104840133 -871056265 -273389747 -198112311 1101755673 -1232608942 1837471970 533018382 -2058234368 2010052676 269667241
REM
CELL 1.54180   50.00000   50.00000   50.00000   90.00000   90.00000   90.00000
LATT -1
SFAC C  
C      1  0.6096400000000  0.5023800000000  0.5188340000000 1.0
C      1  0.5069570000000  0.5919890000000  0.4930740000000 1.0
C      1  0.4960570000000  0.5195030000000  0.6049090000000 1.0
C      1  0.5876840000000  0.5235590000000  0.4798650000000 1.0
C      1  0.3969480000000  0.5106940000000  0.5240510000000 1.0
C      1  0.3859690000000  0.4802560000000  0.4916910000000 1.0
C      1  0.5144690000000  0.3961590000000  0.5094960000000 1.0
C      1  0.5088760000000  0.3724760000000  0.4678250000000 1.0
C      1  0.4557470000000  0.6030160000000  0.4919240000000 1.0
C      1  0.4970040000000  0.4865440000000  0.3734510000000 1.0
C      1  0.5185210000000  0.4742270000000  0.5973900000000 1.0
C      1  0.5198420000000  0.5243130000000  0.3945530000000 1.0
C      1  0.3986360000000  0.4835000000000  0.5169610000000 1.0
C      1  0.4823200000000  0.6055590000000  0.4935790000000 1.0
C      1  0.5217610000000  0.5323990000000  0.6080010000000 1.0
C      1  0.3936070000000  0.4970550000000  0.4718920000000 1.0
C      1  0.5970280000000  0.5192940000000  0.5383950000000 1.0
C      1  0.5939460000000  0.4988740000000  0.4951130000000 1.0
C      1  0.4323900000000  0.3900640000000  0.5139150000000 1.0
C      1  0.5118810000000  0.3962590000000  0.4811720000000 1.0
C      1  0.5249570000000  0.5939120000000  0.5153600000000 1.0
C      1  0.5001810000000  0.4608590000000  0.3807760000000 1.0
C      1  0.4937870000000  0.4912170000000  0.6000200000000 1.0
C      1  0.4954730000000  0.5127910000000  0.3839940000000 1.0
C      1  0.5194030000000  0.5845140000000  0.5905830000000 1.0
C      1  0.5669370000000  0.4852330000000  0.5703810000000 1.0
C      1  0.5598680000000  0.5658530000000  0.4912240000000 1.0
C      1  0.4899270000000  0.4443600000000  0.4275650000000 1.0
C      1  0.5129350000000  0.4462520000000  0.5933700000000 1.0
C      1  0.5158690000000  0.5407750000000  0.4182410000000 1.0
C      1  0.5734370000000  0.5236160000000  0.4547260000000 1.0
C      1  0.4286410000000  0.5128200000000  0.5643900000000 1.0
C      1  0.4052170000000  0.5124580000000  0.4091650000000 1.0
C      1  0.5603880000000  0.4335270000000  0.5142680000000 1.0
C      1  0.4453490000000  0.4355280000000  0.4883620000000 1.0
C      1  0.4373500000000  0.5842700000000  0.4864260000000 1.0
C      1  0.5229340000000  0.5564900000000  0.5917870000000 1.0
C      1  0.4429150000000  0.4881440000000  0.5683480000000 1.0
C      1  0.4387680000000  0.5576880000000  0.4774740000000 1.0
C      1  0.4994800000000  0.4434250000000  0.4013190000000 1.0
C      1  0.5020020000000  0.4273420000000  0.5771270000000 1.0
C      1  0.4982000000000  0.5616980000000  0.4255880000000 1.0
C      1  0.4150930000000  0.5123240000000  0.4337370000000 1.0
C      1  0.5749080000000  0.5079530000000  0.5532180000000 1.0
C      1  0.5766270000000  0.5066450000000  0.4321810000000 1.0
C      1  0.4378110000000  0.4121000000000  0.5011060000000 1.0
C      1  0.5559080000000  0.4273750000000  0.4871430000000 1.0
C      1  0.5494020000000  0.5790290000000  0.5141890000000 1.0
C      1  0.4413560000000  0.4702710000000  0.5439410000000 1.0
C      1  0.5370580000000  0.4371620000000  0.4678450000000 1.0
C      1  0.4687190000000  0.5141530000000  0.4262130000000 1.0
C      1  0.4233550000000  0.5078830000000  0.4634160000000 1.0
C      1  0.5496870000000  0.5146880000000  0.5411040000000 1.0
C      1  0.5469670000000  0.4833520000000  0.4854640000000 1.0
C      1  0.5552060000000  0.5647790000000  0.5374980000000 1.0
C      1  0.4606210000000  0.5516270000000  0.4585250000000 1.0
C      1  0.4808080000000  0.4372090000000  0.5333350000000 1.0
C      1  0.4876040000000  0.4809810000000  0.5546500000000 1.0
C      1  0.5362440000000  0.4799100000000  0.4368420000000 1.0
C      1  0.5237330000000  0.5461920000000  0.5654920000000 1.0
C      1  0.5648740000000  0.4636460000000  0.5508920000000 1.0
C      1  0.4623300000000  0.4369070000000  0.4650970000000 1.0
C      1  0.5229260000000  0.5248460000000  0.4409790000000 1.0
C      1  0.5389870000000  0.5128450000000  0.4834710000000 1.0
C      1  0.4309680000000  0.5335240000000  0.5441240000000 1.0
C      1  0.4380890000000  0.4798540000000  0.4699400000000 1.0
C      1  0.4657110000000  0.5528990000000  0.5197840000000 1.0
C      1  0.5397600000000  0.5598500000000  0.4710220000000 1.0
C      1  0.5404090000000  0.4282110000000  0.5344770000000 1.0
C      1  0.5175520000000  0.4734820000000  0.5510540000000 1.0
C      1  0.4750010000000  0.4682350000000  0.4339860000000 1.0
C      1  0.4753740000000  0.5320860000000  0.5602000000000 1.0
C      1  0.5934560000000  0.5444750000000  0.5236480000000 1.0
C      1  0.5173770000000  0.6029350000000  0.5414630000000 1.0
C      1  0.5440670000000  0.5142970000000  0.6064380000000 1.0
C      1  0.5739070000000  0.4787080000000  0.4990130000000 1.0
C      1  0.4242900000000  0.4703990000000  0.5201790000000 1.0
C      1  0.4245020000000  0.5341930000000  0.4881060000000 1.0
C      1  0.5125310000000  0.4209700000000  0.4658800000000 1.0
C      1  0.4968000000000  0.4200470000000  0.5499090000000 1.0
C      1  0.4882920000000  0.5650580000000  0.4529530000000 1.0
C      1  0.5554060000000  0.4930410000000  0.4186280000000 1.0
C      1  0.4715080000000  0.4853100000000  0.5811500000000 1.0
C      1  0.4717300000000  0.5202570000000  0.3985300000000 1.0
C      1  0.4172830000000  0.5299750000000  0.5177430000000 1.0
C      1  0.5167630000000  0.6001600000000  0.5683880000000 1.0
C      1  0.4781180000000  0.5341850000000  0.5882080000000 1.0
C      1  0.4348630000000  0.4621570000000  0.4944980000000 1.0
C      1  0.5733980000000  0.4593260000000  0.5214460000000 1.0
C      1  0.5826550000000  0.5473650000000  0.4967390000000 1.0
C      1  0.4883700000000  0.4291380000000  0.4526330000000 1.0
C      1  0.5188490000000  0.4100010000000  0.5338240000000 1.0
C      1  0.5117630000000  0.5727020000000  0.4716020000000 1.0
C      1  0.3968450000000  0.5115770000000  0.3844930000000 1.0
C      1  0.5451530000000  0.4886980000000  0.5923840000000 1.0
C      1  0.5432180000000  0.5071240000000  0.3963540000000 1.0
C      1  0.5014190000000  0.4659260000000  0.4987080000000 1.0
C      1  0.4865480000000  0.4932760000000  0.4338410000000 1.0
C      1  0.4663700000000  0.5320190000000  0.5030260000000 1.0
C      1  0.5270590000000  0.4758630000000  0.5061790000000 1.0
C      1  0.4988250000000  0.5292020000000  0.4752870000000 1.0
C      1  0.4918530000000  0.4412970000000  0.5076860000000 1.0
C      1  0.4881340000000  0.5109420000000  0.5446780000000 1.0
C      1  0.5137850000000  0.4977790000000  0.4390660000000 1.0
C      1  0.5286980000000  0.4942330000000  0.5311220000000 1.0
C      1  0.5071910000000  0.5142440000000  0.5231790000000 1.0
C      1  0.4673630000000  0.5060510000000  0.4969870000000 1.0
C      1  0.5144850000000  0.5214590000000  0.4963810000000 1.0
C      1  0.4561790000000  0.5466930000000  0.5452640000000 1.0
C      1  0.5416370000000  0.4653030000000  0.4608990000000 1.0
C      1  0.5376640000000  0.4520120000000  0.5512030000000 1.0
C      1  0.5446360000000  0.5317630000000  0.4598380000000 1.0
C      1  0.4543970000000  0.4631580000000  0.4525860000000 1.0
C      1  0.4686510000000  0.4607410000000  0.5422730000000 1.0
C      1  0.4542620000000  0.5259920000000  0.4469900000000 1.0
C      1  0.5425520000000  0.5415970000000  0.5462450000000 1.0
C      1  0.4818670000000  0.4844700000000  0.4915670000000 1.0
END
