TITL C-3623285-6872-330 20119.5578407926 125000 -244.197229306738 0 0 40 (C3) n - 1
REM
REM in /home/nfs/bkarasulu/CARBON/AIRSS/Generating-Clusters/LCBOP/Higher-Symm/SD-CG/FIRE-CG
REM
REM
REM
REM
REM
REM ./C.cell (b20cbc046b6831c77cfcea5457e17084)
REM AIRSS Version 0.9.1 bugfix July 2018 build 013d7b7c2542+ Fri, 06 Jul 2018 19:26:36 +0100
REM compiler GCC version 9.2.1 20190827 (Red Hat 9.2.1-1)
REM options -cpp -mtune=generic -march=x86-64 -g -O0 -fpre-include=/usr/include/finclude/math-vector-fortran.h
REM seed -757917336 1081650987 -2056014202 -784190541 1000896296 -220603528 842422825 -1331653295 116856844 -1727575844 1148236698 1468404261 -1068512150 -2079758606 582443206 1799904545 1166884157 1304343335 -1037005855 1670458465 -1245349814 1250770357 1977718826 2070671990 2110042850 -1852527205 -2137574720 228555004 -1586710949 1944784520 -1756524259 -1316484306 -1407930220
REM
CELL 1.54180   50.00000   50.00000   50.00000   90.00000   90.00000   90.00000
LATT -1
SFAC C  
C      1  0.5017010000000  0.4512560000000  0.4827620000000 1.0
C      1  0.5420150000000  0.5280280000000  0.4827550000000 1.0
C      1  0.4553530000000  0.5245700000000  0.4827090000000 1.0
C      1  0.5672960000000  0.4886580000000  0.4655270000000 1.0
C      1  0.4768280000000  0.5661420000000  0.4655190000000 1.0
C      1  0.4549560000000  0.4490520000000  0.4655990000000 1.0
C      1  0.4811650000000  0.5231710000000  0.4448870000000 1.0
C      1  0.4899870000000  0.4742770000000  0.4449140000000 1.0
C      1  0.5279130000000  0.5063760000000  0.4449060000000 1.0
C      1  0.5529250000000  0.4719540000000  0.4844950000000 1.0
C      1  0.4984720000000  0.5620450000000  0.4845010000000 1.0
C      1  0.4476950000000  0.4698720000000  0.4845520000000 1.0
C      1  0.4638330000000  0.5415910000000  0.4594490000000 1.0
C      1  0.4827090000000  0.4500730000000  0.4595100000000 1.0
C      1  0.5525220000000  0.5121830000000  0.4594810000000 1.0
C      1  0.4852840000000  0.5572890000000  0.5095990000000 1.0
C      1  0.4584090000000  0.4608720000000  0.5096690000000 1.0
C      1  0.5554170000000  0.4857400000000  0.5095940000000 1.0
C      1  0.4542280000000  0.4630390000000  0.5385240000000 1.0
C      1  0.5557060000000  0.4809660000000  0.5384130000000 1.0
C      1  0.4891730000000  0.5598520000000  0.5384590000000 1.0
C      1  0.4869360000000  0.4845060000000  0.5747560000000 1.0
C      1  0.5209140000000  0.4981270000000  0.5747880000000 1.0
C      1  0.4910160000000  0.5208960000000  0.5748350000000 1.0
C      1  0.5181590000000  0.5433630000000  0.4739080000000 1.0
C      1  0.4539990000000  0.4962440000000  0.4738950000000 1.0
C      1  0.5269070000000  0.4642390000000  0.4739030000000 1.0
C      1  0.4673750000000  0.5330090000000  0.5072420000000 1.0
C      1  0.4883850000000  0.4574180000000  0.5073160000000 1.0
C      1  0.5433820000000  0.5134180000000  0.5073130000000 1.0
C      1  0.4788360000000  0.4702410000000  0.5525240000000 1.0
C      1  0.5371610000000  0.4985960000000  0.5524890000000 1.0
C      1  0.4831050000000  0.5349390000000  0.5524460000000 1.0
C      1  0.4967980000000  0.4736330000000  0.5293450000000 1.0
C      1  0.5251790000000  0.5125390000000  0.5294010000000 1.0
C      1  0.4772460000000  0.5176510000000  0.5292750000000 1.0
C      1  0.4720460000000  0.4961410000000  0.4495060000000 1.0
C      1  0.5179530000000  0.4799060000000  0.4495150000000 1.0
C      1  0.5090640000000  0.5277800000000  0.4495150000000 1.0
C      1  0.4997500000000  0.5012950000000  0.5241420000000 1.0
END
