TITL C-3623282-6910-1739 1.75125573236795e-07 125000 -171.737942691969 0 0 34 (C1) n - 1
REM
REM in /home/nfs/bkarasulu/CARBON/AIRSS/Generating-Clusters/LCBOP/Higher-Symm/SD-CG/FIRE-CG
REM
REM
REM
REM
REM
REM ./C.cell (b20cbc046b6831c77cfcea5457e17084)
REM AIRSS Version 0.9.1 bugfix July 2018 build 013d7b7c2542+ Fri, 06 Jul 2018 19:26:36 +0100
REM compiler GCC version 9.2.1 20190827 (Red Hat 9.2.1-1)
REM options -cpp -mtune=generic -march=x86-64 -g -O0 -fpre-include=/usr/include/finclude/math-vector-fortran.h
REM seed 598285462 -1509334500 520636649 1452298158 1461585253 170370695 1934343227 1417107032 -245237191 526228262 1778782133 1152683209 912775464 -1842342236 -1224160742 1599247125 1300000475 123604758 -1056550620 21624230 -953874311 521977450 2140920337 -1105815322 -251246907 845844200 1787867050 -530378463 178560011 731326786 -1437774773 -850146259 579783670
REM
CELL 1.54180   50.00000   50.00000   50.00000   90.00000   90.00000   90.00000
LATT -1
SFAC C  
C      1  0.4752300000000  0.5124300000000  0.4535450000000 1.0
C      1  0.4451800000000  0.5074000000000  0.5096130000000 1.0
C      1  0.4908010000000  0.5125650000000  0.5560150000000 1.0
C      1  0.5502210000000  0.5117850000000  0.5274700000000 1.0
C      1  0.5395640000000  0.5120060000000  0.4619240000000 1.0
C      1  0.4745690000000  0.4887130000000  0.5514030000000 1.0
C      1  0.4441520000000  0.4836990000000  0.4925380000000 1.0
C      1  0.4906030000000  0.4883580000000  0.4474410000000 1.0
C      1  0.5477260000000  0.4877990000000  0.4761350000000 1.0
C      1  0.5384220000000  0.4883920000000  0.5404030000000 1.0
C      1  0.5255970000000  0.4673250000000  0.5261230000000 1.0
C      1  0.5297500000000  0.4667320000000  0.4828340000000 1.0
C      1  0.4903450000000  0.4656240000000  0.4644480000000 1.0
C      1  0.4604820000000  0.4606850000000  0.4974210000000 1.0
C      1  0.4833240000000  0.4662200000000  0.5363240000000 1.0
C      1  0.5305970000000  0.5354640000000  0.4751080000000 1.0
C      1  0.5356550000000  0.5356400000000  0.5225570000000 1.0
C      1  0.4927210000000  0.5344620000000  0.5377780000000 1.0
C      1  0.4640070000000  0.5283020000000  0.5056380000000 1.0
C      1  0.4860580000000  0.5341540000000  0.4685920000000 1.0
C      1  0.4473430000000  0.5080170000000  0.4510370000000 1.0
C      1  0.4328040000000  0.5043810000000  0.5348610000000 1.0
C      1  0.5115480000000  0.5081120000000  0.5747930000000 1.0
C      1  0.5735420000000  0.5057090000000  0.5126620000000 1.0
C      1  0.5329620000000  0.5072460000000  0.4348250000000 1.0
C      1  0.4467640000000  0.4927450000000  0.5548880000000 1.0
C      1  0.4344400000000  0.4899710000000  0.4666580000000 1.0
C      1  0.5111610000000  0.4925400000000  0.4285030000000 1.0
C      1  0.5721320000000  0.4907980000000  0.4901450000000 1.0
C      1  0.5326470000000  0.4926610000000  0.5677970000000 1.0
C      1  0.5081280000000  0.5097380000000  0.5016390000000 1.0
C      1  0.4926890000000  0.4895810000000  0.5007310000000 1.0
C      1  0.4982990000000  0.4623550000000  0.5016690000000 1.0
C      1  0.5007660000000  0.5353680000000  0.5021950000000 1.0
END
