TITL C-3623286-7563-132 -7.10513823114798e-07 125000 -1022.89007018098 0 0 166 (C1) n - 1
REM
REM in /home/nfs/bkarasulu/CARBON/AIRSS/Generating-Clusters/LCBOP/Higher-Symm/SD-CG/FIRE-CG
REM
REM
REM
REM
REM
REM ./C.cell (b20cbc046b6831c77cfcea5457e17084)
REM AIRSS Version 0.9.1 bugfix July 2018 build 013d7b7c2542+ Fri, 06 Jul 2018 19:26:36 +0100
REM compiler GCC version 9.2.1 20190827 (Red Hat 9.2.1-1)
REM options -cpp -mtune=generic -march=x86-64 -g -O0 -fpre-include=/usr/include/finclude/math-vector-fortran.h
REM seed -1261912914 -190582777 -1320668722 489924024 -333052267 -1433448342 -419769718 -1600665842 272196069 -1484663361 -1220916999 -399284890 -1757813069 350554583 -78790903 1093662500 324268204 -1353519470 2059355388 1027302513 -1110302330 -1931962350 556161179 -1415861342 -790486238 1417208266 -575207586 1132794513 -349626558 -170736846 859021167 239435806 -1912735235
REM
CELL 1.54180   50.00000   50.00000   50.00000   90.00000   90.00000   90.00000
LATT -1
SFAC C  
C      1  0.4629270000000  0.4389260000000  0.5011870000000 1.0
C      1  0.4833630000000  0.5290130000000  0.4278580000000 1.0
C      1  0.4881350000000  0.5454730000000  0.5538950000000 1.0
C      1  0.5164290000000  0.4538030000000  0.5365640000000 1.0
C      1  0.5108630000000  0.4927760000000  0.4296740000000 1.0
C      1  0.5113680000000  0.5858840000000  0.5301340000000 1.0
C      1  0.5702330000000  0.5038910000000  0.5414360000000 1.0
C      1  0.5730560000000  0.4709890000000  0.5006100000000 1.0
C      1  0.5580920000000  0.5357610000000  0.4678670000000 1.0
C      1  0.5017070000000  0.5145670000000  0.4457380000000 1.0
C      1  0.5157010000000  0.5146380000000  0.5189890000000 1.0
C      1  0.5180010000000  0.4679420000000  0.5112020000000 1.0
C      1  0.4729830000000  0.4707660000000  0.4493620000000 1.0
C      1  0.4609650000000  0.5528090000000  0.4922830000000 1.0
C      1  0.4532630000000  0.4922980000000  0.5592860000000 1.0
C      1  0.4124260000000  0.5109130000000  0.5389700000000 1.0
C      1  0.4211270000000  0.4600690000000  0.4946640000000 1.0
C      1  0.4160760000000  0.5253750000000  0.4644020000000 1.0
C      1  0.5235990000000  0.5173380000000  0.3768690000000 1.0
C      1  0.5438550000000  0.5877890000000  0.5803930000000 1.0
C      1  0.5282730000000  0.3919680000000  0.5539680000000 1.0
C      1  0.5601080000000  0.4899270000000  0.5181770000000 1.0
C      1  0.5487850000000  0.5072550000000  0.4691440000000 1.0
C      1  0.5537470000000  0.5449230000000  0.4963610000000 1.0
C      1  0.5303570000000  0.5444920000000  0.5979100000000 1.0
C      1  0.5172250000000  0.3972900000000  0.5060210000000 1.0
C      1  0.5088540000000  0.5631850000000  0.3842000000000 1.0
C      1  0.4314060000000  0.4845150000000  0.4824080000000 1.0
C      1  0.4096080000000  0.5332510000000  0.4918190000000 1.0
C      1  0.4008560000000  0.4863260000000  0.5310760000000 1.0
C      1  0.4768370000000  0.6194190000000  0.5033550000000 1.0
C      1  0.4915160000000  0.4453900000000  0.5907020000000 1.0
C      1  0.4919210000000  0.4405580000000  0.3973250000000 1.0
C      1  0.4162690000000  0.4960120000000  0.4600900000000 1.0
C      1  0.4122550000000  0.5339940000000  0.5212860000000 1.0
C      1  0.4067160000000  0.4610450000000  0.5198780000000 1.0
C      1  0.4952520000000  0.5296500000000  0.4699820000000 1.0
C      1  0.4927950000000  0.5012430000000  0.5339070000000 1.0
C      1  0.5019390000000  0.4656380000000  0.4878220000000 1.0
C      1  0.4916860000000  0.4835210000000  0.4101970000000 1.0
C      1  0.4835720000000  0.5864200000000  0.5326250000000 1.0
C      1  0.4901590000000  0.4445310000000  0.5428130000000 1.0
C      1  0.5476260000000  0.5046780000000  0.3842740000000 1.0
C      1  0.5625270000000  0.5732760000000  0.5642070000000 1.0
C      1  0.5451370000000  0.4074360000000  0.5698690000000 1.0
C      1  0.4999350000000  0.4272770000000  0.6112660000000 1.0
C      1  0.5117250000000  0.4459840000000  0.3761400000000 1.0
C      1  0.5007440000000  0.6329640000000  0.5154750000000 1.0
C      1  0.5371450000000  0.4371870000000  0.3883590000000 1.0
C      1  0.5219230000000  0.6280360000000  0.4956320000000 1.0
C      1  0.5117950000000  0.4473560000000  0.6300360000000 1.0
C      1  0.5381430000000  0.4849810000000  0.4311840000000 1.0
C      1  0.5294680000000  0.5648250000000  0.5291700000000 1.0
C      1  0.5384170000000  0.4555160000000  0.5564740000000 1.0
C      1  0.4324120000000  0.5119110000000  0.5609460000000 1.0
C      1  0.4357790000000  0.4348830000000  0.4929190000000 1.0
C      1  0.4327050000000  0.5344230000000  0.4414770000000 1.0
C      1  0.5835540000000  0.4955590000000  0.4167450000000 1.0
C      1  0.5745030000000  0.5619880000000  0.5129540000000 1.0
C      1  0.5839140000000  0.4347420000000  0.5586060000000 1.0
C      1  0.5934970000000  0.4554160000000  0.5117810000000 1.0
C      1  0.5855840000000  0.5315970000000  0.4549580000000 1.0
C      1  0.5923090000000  0.5207440000000  0.5362920000000 1.0
C      1  0.4366150000000  0.4316850000000  0.5926770000000 1.0
C      1  0.4254040000000  0.4428520000000  0.3916800000000 1.0
C      1  0.4136940000000  0.6215540000000  0.5346630000000 1.0
C      1  0.4909770000000  0.3986500000000  0.4935860000000 1.0
C      1  0.4843110000000  0.5676560000000  0.4014250000000 1.0
C      1  0.5038710000000  0.5333840000000  0.5979990000000 1.0
C      1  0.4899660000000  0.4010460000000  0.6044450000000 1.0
C      1  0.5012610000000  0.4661570000000  0.3584590000000 1.0
C      1  0.4992530000000  0.6325960000000  0.5446840000000 1.0
C      1  0.4222390000000  0.5055250000000  0.4068680000000 1.0
C      1  0.4335220000000  0.5612370000000  0.5610990000000 1.0
C      1  0.4199050000000  0.4110110000000  0.5314030000000 1.0
C      1  0.4350960000000  0.5523240000000  0.3963840000000 1.0
C      1  0.4554720000000  0.5410080000000  0.5988040000000 1.0
C      1  0.4443480000000  0.3860910000000  0.4986460000000 1.0
C      1  0.4499670000000  0.5840840000000  0.5716580000000 1.0
C      1  0.4365170000000  0.3945900000000  0.5497250000000 1.0
C      1  0.4384330000000  0.5005250000000  0.3829080000000 1.0
C      1  0.4659670000000  0.4548820000000  0.5268670000000 1.0
C      1  0.4582430000000  0.5192930000000  0.4363590000000 1.0
C      1  0.4742750000000  0.5607110000000  0.5360370000000 1.0
C      1  0.4420130000000  0.4469750000000  0.5465660000000 1.0
C      1  0.4547990000000  0.4895090000000  0.4365520000000 1.0
C      1  0.4532150000000  0.5557560000000  0.5188450000000 1.0
C      1  0.5994660000000  0.4321040000000  0.5809910000000 1.0
C      1  0.5968050000000  0.4735430000000  0.4050750000000 1.0
C      1  0.5819850000000  0.5873230000000  0.4994920000000 1.0
C      1  0.4998390000000  0.4411090000000  0.4722230000000 1.0
C      1  0.4926220000000  0.5590350000000  0.4604930000000 1.0
C      1  0.4966950000000  0.5013420000000  0.5629130000000 1.0
C      1  0.5034730000000  0.4335180000000  0.4229940000000 1.0
C      1  0.4836600000000  0.6021880000000  0.4806550000000 1.0
C      1  0.4837900000000  0.4718920000000  0.5995820000000 1.0
C      1  0.4830280000000  0.4244600000000  0.4870680000000 1.0
C      1  0.4941670000000  0.5576460000000  0.4299360000000 1.0
C      1  0.4997250000000  0.5271670000000  0.5709230000000 1.0
C      1  0.5526370000000  0.5304860000000  0.5830600000000 1.0
C      1  0.5383640000000  0.4123600000000  0.4942530000000 1.0
C      1  0.5318390000000  0.5671080000000  0.4003520000000 1.0
C      1  0.4742070000000  0.4623410000000  0.4004890000000 1.0
C      1  0.4636660000000  0.6055500000000  0.5240010000000 1.0
C      1  0.4798210000000  0.4363910000000  0.5679770000000 1.0
C      1  0.4758920000000  0.5744660000000  0.4777800000000 1.0
C      1  0.4757600000000  0.4884110000000  0.5781500000000 1.0
C      1  0.4912220000000  0.4465870000000  0.4452560000000 1.0
C      1  0.5714510000000  0.6118740000000  0.4968540000000 1.0
C      1  0.5473580000000  0.4699320000000  0.6025590000000 1.0
C      1  0.5869980000000  0.4530300000000  0.3905340000000 1.0
C      1  0.5495140000000  0.4333280000000  0.4808690000000 1.0
C      1  0.5261530000000  0.5606840000000  0.4273280000000 1.0
C      1  0.5453200000000  0.4778040000000  0.5751560000000 1.0
C      1  0.5552630000000  0.4956990000000  0.4106350000000 1.0
C      1  0.5567080000000  0.5702250000000  0.5367550000000 1.0
C      1  0.5554100000000  0.4322470000000  0.5602810000000 1.0
C      1  0.5957710000000  0.5437450000000  0.5225480000000 1.0
C      1  0.5957800000000  0.4409650000000  0.5340540000000 1.0
C      1  0.5931430000000  0.5148400000000  0.4350140000000 1.0
C      1  0.5594530000000  0.3883140000000  0.6183160000000 1.0
C      1  0.5821760000000  0.5010410000000  0.3427680000000 1.0
C      1  0.5989570000000  0.5483420000000  0.5866230000000 1.0
C      1  0.4930870000000  0.4706470000000  0.6270500000000 1.0
C      1  0.5307230000000  0.4279920000000  0.4154930000000 1.0
C      1  0.5100360000000  0.6124060000000  0.4739950000000 1.0
C      1  0.4794230000000  0.4801680000000  0.4769420000000 1.0
C      1  0.4695330000000  0.5255130000000  0.4851960000000 1.0
C      1  0.4670610000000  0.4857010000000  0.5324350000000 1.0
C      1  0.5325410000000  0.4920670000000  0.5134850000000 1.0
C      1  0.5487690000000  0.4808680000000  0.4583240000000 1.0
C      1  0.5285900000000  0.5405840000000  0.5129540000000 1.0
C      1  0.4286370000000  0.5549950000000  0.5324360000000 1.0
C      1  0.4164100000000  0.4397550000000  0.5369700000000 1.0
C      1  0.4254190000000  0.4885650000000  0.4323970000000 1.0
C      1  0.4375980000000  0.5366860000000  0.5764620000000 1.0
C      1  0.4273630000000  0.4085210000000  0.5033750000000 1.0
C      1  0.4218550000000  0.5345570000000  0.4141500000000 1.0
C      1  0.5733660000000  0.5501820000000  0.5774420000000 1.0
C      1  0.5526210000000  0.3980160000000  0.5951120000000 1.0
C      1  0.5664240000000  0.5017210000000  0.3635240000000 1.0
C      1  0.5497080000000  0.6274080000000  0.4982370000000 1.0
C      1  0.5383840000000  0.4555020000000  0.6236420000000 1.0
C      1  0.5640520000000  0.4417780000000  0.3822740000000 1.0
C      1  0.4474480000000  0.4559410000000  0.3965730000000 1.0
C      1  0.4377470000000  0.6121570000000  0.5310820000000 1.0
C      1  0.4514800000000  0.4365760000000  0.5704660000000 1.0
C      1  0.4756400000000  0.3889270000000  0.5841060000000 1.0
C      1  0.4812090000000  0.4850300000000  0.3576950000000 1.0
C      1  0.4885360000000  0.6189260000000  0.5663530000000 1.0
C      1  0.4751090000000  0.5314820000000  0.3728080000000 1.0
C      1  0.4935770000000  0.5780360000000  0.5960940000000 1.0
C      1  0.4817470000000  0.3815100000000  0.5350820000000 1.0
C      1  0.4637450000000  0.5053070000000  0.3691770000000 1.0
C      1  0.4766110000000  0.5955330000000  0.5796860000000 1.0
C      1  0.4639360000000  0.3865250000000  0.5574090000000 1.0
C      1  0.5038260000000  0.5368400000000  0.3725030000000 1.0
C      1  0.5236170000000  0.5738680000000  0.5946540000000 1.0
C      1  0.5106060000000  0.3878070000000  0.5330480000000 1.0
C      1  0.5581760000000  0.4606070000000  0.4773030000000 1.0
C      1  0.5430780000000  0.5529280000000  0.4481670000000 1.0
C      1  0.5552470000000  0.5043070000000  0.5671310000000 1.0
C      1  0.4710030000000  0.3830520000000  0.5075900000000 1.0
C      1  0.4621140000000  0.5531650000000  0.3884010000000 1.0
C      1  0.4816880000000  0.5515530000000  0.6044860000000 1.0
C      1  0.4588000000000  0.4979390000000  0.4860920000000 1.0
END
