TITL C-3623288-6813-569 135174.229693249 125000 -762.494170411069 0 0 125 (C1) n - 1
REM
REM in /home/nfs/bkarasulu/CARBON/AIRSS/Generating-Clusters/LCBOP/Higher-Symm/SD-CG/FIRE-CG
REM
REM
REM
REM
REM
REM ./C.cell (b20cbc046b6831c77cfcea5457e17084)
REM AIRSS Version 0.9.1 bugfix July 2018 build 013d7b7c2542+ Fri, 06 Jul 2018 19:26:36 +0100
REM compiler GCC version 9.2.1 20190827 (Red Hat 9.2.1-1)
REM options -cpp -mtune=generic -march=x86-64 -g -O0 -fpre-include=/usr/include/finclude/math-vector-fortran.h
REM seed 678950712 628100048 129544801 957435026 -1105246589 373274376 -954510345 1215152359 -322276632 -397023684 -639911930 1509676818 1137974089 271006090 -98177202 -85661083 972982946 -772751648 -1672372992 341857262 -250500131 1278408013 -457291903 1383699564 -1984528503 -1493676417 483501358 369632066 1837368093 1674206106 -419452539 396673277 1561970053
REM
CELL 1.54180   50.00000   50.00000   50.00000   90.00000   90.00000   90.00000
LATT -1
SFAC C  
C      1  0.4784660000000  0.4797170000000  0.5941210000000 1.0
C      1  0.5271750000000  0.4963620000000  0.5985600000000 1.0
C      1  0.4880490000000  0.5280490000000  0.5993000000000 1.0
C      1  0.4505930000000  0.4695510000000  0.4943390000000 1.0
C      1  0.5509440000000  0.4767950000000  0.4957820000000 1.0
C      1  0.4900110000000  0.5583050000000  0.4980580000000 1.0
C      1  0.5789350000000  0.4730670000000  0.4915740000000 1.0
C      1  0.4797210000000  0.5837980000000  0.4894250000000 1.0
C      1  0.4356660000000  0.4469210000000  0.4859310000000 1.0
C      1  0.5074780000000  0.5465890000000  0.4796550000000 1.0
C      1  0.4534440000000  0.4923560000000  0.4751520000000 1.0
C      1  0.5343840000000  0.4665550000000  0.4738400000000 1.0
C      1  0.5131350000000  0.4783260000000  0.5595850000000 1.0
C      1  0.5140470000000  0.5272590000000  0.5619970000000 1.0
C      1  0.4726220000000  0.5047480000000  0.5576390000000 1.0
C      1  0.5086690000000  0.4559630000000  0.4855200000000 1.0
C      1  0.5303280000000  0.5325300000000  0.4873060000000 1.0
C      1  0.4532240000000  0.5182840000000  0.4898750000000 1.0
C      1  0.4107910000000  0.4372800000000  0.5261860000000 1.0
C      1  0.5661280000000  0.4422440000000  0.5305720000000 1.0
C      1  0.5008130000000  0.6098410000000  0.5210410000000 1.0
C      1  0.4282430000000  0.5318070000000  0.5486920000000 1.0
C      1  0.5120980000000  0.4205010000000  0.5401360000000 1.0
C      1  0.5643630000000  0.5485810000000  0.5421540000000 1.0
C      1  0.5787680000000  0.5776550000000  0.4659330000000 1.0
C      1  0.4036960000000  0.5251120000000  0.4661280000000 1.0
C      1  0.5260590000000  0.3945020000000  0.4617310000000 1.0
C      1  0.4678110000000  0.4711770000000  0.5171040000000 1.0
C      1  0.5385930000000  0.4907570000000  0.5160040000000 1.0
C      1  0.4867780000000  0.5416890000000  0.5210170000000 1.0
C      1  0.5538550000000  0.4890790000000  0.5904910000000 1.0
C      1  0.4789160000000  0.5547530000000  0.5972280000000 1.0
C      1  0.4603880000000  0.4635630000000  0.5791390000000 1.0
C      1  0.4643440000000  0.4962350000000  0.5320590000000 1.0
C      1  0.5315140000000  0.4760110000000  0.5388870000000 1.0
C      1  0.5058730000000  0.5459420000000  0.5427070000000 1.0
C      1  0.4985820000000  0.4350450000000  0.4705460000000 1.0
C      1  0.5506560000000  0.5337810000000  0.4679740000000 1.0
C      1  0.4538070000000  0.5405860000000  0.4731990000000 1.0
C      1  0.4107270000000  0.4495860000000  0.5007820000000 1.0
C      1  0.5795090000000  0.4444820000000  0.5008670000000 1.0
C      1  0.5035220000000  0.6007880000000  0.4933800000000 1.0
C      1  0.4173150000000  0.5085770000000  0.4461220000000 1.0
C      1  0.5175560000000  0.4211710000000  0.4498800000000 1.0
C      1  0.5608230000000  0.5593280000000  0.4498190000000 1.0
C      1  0.5338360000000  0.5777380000000  0.4494740000000 1.0
C      1  0.4363820000000  0.4889620000000  0.4507080000000 1.0
C      1  0.5438980000000  0.4399040000000  0.4553750000000 1.0
C      1  0.5894030000000  0.5453150000000  0.4994760000000 1.0
C      1  0.4186100000000  0.5500420000000  0.5027050000000 1.0
C      1  0.4942810000000  0.3983440000000  0.4982200000000 1.0
C      1  0.5185520000000  0.5711330000000  0.5423540000000 1.0
C      1  0.4329880000000  0.4723190000000  0.5574710000000 1.0
C      1  0.5609790000000  0.4620080000000  0.5799780000000 1.0
C      1  0.4728070000000  0.4865640000000  0.4209200000000 1.0
C      1  0.5269100000000  0.4736030000000  0.4113510000000 1.0
C      1  0.5060330000000  0.5493360000000  0.4122150000000 1.0
C      1  0.5611940000000  0.5063990000000  0.4562860000000 1.0
C      1  0.4701270000000  0.5414520000000  0.4505390000000 1.0
C      1  0.4548970000000  0.4440000000000  0.4386010000000 1.0
C      1  0.5916170000000  0.5086410000000  0.5315640000000 1.0
C      1  0.4472930000000  0.5756130000000  0.5341780000000 1.0
C      1  0.4637170000000  0.4079530000000  0.5343520000000 1.0
C      1  0.5828160000000  0.5430030000000  0.4343230000000 1.0
C      1  0.4303360000000  0.5373570000000  0.4274350000000 1.0
C      1  0.4942110000000  0.4116340000000  0.4309770000000 1.0
C      1  0.4401190000000  0.5444990000000  0.5716970000000 1.0
C      1  0.4986740000000  0.4321530000000  0.5631360000000 1.0
C      1  0.5632440000000  0.5346370000000  0.5672330000000 1.0
C      1  0.4739050000000  0.5162680000000  0.5115650000000 1.0
C      1  0.4946360000000  0.4702520000000  0.5059440000000 1.0
C      1  0.5230480000000  0.5103830000000  0.5031070000000 1.0
C      1  0.4836150000000  0.4937860000000  0.4679230000000 1.0
C      1  0.5381570000000  0.4881500000000  0.4545950000000 1.0
C      1  0.4974040000000  0.5388160000000  0.4553550000000 1.0
C      1  0.4712520000000  0.5070920000000  0.5874730000000 1.0
C      1  0.5075530000000  0.4762560000000  0.5887750000000 1.0
C      1  0.5159670000000  0.5232510000000  0.5915070000000 1.0
C      1  0.4906310000000  0.4061240000000  0.5250130000000 1.0
C      1  0.5834510000000  0.5350820000000  0.5248070000000 1.0
C      1  0.4294820000000  0.5535570000000  0.5283670000000 1.0
C      1  0.5172710000000  0.5751020000000  0.4234320000000 1.0
C      1  0.4500200000000  0.4722710000000  0.4316680000000 1.0
C      1  0.5450400000000  0.4531220000000  0.4232640000000 1.0
C      1  0.5613140000000  0.4260720000000  0.4832000000000 1.0
C      1  0.5294380000000  0.5892310000000  0.4820770000000 1.0
C      1  0.4000710000000  0.4761330000000  0.5023920000000 1.0
C      1  0.4848460000000  0.5031050000000  0.3991270000000 1.0
C      1  0.5097530000000  0.4873710000000  0.3912090000000 1.0
C      1  0.4805900000000  0.5336190000000  0.4041830000000 1.0
C      1  0.4331150000000  0.5618640000000  0.4775050000000 1.0
C      1  0.4767480000000  0.4136390000000  0.4760450000000 1.0
C      1  0.5988400000000  0.5261220000000  0.4789980000000 1.0
C      1  0.4519290000000  0.4276140000000  0.5505650000000 1.0
C      1  0.5808900000000  0.4912870000000  0.5508730000000 1.0
C      1  0.4696510000000  0.5801910000000  0.5525080000000 1.0
C      1  0.4711410000000  0.4395910000000  0.5682400000000 1.0
C      1  0.5681160000000  0.5069560000000  0.5727040000000 1.0
C      1  0.4624390000000  0.5629740000000  0.5758800000000 1.0
C      1  0.6053220000000  0.5383160000000  0.4531220000000 1.0
C      1  0.4138890000000  0.5522530000000  0.4547980000000 1.0
C      1  0.4789660000000  0.3948950000000  0.4508060000000 1.0
C      1  0.4746140000000  0.4306100000000  0.4219010000000 1.0
C      1  0.5720080000000  0.5163300000000  0.4295750000000 1.0
C      1  0.4584710000000  0.5389590000000  0.4242440000000 1.0
C      1  0.5431580000000  0.4110960000000  0.5017450000000 1.0
C      1  0.5505580000000  0.5789390000000  0.5038790000000 1.0
C      1  0.4069740000000  0.5014280000000  0.5140420000000 1.0
C      1  0.4210170000000  0.5025760000000  0.5416280000000 1.0
C      1  0.5400980000000  0.4241140000000  0.5284580000000 1.0
C      1  0.5454090000000  0.5692820000000  0.5313330000000 1.0
C      1  0.4967670000000  0.5909180000000  0.5425950000000 1.0
C      1  0.4288950000000  0.4449920000000  0.5462020000000 1.0
C      1  0.5727370000000  0.4621790000000  0.5525570000000 1.0
C      1  0.5188710000000  0.4874480000000  0.4351870000000 1.0
C      1  0.5142860000000  0.5322340000000  0.4340190000000 1.0
C      1  0.4921780000000  0.4889180000000  0.4422170000000 1.0
C      1  0.5852480000000  0.4986980000000  0.4763430000000 1.0
C      1  0.4518350000000  0.5854600000000  0.4819720000000 1.0
C      1  0.4507700000000  0.4317210000000  0.4665910000000 1.0
C      1  0.5768940000000  0.5709680000000  0.4932510000000 1.0
C      1  0.4053550000000  0.5246410000000  0.4956080000000 1.0
C      1  0.5225810000000  0.3947070000000  0.4900300000000 1.0
C      1  0.4962760000000  0.4993770000000  0.4962080000000 1.0
C      1  0.5010930000000  0.5034550000000  0.5541450000000 1.0
END
