TITL C-3623288-6813-340 -1.34859983855214e-06 125000 -883.635625797276 0 0 143 (C1) n - 1
REM
REM in /home/nfs/bkarasulu/CARBON/AIRSS/Generating-Clusters/LCBOP/Higher-Symm/SD-CG/FIRE-CG
REM
REM
REM
REM
REM
REM ./C.cell (b20cbc046b6831c77cfcea5457e17084)
REM AIRSS Version 0.9.1 bugfix July 2018 build 013d7b7c2542+ Fri, 06 Jul 2018 19:26:36 +0100
REM compiler GCC version 9.2.1 20190827 (Red Hat 9.2.1-1)
REM options -cpp -mtune=generic -march=x86-64 -g -O0 -fpre-include=/usr/include/finclude/math-vector-fortran.h
REM seed 1347467968 -870879947 1072434257 1242839780 1709373238 1849599891 2108223237 -213658810 2043357813 1053246773 640180877 -169778164 1428595486 -662871953 1064197552 -1035806252 1983761173 695202796 -694098198 -1774468707 -1291854614 1453064910 -1792795587 1570018617 1031785985 -650293077 -426629976 461878097 -759757853 845980039 1496887621 -312010318 -730396602
REM
CELL 1.54180   50.00000   50.00000   50.00000   90.00000   90.00000   90.00000
LATT -1
SFAC C  
C      1  0.5822880000000  0.5282230000000  0.4427050000000 1.0
C      1  0.5104070000000  0.5307930000000  0.5929490000000 1.0
C      1  0.4062850000000  0.5337120000000  0.4582260000000 1.0
C      1  0.4623940000000  0.5434100000000  0.4371430000000 1.0
C      1  0.5729210000000  0.5500310000000  0.4993440000000 1.0
C      1  0.4643760000000  0.5480030000000  0.5583650000000 1.0
C      1  0.4909000000000  0.4266440000000  0.5265440000000 1.0
C      1  0.4737850000000  0.4374090000000  0.4779080000000 1.0
C      1  0.5211350000000  0.4311620000000  0.4916030000000 1.0
C      1  0.5246330000000  0.5442170000000  0.4689850000000 1.0
C      1  0.5121850000000  0.5405760000000  0.5274670000000 1.0
C      1  0.4592870000000  0.5534450000000  0.4981430000000 1.0
C      1  0.5416990000000  0.4416500000000  0.5631180000000 1.0
C      1  0.4302440000000  0.4398500000000  0.5045670000000 1.0
C      1  0.5334120000000  0.4388170000000  0.4313630000000 1.0
C      1  0.4959670000000  0.5769680000000  0.5782610000000 1.0
C      1  0.4325990000000  0.5751690000000  0.4586770000000 1.0
C      1  0.5754230000000  0.5799520000000  0.4650820000000 1.0
C      1  0.4827010000000  0.5864690000000  0.4450680000000 1.0
C      1  0.5595780000000  0.5927070000000  0.5170980000000 1.0
C      1  0.4541150000000  0.5929490000000  0.5471990000000 1.0
C      1  0.5101830000000  0.5637580000000  0.4831290000000 1.0
C      1  0.5153850000000  0.5657120000000  0.5111270000000 1.0
C      1  0.4657610000000  0.5791540000000  0.5027190000000 1.0
C      1  0.4133490000000  0.5682660000000  0.5255010000000 1.0
C      1  0.5212650000000  0.5682600000000  0.4182360000000 1.0
C      1  0.5628930000000  0.5696860000000  0.5604700000000 1.0
C      1  0.5370400000000  0.5332700000000  0.5440170000000 1.0
C      1  0.4422890000000  0.5342940000000  0.5094480000000 1.0
C      1  0.5188760000000  0.5300510000000  0.4448560000000 1.0
C      1  0.4576590000000  0.5709780000000  0.4444200000000 1.0
C      1  0.5733920000000  0.5792750000000  0.4949520000000 1.0
C      1  0.4699780000000  0.5753160000000  0.5648290000000 1.0
C      1  0.5629970000000  0.4873280000000  0.5057710000000 1.0
C      1  0.4605990000000  0.4860730000000  0.5517920000000 1.0
C      1  0.4774640000000  0.4822530000000  0.4374520000000 1.0
C      1  0.5139830000000  0.4109830000000  0.5340520000000 1.0
C      1  0.4547740000000  0.3963070000000  0.5053550000000 1.0
C      1  0.5186510000000  0.4088040000000  0.4725540000000 1.0
C      1  0.5585370000000  0.4586670000000  0.4994450000000 1.0
C      1  0.4642080000000  0.4562400000000  0.5509720000000 1.0
C      1  0.4765420000000  0.4530980000000  0.4334700000000 1.0
C      1  0.5523580000000  0.4944280000000  0.4270400000000 1.0
C      1  0.5383960000000  0.4959340000000  0.5793260000000 1.0
C      1  0.4162940000000  0.4962330000000  0.4895340000000 1.0
C      1  0.5514930000000  0.5324750000000  0.4032570000000 1.0
C      1  0.5605080000000  0.5325050000000  0.5930990000000 1.0
C      1  0.3891850000000  0.5294100000000  0.5054800000000 1.0
C      1  0.5491940000000  0.5599130000000  0.5845060000000 1.0
C      1  0.3995580000000  0.5588590000000  0.5007940000000 1.0
C      1  0.5483880000000  0.5581000000000  0.4192730000000 1.0
C      1  0.4778010000000  0.5118180000000  0.4015120000000 1.0
C      1  0.5947510000000  0.5118760000000  0.5286970000000 1.0
C      1  0.4265860000000  0.5116570000000  0.5677640000000 1.0
C      1  0.5659680000000  0.4583650000000  0.5684360000000 1.0
C      1  0.4124040000000  0.4578180000000  0.5204040000000 1.0
C      1  0.5262590000000  0.4575340000000  0.4071380000000 1.0
C      1  0.5177300000000  0.5593020000000  0.5864830000000 1.0
C      1  0.4112740000000  0.5600950000000  0.4714460000000 1.0
C      1  0.5672040000000  0.5533440000000  0.4508980000000 1.0
C      1  0.5839040000000  0.4423530000000  0.4618180000000 1.0
C      1  0.4909180000000  0.4458510000000  0.5934110000000 1.0
C      1  0.4310430000000  0.4469790000000  0.4502160000000 1.0
C      1  0.4773480000000  0.4838470000000  0.5099540000000 1.0
C      1  0.5081100000000  0.4849820000000  0.4744630000000 1.0
C      1  0.5210820000000  0.4744120000000  0.5296220000000 1.0
C      1  0.4308410000000  0.4966740000000  0.4270650000000 1.0
C      1  0.5996470000000  0.4911920000000  0.4774500000000 1.0
C      1  0.4713060000000  0.4945660000000  0.5960830000000 1.0
C      1  0.5008310000000  0.4971630000000  0.3895430000000 1.0
C      1  0.5943890000000  0.4968090000000  0.5542370000000 1.0
C      1  0.4062140000000  0.4959220000000  0.5524160000000 1.0
C      1  0.4163050000000  0.5206520000000  0.4346500000000 1.0
C      1  0.5857590000000  0.5105640000000  0.4638860000000 1.0
C      1  0.4908220000000  0.5116510000000  0.5829960000000 1.0
C      1  0.5626920000000  0.4822270000000  0.5846650000000 1.0
C      1  0.4001750000000  0.4811120000000  0.5082170000000 1.0
C      1  0.5429530000000  0.4815990000000  0.4031750000000 1.0
C      1  0.4405840000000  0.4340470000000  0.5838970000000 1.0
C      1  0.4618670000000  0.4414060000000  0.4117750000000 1.0
C      1  0.5981370000000  0.4313370000000  0.5103130000000 1.0
C      1  0.5618890000000  0.5465240000000  0.5436370000000 1.0
C      1  0.4279030000000  0.5443590000000  0.5319440000000 1.0
C      1  0.5067960000000  0.5439050000000  0.4235190000000 1.0
C      1  0.5351930000000  0.5173460000000  0.5977040000000 1.0
C      1  0.3984240000000  0.5163770000000  0.4794630000000 1.0
C      1  0.5696270000000  0.5163150000000  0.4202560000000 1.0
C      1  0.4809490000000  0.5366760000000  0.4159760000000 1.0
C      1  0.5804170000000  0.5374360000000  0.5241640000000 1.0
C      1  0.4374340000000  0.5365860000000  0.5571930000000 1.0
C      1  0.4211270000000  0.4475010000000  0.5703180000000 1.0
C      1  0.4777240000000  0.4491560000000  0.3892570000000 1.0
C      1  0.5991980000000  0.4471580000000  0.5323070000000 1.0
C      1  0.5459620000000  0.4884150000000  0.5312220000000 1.0
C      1  0.4529000000000  0.4905040000000  0.5220360000000 1.0
C      1  0.5075740000000  0.4852800000000  0.4457400000000 1.0
C      1  0.4812270000000  0.4854360000000  0.4831510000000 1.0
C      1  0.5240160000000  0.5040540000000  0.4874190000000 1.0
C      1  0.4992540000000  0.4933280000000  0.5270390000000 1.0
C      1  0.4760960000000  0.3859730000000  0.4914340000000 1.0
C      1  0.5050340000000  0.3881960000000  0.4900340000000 1.0
C      1  0.5166240000000  0.3876490000000  0.5170600000000 1.0
C      1  0.4657460000000  0.4961000000000  0.4621000000000 1.0
C      1  0.5533620000000  0.5083700000000  0.4842790000000 1.0
C      1  0.4867780000000  0.5053380000000  0.5523800000000 1.0
C      1  0.3920000000000  0.5047000000000  0.5268910000000 1.0
C      1  0.5298320000000  0.5063140000000  0.3902180000000 1.0
C      1  0.5814940000000  0.5057880000000  0.5801750000000 1.0
C      1  0.4835440000000  0.4708000000000  0.6055570000000 1.0
C      1  0.4225330000000  0.4731040000000  0.4417570000000 1.0
C      1  0.5995110000000  0.4663950000000  0.4634940000000 1.0
C      1  0.4382470000000  0.5069550000000  0.5048630000000 1.0
C      1  0.5275690000000  0.5035880000000  0.4394010000000 1.0
C      1  0.5401140000000  0.5063550000000  0.5522320000000 1.0
C      1  0.4656110000000  0.4318660000000  0.5369030000000 1.0
C      1  0.4869850000000  0.4358080000000  0.4521790000000 1.0
C      1  0.5422440000000  0.4381030000000  0.5092890000000 1.0
C      1  0.4587990000000  0.4953220000000  0.4163890000000 1.0
C      1  0.5930360000000  0.4939180000000  0.5057980000000 1.0
C      1  0.4478190000000  0.4949690000000  0.5781970000000 1.0
C      1  0.4252590000000  0.5893910000000  0.5415160000000 1.0
C      1  0.5021090000000  0.5890900000000  0.4234850000000 1.0
C      1  0.5692330000000  0.5924290000000  0.5444910000000 1.0
C      1  0.5312940000000  0.5882460000000  0.5172580000000 1.0
C      1  0.4671990000000  0.5976710000000  0.5222800000000 1.0
C      1  0.4963280000000  0.5840920000000  0.4697430000000 1.0
C      1  0.4456090000000  0.4200360000000  0.5196570000000 1.0
C      1  0.5129700000000  0.4237020000000  0.4477320000000 1.0
C      1  0.5375210000000  0.4285650000000  0.5371190000000 1.0
C      1  0.5901250000000  0.4260090000000  0.4847470000000 1.0
C      1  0.4670320000000  0.4299320000000  0.5898510000000 1.0
C      1  0.4385250000000  0.4319030000000  0.4259110000000 1.0
C      1  0.4119600000000  0.4652640000000  0.5497190000000 1.0
C      1  0.5010080000000  0.4661250000000  0.3922140000000 1.0
C      1  0.5893120000000  0.4659610000000  0.5512910000000 1.0
C      1  0.5532630000000  0.5396270000000  0.4774490000000 1.0
C      1  0.4857210000000  0.5349890000000  0.5437710000000 1.0
C      1  0.4595850000000  0.5232600000000  0.4571570000000 1.0
C      1  0.5174970000000  0.4422370000000  0.5810660000000 1.0
C      1  0.4433960000000  0.4422470000000  0.4773120000000 1.0
C      1  0.5607260000000  0.4396840000000  0.4438830000000 1.0
C      1  0.5113630000000  0.5155890000000  0.5100120000000 1.0
C      1  0.4934410000000  0.4362960000000  0.4995800000000 1.0
END
