TITL C-3623288-6813-374 0.043634322963277 125000 -279.430225363135 0 0 48 (C1) n - 1
REM
REM in /home/nfs/bkarasulu/CARBON/AIRSS/Generating-Clusters/LCBOP/Higher-Symm/SD-CG/FIRE-CG
REM
REM
REM
REM
REM
REM ./C.cell (b20cbc046b6831c77cfcea5457e17084)
REM AIRSS Version 0.9.1 bugfix July 2018 build 013d7b7c2542+ Fri, 06 Jul 2018 19:26:36 +0100
REM compiler GCC version 9.2.1 20190827 (Red Hat 9.2.1-1)
REM options -cpp -mtune=generic -march=x86-64 -g -O0 -fpre-include=/usr/include/finclude/math-vector-fortran.h
REM seed 1745557203 -907937227 983605708 -746212069 -1789930286 -261258284 1066971656 1691597894 333775825 -1273472651 1217159250 -1588874312 -1534830916 -1519493954 777606150 345147752 -281761980 -849779028 -1717460918 -367483584 -1901606305 -1024469741 -1473147582 -1154098427 1023821800 -1078348384 -1320596149 -369993132 -1102801861 -121138589 -1418423514 255048121 349701132
REM
CELL 1.54180   50.00000   50.00000   50.00000   90.00000   90.00000   90.00000
LATT -1
SFAC C  
C      1  0.5655010000000  0.5254580000000  0.4961570000000 1.0
C      1  0.5599670000000  0.5028360000000  0.4831280000000 1.0
C      1  0.5098290000000  0.5545980000000  0.5348980000000 1.0
C      1  0.5127040000000  0.5375430000000  0.4488350000000 1.0
C      1  0.4725090000000  0.4698790000000  0.4486450000000 1.0
C      1  0.4929790000000  0.4579450000000  0.4360450000000 1.0
C      1  0.5379230000000  0.4726940000000  0.5333790000000 1.0
C      1  0.4142800000000  0.5345010000000  0.5174910000000 1.0
C      1  0.4925380000000  0.5017470000000  0.4790480000000 1.0
C      1  0.5195730000000  0.4570220000000  0.4394420000000 1.0
C      1  0.4421030000000  0.4569820000000  0.5010900000000 1.0
C      1  0.5142500000000  0.4823740000000  0.5208560000000 1.0
C      1  0.5524590000000  0.4891270000000  0.5506430000000 1.0
C      1  0.5158660000000  0.4058400000000  0.5490480000000 1.0
C      1  0.5337150000000  0.5313020000000  0.4302510000000 1.0
C      1  0.4855770000000  0.5732060000000  0.4614790000000 1.0
C      1  0.4508910000000  0.4996700000000  0.5149010000000 1.0
C      1  0.4469220000000  0.4127530000000  0.5626520000000 1.0
C      1  0.5374920000000  0.4677640000000  0.4562150000000 1.0
C      1  0.5348550000000  0.5538500000000  0.5260210000000 1.0
C      1  0.4505340000000  0.4546180000000  0.5287230000000 1.0
C      1  0.4367030000000  0.5690460000000  0.5360260000000 1.0
C      1  0.4119160000000  0.5604760000000  0.5269610000000 1.0
C      1  0.5693290000000  0.4404970000000  0.5144690000000 1.0
C      1  0.4477850000000  0.4333170000000  0.5459800000000 1.0
C      1  0.5308600000000  0.4248510000000  0.5394110000000 1.0
C      1  0.4696330000000  0.4860570000000  0.4714340000000 1.0
C      1  0.5385460000000  0.4856180000000  0.4778080000000 1.0
C      1  0.5660780000000  0.5034550000000  0.5676230000000 1.0
C      1  0.5144790000000  0.4896970000000  0.4931480000000 1.0
C      1  0.5553850000000  0.5442520000000  0.5121010000000 1.0
C      1  0.4473530000000  0.3920250000000  0.5791660000000 1.0
C      1  0.5407610000000  0.5535720000000  0.4154030000000 1.0
C      1  0.5276910000000  0.6262220000000  0.4025860000000 1.0
C      1  0.5907760000000  0.4367370000000  0.5001510000000 1.0
C      1  0.5071750000000  0.5671550000000  0.4435610000000 1.0
C      1  0.4488930000000  0.4832020000000  0.4903730000000 1.0
C      1  0.4417210000000  0.5251880000000  0.5204900000000 1.0
C      1  0.5264220000000  0.6020920000000  0.4123500000000 1.0
C      1  0.5461060000000  0.4458280000000  0.5290330000000 1.0
C      1  0.4782950000000  0.5508650000000  0.4760720000000 1.0
C      1  0.4907330000000  0.4827760000000  0.5362660000000 1.0
C      1  0.4481610000000  0.3715970000000  0.5953430000000 1.0
C      1  0.4837100000000  0.5504370000000  0.5371170000000 1.0
C      1  0.4629470000000  0.4807110000000  0.5337580000000 1.0
C      1  0.5248750000000  0.5766290000000  0.4228520000000 1.0
C      1  0.4946450000000  0.5279310000000  0.4692730000000 1.0
C      1  0.4565560000000  0.5480550000000  0.5322970000000 1.0
END
