TITL C-3623286-7563-939 -1.42775199064382e-06 125000 -801.966681056064 0 0 128 (C1) n - 1
REM
REM in /home/nfs/bkarasulu/CARBON/AIRSS/Generating-Clusters/LCBOP/Higher-Symm/SD-CG/FIRE-CG
REM
REM
REM
REM
REM
REM ./C.cell (b20cbc046b6831c77cfcea5457e17084)
REM AIRSS Version 0.9.1 bugfix July 2018 build 013d7b7c2542+ Fri, 06 Jul 2018 19:26:36 +0100
REM compiler GCC version 9.2.1 20190827 (Red Hat 9.2.1-1)
REM options -cpp -mtune=generic -march=x86-64 -g -O0 -fpre-include=/usr/include/finclude/math-vector-fortran.h
REM seed -2105515547 319710305 -614734223 -931498749 -1819401579 -937425581 542563199 1706808165 -160546713 1268969457 1451693017 -558305647 -1650079842 1211414403 -1435930548 -1055905516 2008308710 374042391 -140851555 -138176776 1921529497 184057526 -926703110 1876363943 -2147129767 870110291 1573844631 -171329988 -552296557 424647674 -414418916 1909360163 1709448843
REM
CELL 1.54180   50.00000   50.00000   50.00000   90.00000   90.00000   90.00000
LATT -1
SFAC C  
C      1  0.5716300000000  0.5874470000000  0.4735020000000 1.0
C      1  0.5676870000000  0.6023440000000  0.5353700000000 1.0
C      1  0.5186840000000  0.5864960000000  0.5693040000000 1.0
C      1  0.4551440000000  0.5920040000000  0.5638930000000 1.0
C      1  0.4130540000000  0.5903540000000  0.5146900000000 1.0
C      1  0.4316160000000  0.5710350000000  0.4570980000000 1.0
C      1  0.4764860000000  0.5813400000000  0.4141220000000 1.0
C      1  0.5399270000000  0.5915970000000  0.4187850000000 1.0
C      1  0.4280210000000  0.5849590000000  0.5605640000000 1.0
C      1  0.4027170000000  0.5743580000000  0.4937920000000 1.0
C      1  0.4419470000000  0.5559980000000  0.4361430000000 1.0
C      1  0.4992500000000  0.5756740000000  0.3985950000000 1.0
C      1  0.5644770000000  0.5810530000000  0.4278500000000 1.0
C      1  0.5851260000000  0.5789350000000  0.4961780000000 1.0
C      1  0.5645730000000  0.5983840000000  0.5634120000000 1.0
C      1  0.4969050000000  0.5703310000000  0.5762570000000 1.0
C      1  0.5216850000000  0.5701600000000  0.4145610000000 1.0
C      1  0.5628340000000  0.5694030000000  0.4537960000000 1.0
C      1  0.5723880000000  0.5776650000000  0.5208360000000 1.0
C      1  0.5457630000000  0.5779580000000  0.5703040000000 1.0
C      1  0.4722480000000  0.5687960000000  0.5631060000000 1.0
C      1  0.4228390000000  0.5734790000000  0.5354320000000 1.0
C      1  0.4223670000000  0.5586000000000  0.4804800000000 1.0
C      1  0.4688630000000  0.5583870000000  0.4296230000000 1.0
C      1  0.4193960000000  0.4676060000000  0.4696090000000 1.0
C      1  0.4732180000000  0.4929730000000  0.4131680000000 1.0
C      1  0.5472990000000  0.4623650000000  0.4131880000000 1.0
C      1  0.5979100000000  0.4495190000000  0.4709050000000 1.0
C      1  0.5947540000000  0.4379630000000  0.5475970000000 1.0
C      1  0.5375050000000  0.4332470000000  0.6008260000000 1.0
C      1  0.4598690000000  0.4391650000000  0.5982250000000 1.0
C      1  0.4076240000000  0.4524340000000  0.5428250000000 1.0
C      1  0.5265950000000  0.6225290000000  0.5082980000000 1.0
C      1  0.5045290000000  0.6172900000000  0.5255010000000 1.0
C      1  0.4760960000000  0.6187530000000  0.5233560000000 1.0
C      1  0.4580930000000  0.6168830000000  0.5010220000000 1.0
C      1  0.4632080000000  0.6115940000000  0.4732010000000 1.0
C      1  0.4848070000000  0.6149030000000  0.4544480000000 1.0
C      1  0.5132410000000  0.6186070000000  0.4569740000000 1.0
C      1  0.5301570000000  0.6194440000000  0.4801390000000 1.0
C      1  0.5122830000000  0.4360880000000  0.6169020000000 1.0
C      1  0.4312280000000  0.4465190000000  0.5929240000000 1.0
C      1  0.3941320000000  0.4660780000000  0.5196780000000 1.0
C      1  0.4305480000000  0.4845690000000  0.4477470000000 1.0
C      1  0.4991450000000  0.4878380000000  0.4037300000000 1.0
C      1  0.5759350000000  0.4624290000000  0.4217940000000 1.0
C      1  0.6132420000000  0.4485640000000  0.4964220000000 1.0
C      1  0.5876180000000  0.4371510000000  0.5767340000000 1.0
C      1  0.4127960000000  0.4511280000000  0.5720690000000 1.0
C      1  0.4013290000000  0.4719430000000  0.4929380000000 1.0
C      1  0.4495610000000  0.4919100000000  0.4284570000000 1.0
C      1  0.5255540000000  0.4787550000000  0.4000930000000 1.0
C      1  0.5947460000000  0.4583340000000  0.4423810000000 1.0
C      1  0.6126300000000  0.4442340000000  0.5242890000000 1.0
C      1  0.5670850000000  0.4354030000000  0.5960270000000 1.0
C      1  0.4841930000000  0.4383730000000  0.6154950000000 1.0
C      1  0.5248430000000  0.4249470000000  0.4413070000000 1.0
C      1  0.5611670000000  0.4164680000000  0.4769810000000 1.0
C      1  0.5595090000000  0.4103010000000  0.5271600000000 1.0
C      1  0.5222820000000  0.4077900000000  0.5615390000000 1.0
C      1  0.4717940000000  0.4104910000000  0.5595090000000 1.0
C      1  0.4372740000000  0.4173390000000  0.5219580000000 1.0
C      1  0.4340860000000  0.4156750000000  0.4700460000000 1.0
C      1  0.4727280000000  0.4190370000000  0.4356340000000 1.0
C      1  0.4586560000000  0.4484190000000  0.4879640000000 1.0
C      1  0.4820270000000  0.4657210000000  0.4475270000000 1.0
C      1  0.5288780000000  0.4765250000000  0.4507040000000 1.0
C      1  0.5551640000000  0.4642590000000  0.4837180000000 1.0
C      1  0.5570450000000  0.4601030000000  0.5305640000000 1.0
C      1  0.5228350000000  0.4577160000000  0.5636800000000 1.0
C      1  0.4745750000000  0.4594950000000  0.5586950000000 1.0
C      1  0.4449780000000  0.4701330000000  0.5255320000000 1.0
C      1  0.4896490000000  0.5467900000000  0.4455730000000 1.0
C      1  0.5174640000000  0.5541760000000  0.4387300000000 1.0
C      1  0.5393040000000  0.5531770000000  0.4590640000000 1.0
C      1  0.5558420000000  0.5552610000000  0.5278700000000 1.0
C      1  0.5516380000000  0.5536250000000  0.5563820000000 1.0
C      1  0.4663310000000  0.5501530000000  0.5420790000000 1.0
C      1  0.4423220000000  0.5540470000000  0.5258270000000 1.0
C      1  0.4421500000000  0.5456800000000  0.4971690000000 1.0
C      1  0.5518980000000  0.6221680000000  0.5225680000000 1.0
C      1  0.5128140000000  0.6075870000000  0.5512990000000 1.0
C      1  0.4636060000000  0.6147240000000  0.5491150000000 1.0
C      1  0.4301920000000  0.6124570000000  0.5084210000000 1.0
C      1  0.4413680000000  0.5973020000000  0.4609230000000 1.0
C      1  0.4766980000000  0.6062590000000  0.4278910000000 1.0
C      1  0.5282680000000  0.6140500000000  0.4323070000000 1.0
C      1  0.5572190000000  0.6117190000000  0.4742110000000 1.0
C      1  0.5325180000000  0.5383430000000  0.4830000000000 1.0
C      1  0.5350990000000  0.5438930000000  0.5114980000000 1.0
C      1  0.5118400000000  0.5371240000000  0.5268120000000 1.0
C      1  0.4848070000000  0.5312910000000  0.5314230000000 1.0
C      1  0.4726000000000  0.5132370000000  0.5127440000000 1.0
C      1  0.4643860000000  0.5283130000000  0.4891950000000 1.0
C      1  0.4860730000000  0.5309580000000  0.4693620000000 1.0
C      1  0.5118680000000  0.5189580000000  0.4768620000000 1.0
C      1  0.5342540000000  0.4790500000000  0.4954530000000 1.0
C      1  0.5347460000000  0.4756450000000  0.5229770000000 1.0
C      1  0.5151310000000  0.4743310000000  0.5424300000000 1.0
C      1  0.4876690000000  0.4759420000000  0.5404160000000 1.0
C      1  0.4707410000000  0.4840970000000  0.5177770000000 1.0
C      1  0.4763590000000  0.4686460000000  0.4936780000000 1.0
C      1  0.4901860000000  0.4768280000000  0.4718330000000 1.0
C      1  0.5161500000000  0.4896990000000  0.4744060000000 1.0
C      1  0.4964210000000  0.3793050000000  0.5330620000000 1.0
C      1  0.4705470000000  0.3822180000000  0.5211820000000 1.0
C      1  0.4594950000000  0.3834160000000  0.4949550000000 1.0
C      1  0.4713930000000  0.3849670000000  0.4688610000000 1.0
C      1  0.4985800000000  0.3878050000000  0.4599360000000 1.0
C      1  0.5245920000000  0.3867530000000  0.4712690000000 1.0
C      1  0.5352530000000  0.3819750000000  0.4973510000000 1.0
C      1  0.5232870000000  0.3793420000000  0.5231940000000 1.0
C      1  0.4322710000000  0.4444340000000  0.5294410000000 1.0
C      1  0.4350280000000  0.4437670000000  0.4731830000000 1.0
C      1  0.4710360000000  0.4465070000000  0.4324830000000 1.0
C      1  0.5323910000000  0.4520120000000  0.4362290000000 1.0
C      1  0.5709100000000  0.4424100000000  0.4776380000000 1.0
C      1  0.5691250000000  0.4354240000000  0.5345560000000 1.0
C      1  0.5270630000000  0.4322920000000  0.5739300000000 1.0
C      1  0.4695010000000  0.4354670000000  0.5713810000000 1.0
C      1  0.4546080000000  0.4041470000000  0.4526660000000 1.0
C      1  0.4995840000000  0.4098540000000  0.4395950000000 1.0
C      1  0.5409140000000  0.4084210000000  0.4587640000000 1.0
C      1  0.5586590000000  0.4004790000000  0.5003980000000 1.0
C      1  0.5393130000000  0.3965720000000  0.5417400000000 1.0
C      1  0.4964490000000  0.3964580000000  0.5576870000000 1.0
C      1  0.4554790000000  0.4018320000000  0.5379490000000 1.0
C      1  0.4365140000000  0.4028470000000  0.4960840000000 1.0
END
