TITL C-3623284-6838-150 41902.9343893708 125000 -1165.151313818 0 0 197 (C1) n - 1
REM
REM in /home/nfs/bkarasulu/CARBON/AIRSS/Generating-Clusters/LCBOP/Higher-Symm/SD-CG/FIRE-CG
REM
REM
REM
REM
REM
REM ./C.cell (b20cbc046b6831c77cfcea5457e17084)
REM AIRSS Version 0.9.1 bugfix July 2018 build 013d7b7c2542+ Fri, 06 Jul 2018 19:26:36 +0100
REM compiler GCC version 9.2.1 20190827 (Red Hat 9.2.1-1)
REM options -cpp -mtune=generic -march=x86-64 -g -O0 -fpre-include=/usr/include/finclude/math-vector-fortran.h
REM seed -1018999951 -982315259 52637036 -366419328 -693248835 -89704868 -2037288034 2116891873 1792464231 -1463024816 -212574643 329158576 1832018464 2108024195 215972505 843453157 898031832 2076111114 -1642013750 -2058739024 -233220086 -1191577818 1344073579 -435137475 1973693257 -1085197816 -1443109241 -1661603342 243292003 1514664689 -1279613361 709727696 -1130405573
REM
CELL 1.54180   50.00000   50.00000   50.00000   90.00000   90.00000   90.00000
LATT -1
SFAC C  
C      1  0.5549380000000  0.4391540000000  0.5462720000000 1.0
C      1  0.5549430000000  0.5282250000000  0.5753020000000 1.0
C      1  0.5536480000000  0.5702710000000  0.4966900000000 1.0
C      1  0.5548940000000  0.5216930000000  0.4181330000000 1.0
C      1  0.5522840000000  0.4458440000000  0.4632340000000 1.0
C      1  0.4453850000000  0.4468990000000  0.5473800000000 1.0
C      1  0.4428300000000  0.5317820000000  0.5784030000000 1.0
C      1  0.4443510000000  0.5741570000000  0.4971070000000 1.0
C      1  0.4465880000000  0.5188130000000  0.4381150000000 1.0
C      1  0.4443320000000  0.4342190000000  0.4563020000000 1.0
C      1  0.5976220000000  0.4606190000000  0.4615500000000 1.0
C      1  0.5998220000000  0.4432740000000  0.5280460000000 1.0
C      1  0.5970070000000  0.5060160000000  0.5589570000000 1.0
C      1  0.5990680000000  0.5589070000000  0.5076090000000 1.0
C      1  0.5976500000000  0.5308580000000  0.4443860000000 1.0
C      1  0.4011140000000  0.4593100000000  0.4550280000000 1.0
C      1  0.4055380000000  0.4532610000000  0.5202570000000 1.0
C      1  0.4008810000000  0.5085790000000  0.5616040000000 1.0
C      1  0.4030440000000  0.5514850000000  0.5129080000000 1.0
C      1  0.3998060000000  0.5229690000000  0.4468710000000 1.0
C      1  0.5266470000000  0.5253460000000  0.5747160000000 1.0
C      1  0.5267960000000  0.5770080000000  0.4969200000000 1.0
C      1  0.5266470000000  0.5223980000000  0.4225860000000 1.0
C      1  0.5268420000000  0.4363570000000  0.4576950000000 1.0
C      1  0.5274290000000  0.4372880000000  0.5488540000000 1.0
C      1  0.4709430000000  0.5272580000000  0.5766120000000 1.0
C      1  0.4726920000000  0.5745910000000  0.4985620000000 1.0
C      1  0.4703840000000  0.5194030000000  0.4234480000000 1.0
C      1  0.4726300000000  0.4362820000000  0.4560820000000 1.0
C      1  0.4735880000000  0.4426090000000  0.5465900000000 1.0
C      1  0.4277320000000  0.4550960000000  0.4653830000000 1.0
C      1  0.4303370000000  0.4648270000000  0.5304900000000 1.0
C      1  0.4255930000000  0.5231340000000  0.5579770000000 1.0
C      1  0.4280860000000  0.5507680000000  0.4985400000000 1.0
C      1  0.4216010000000  0.5054920000000  0.4376270000000 1.0
C      1  0.5731480000000  0.4574230000000  0.4774360000000 1.0
C      1  0.5760970000000  0.4552340000000  0.5387410000000 1.0
C      1  0.5727460000000  0.5210940000000  0.5547320000000 1.0
C      1  0.5742150000000  0.5519650000000  0.4944640000000 1.0
C      1  0.5742280000000  0.5155540000000  0.4374850000000 1.0
C      1  0.3884720000000  0.5259190000000  0.5065000000000 1.0
C      1  0.3883440000000  0.5132860000000  0.4745910000000 1.0
C      1  0.3876320000000  0.4811640000000  0.4786430000000 1.0
C      1  0.3887520000000  0.4751820000000  0.5096860000000 1.0
C      1  0.3880850000000  0.5024750000000  0.5284570000000 1.0
C      1  0.6144510000000  0.5280240000000  0.5052500000000 1.0
C      1  0.6128240000000  0.5151460000000  0.4731580000000 1.0
C      1  0.6135600000000  0.4806120000000  0.4784290000000 1.0
C      1  0.6143910000000  0.4723540000000  0.5121670000000 1.0
C      1  0.6129080000000  0.5022510000000  0.5284340000000 1.0
C      1  0.5270480000000  0.4839480000000  0.5505270000000 1.0
C      1  0.5230120000000  0.5420740000000  0.5306440000000 1.0
C      1  0.5250650000000  0.5411950000000  0.4676870000000 1.0
C      1  0.5237820000000  0.4836800000000  0.4501770000000 1.0
C      1  0.5232160000000  0.4471060000000  0.5023070000000 1.0
C      1  0.4792030000000  0.4876140000000  0.5517760000000 1.0
C      1  0.4756980000000  0.5423670000000  0.5313610000000 1.0
C      1  0.4755530000000  0.5395380000000  0.4689300000000 1.0
C      1  0.4780250000000  0.4827810000000  0.4512090000000 1.0
C      1  0.4746340000000  0.4478350000000  0.5011840000000 1.0
C      1  0.5221360000000  0.5510940000000  0.3856950000000 1.0
C      1  0.5267620000000  0.4092050000000  0.4192480000000 1.0
C      1  0.5222860000000  0.3924520000000  0.5608980000000 1.0
C      1  0.5258320000000  0.5245510000000  0.6218450000000 1.0
C      1  0.5243350000000  0.6210940000000  0.5128630000000 1.0
C      1  0.4707970000000  0.5484390000000  0.3867070000000 1.0
C      1  0.4744580000000  0.4096180000000  0.4174410000000 1.0
C      1  0.4696610000000  0.3970560000000  0.5584390000000 1.0
C      1  0.4738790000000  0.5253750000000  0.6234750000000 1.0
C      1  0.4719000000000  0.6188060000000  0.5144130000000 1.0
C      1  0.4603210000000  0.3929610000000  0.4368840000000 1.0
C      1  0.4574700000000  0.4119230000000  0.5804560000000 1.0
C      1  0.4603210000000  0.5508530000000  0.6177230000000 1.0
C      1  0.4576800000000  0.6200830000000  0.4888830000000 1.0
C      1  0.4598690000000  0.5244800000000  0.3747650000000 1.0
C      1  0.5372670000000  0.3903850000000  0.4381380000000 1.0
C      1  0.5353570000000  0.4029470000000  0.5844430000000 1.0
C      1  0.5397390000000  0.5494830000000  0.6153110000000 1.0
C      1  0.5349440000000  0.6259280000000  0.4865870000000 1.0
C      1  0.5372300000000  0.5281860000000  0.3752600000000 1.0
C      1  0.5251600000000  0.4539770000000  0.5949400000000 1.0
C      1  0.5242940000000  0.5748110000000  0.5712580000000 1.0
C      1  0.5223150000000  0.5909670000000  0.4497300000000 1.0
C      1  0.5247440000000  0.4803620000000  0.3972980000000 1.0
C      1  0.5231630000000  0.3965290000000  0.4877860000000 1.0
C      1  0.4762640000000  0.4577160000000  0.5943210000000 1.0
C      1  0.4749750000000  0.5752310000000  0.5725330000000 1.0
C      1  0.4734050000000  0.5883360000000  0.4504880000000 1.0
C      1  0.4752490000000  0.4790130000000  0.3968660000000 1.0
C      1  0.4742190000000  0.3974790000000  0.4871100000000 1.0
C      1  0.4229580000000  0.4079470000000  0.5065800000000 1.0
C      1  0.4234950000000  0.4788840000000  0.5958580000000 1.0
C      1  0.4229670000000  0.5792690000000  0.5511530000000 1.0
C      1  0.4217990000000  0.5691960000000  0.4362540000000 1.0
C      1  0.4226390000000  0.4606120000000  0.4089780000000 1.0
C      1  0.5747120000000  0.4019700000000  0.5111780000000 1.0
C      1  0.5769460000000  0.4758770000000  0.5948460000000 1.0
C      1  0.5742700000000  0.5840520000000  0.5450360000000 1.0
C      1  0.5748980000000  0.5756590000000  0.4359290000000 1.0
C      1  0.5743210000000  0.4594320000000  0.4153310000000 1.0
C      1  0.5919260000000  0.4139910000000  0.5315840000000 1.0
C      1  0.5935100000000  0.4987250000000  0.5880660000000 1.0
C      1  0.5906960000000  0.5851800000000  0.5206650000000 1.0
C      1  0.5926940000000  0.5547690000000  0.4263310000000 1.0
C      1  0.5899210000000  0.4458150000000  0.4360420000000 1.0
C      1  0.4073030000000  0.4241600000000  0.5244910000000 1.0
C      1  0.4048660000000  0.5007670000000  0.5907370000000 1.0
C      1  0.4057920000000  0.5776370000000  0.5277230000000 1.0
C      1  0.4057920000000  0.5463930000000  0.4277770000000 1.0
C      1  0.4047680000000  0.4468050000000  0.4277490000000 1.0
C      1  0.5637790000000  0.6208560000000  0.4877370000000 1.0
C      1  0.5629690000000  0.5301420000000  0.3914150000000 1.0
C      1  0.5655700000000  0.3964660000000  0.4417910000000 1.0
C      1  0.5643360000000  0.4040990000000  0.5792970000000 1.0
C      1  0.5643690000000  0.5388490000000  0.6009540000000 1.0
C      1  0.4339890000000  0.6016260000000  0.4938830000000 1.0
C      1  0.4313100000000  0.5253910000000  0.3823640000000 1.0
C      1  0.4355290000000  0.4096480000000  0.4426510000000 1.0
C      1  0.4345480000000  0.4262930000000  0.5661050000000 1.0
C      1  0.4343200000000  0.5410470000000  0.6047140000000 1.0
C      1  0.4790530000000  0.6157340000000  0.4673960000000 1.0
C      1  0.4817230000000  0.5033710000000  0.3756530000000 1.0
C      1  0.4812410000000  0.3850670000000  0.4577250000000 1.0
C      1  0.4803700000000  0.4255200000000  0.5955130000000 1.0
C      1  0.4825910000000  0.5680300000000  0.6039740000000 1.0
C      1  0.5139500000000  0.6177840000000  0.4665720000000 1.0
C      1  0.5169890000000  0.5046580000000  0.3758090000000 1.0
C      1  0.5161320000000  0.3842220000000  0.4583360000000 1.0
C      1  0.5154360000000  0.4224920000000  0.5966770000000 1.0
C      1  0.5179530000000  0.5676260000000  0.6029470000000 1.0
C      1  0.5246210000000  0.5199880000000  0.5137850000000 1.0
C      1  0.5253980000000  0.5189910000000  0.4847350000000 1.0
C      1  0.5244980000000  0.4908830000000  0.4771060000000 1.0
C      1  0.5243760000000  0.4749480000000  0.5014230000000 1.0
C      1  0.5254820000000  0.4929170000000  0.5241010000000 1.0
C      1  0.4794180000000  0.5205410000000  0.5146370000000 1.0
C      1  0.4824560000000  0.5187160000000  0.4863990000000 1.0
C      1  0.4801680000000  0.4909210000000  0.4779530000000 1.0
C      1  0.4778180000000  0.4753700000000  0.5023680000000 1.0
C      1  0.4789610000000  0.4936090000000  0.5247010000000 1.0
C      1  0.4866820000000  0.4314180000000  0.4314950000000 1.0
C      1  0.4845960000000  0.4161960000000  0.5431910000000 1.0
C      1  0.4850660000000  0.5158030000000  0.5988430000000 1.0
C      1  0.4856390000000  0.5936860000000  0.5156680000000 1.0
C      1  0.4829680000000  0.5420640000000  0.4114700000000 1.0
C      1  0.5147040000000  0.4311520000000  0.4324880000000 1.0
C      1  0.5124180000000  0.4135620000000  0.5447450000000 1.0
C      1  0.5130490000000  0.5150760000000  0.5979720000000 1.0
C      1  0.5136030000000  0.5949350000000  0.5146400000000 1.0
C      1  0.5110300000000  0.5437010000000  0.4111410000000 1.0
C      1  0.4341770000000  0.5271030000000  0.4846710000000 1.0
C      1  0.4494530000000  0.5328850000000  0.4617720000000 1.0
C      1  0.4373980000000  0.4783040000000  0.4761350000000 1.0
C      1  0.4348550000000  0.4914830000000  0.5203420000000 1.0
C      1  0.4387780000000  0.5132000000000  0.5364430000000 1.0
C      1  0.5682120000000  0.5256620000000  0.5012370000000 1.0
C      1  0.5649870000000  0.5018090000000  0.4586890000000 1.0
C      1  0.5695220000000  0.4776990000000  0.4967110000000 1.0
C      1  0.5688170000000  0.4769040000000  0.5240520000000 1.0
C      1  0.5655600000000  0.5233260000000  0.5286110000000 1.0
C      1  0.5830060000000  0.6072560000000  0.5023150000000 1.0
C      1  0.5863120000000  0.5468540000000  0.3979190000000 1.0
C      1  0.5836610000000  0.4170610000000  0.4386820000000 1.0
C      1  0.5838450000000  0.4059260000000  0.5594640000000 1.0
C      1  0.5880940000000  0.5224040000000  0.6054170000000 1.0
C      1  0.4097110000000  0.6007280000000  0.5096620000000 1.0
C      1  0.4133540000000  0.5366930000000  0.4002690000000 1.0
C      1  0.4110710000000  0.4179250000000  0.4294100000000 1.0
C      1  0.4107960000000  0.4169200000000  0.5526490000000 1.0
C      1  0.4104540000000  0.5242840000000  0.6087430000000 1.0
C      1  0.5534460000000  0.4630730000000  0.5998360000000 1.0
C      1  0.5517190000000  0.5828720000000  0.5605470000000 1.0
C      1  0.5505020000000  0.5870740000000  0.4398240000000 1.0
C      1  0.5523480000000  0.4682560000000  0.4016050000000 1.0
C      1  0.5510370000000  0.3949710000000  0.4995220000000 1.0
C      1  0.4483770000000  0.4682950000000  0.5992880000000 1.0
C      1  0.4467950000000  0.5823490000000  0.5641120000000 1.0
C      1  0.4453980000000  0.5822570000000  0.4405790000000 1.0
C      1  0.4470380000000  0.4679420000000  0.3989800000000 1.0
C      1  0.4461540000000  0.3970590000000  0.4976630000000 1.0
C      1  0.4866660000000  0.4624610000000  0.5649230000000 1.0
C      1  0.4839460000000  0.5478500000000  0.5591240000000 1.0
C      1  0.4844360000000  0.5673720000000  0.4717790000000 1.0
C      1  0.4842850000000  0.4931100000000  0.4236120000000 1.0
C      1  0.4840240000000  0.4271680000000  0.4823170000000 1.0
C      1  0.5166920000000  0.4600120000000  0.5650650000000 1.0
C      1  0.5143660000000  0.5474000000000  0.5584070000000 1.0
C      1  0.5144250000000  0.5689460000000  0.4709310000000 1.0
C      1  0.5149380000000  0.4946470000000  0.4241440000000 1.0
C      1  0.5142380000000  0.4263390000000  0.4828480000000 1.0
C      1  0.5012210000000  0.4664720000000  0.6101940000000 1.0
C      1  0.5003980000000  0.4617780000000  0.3915500000000 1.0
C      1  0.4982510000000  0.3860210000000  0.5028480000000 1.0
C      1  0.4995630000000  0.5927320000000  0.5658500000000 1.0
C      1  0.4975910000000  0.5896210000000  0.4311960000000 1.0
C      1  0.5680610000000  0.5029650000000  0.4856470000000 1.0
C      1  0.4338030000000  0.4994780000000  0.4932970000000 1.0
END
