TITL C-3623282-6910-82 -2.89860416296521e-05 125000 -666.813254405345 0 0 108 (C1) n - 1
REM
REM in /home/nfs/bkarasulu/CARBON/AIRSS/Generating-Clusters/LCBOP/Higher-Symm/SD-CG/FIRE-CG
REM
REM
REM
REM
REM
REM ./C.cell (b20cbc046b6831c77cfcea5457e17084)
REM AIRSS Version 0.9.1 bugfix July 2018 build 013d7b7c2542+ Fri, 06 Jul 2018 19:26:36 +0100
REM compiler GCC version 9.2.1 20190827 (Red Hat 9.2.1-1)
REM options -cpp -mtune=generic -march=x86-64 -g -O0 -fpre-include=/usr/include/finclude/math-vector-fortran.h
REM seed -857422632 -1351103299 617094782 -1965581938 -98148854 -1648107871 129542189 -1392711951 1896387903 -1693631818 -1553730681 -2136682241 1552066685 1022988006 -1908602196 -1766515454 120074251 -1417911933 -498503681 -2122501268 366481522 -509040351 -128841544 -1584896442 -517017192 1504905996 1285317987 -1603103695 1379869681 -916761968 -762470137 -876057290 1079112331
REM
CELL 1.54180   50.00000   50.00000   50.00000   90.00000   90.00000   90.00000
LATT -1
SFAC C  
C      1  0.4861250000000  0.4342250000000  0.5070750000000 1.0
C      1  0.5670740000000  0.5194430000000  0.5053560000000 1.0
C      1  0.4455750000000  0.5455760000000  0.5073510000000 1.0
C      1  0.4424130000000  0.4364320000000  0.4790260000000 1.0
C      1  0.5834110000000  0.4767090000000  0.4788800000000 1.0
C      1  0.4718820000000  0.5854980000000  0.4863160000000 1.0
C      1  0.5288570000000  0.4072080000000  0.5289120000000 1.0
C      1  0.5786300000000  0.5709750000000  0.5227700000000 1.0
C      1  0.4012790000000  0.5187210000000  0.5259730000000 1.0
C      1  0.4998700000000  0.5421050000000  0.5504660000000 1.0
C      1  0.4680210000000  0.4975900000000  0.5436920000000 1.0
C      1  0.5157050000000  0.4810610000000  0.5385140000000 1.0
C      1  0.4564590000000  0.5372590000000  0.5693170000000 1.0
C      1  0.4819130000000  0.4501710000000  0.5653550000000 1.0
C      1  0.5504660000000  0.5135280000000  0.5619390000000 1.0
C      1  0.5147350000000  0.4841310000000  0.5667880000000 1.0
C      1  0.5045640000000  0.5290810000000  0.5758990000000 1.0
C      1  0.4721040000000  0.4952080000000  0.5721080000000 1.0
C      1  0.6133330000000  0.5136990000000  0.4926140000000 1.0
C      1  0.4228920000000  0.5863650000000  0.4994800000000 1.0
C      1  0.4635690000000  0.3939030000000  0.4950210000000 1.0
C      1  0.4577720000000  0.5250750000000  0.4105720000000 1.0
C      1  0.5011300000000  0.4509030000000  0.4020370000000 1.0
C      1  0.5412970000000  0.5246840000000  0.4058170000000 1.0
C      1  0.4722970000000  0.5458980000000  0.4224280000000 1.0
C      1  0.4769000000000  0.4539220000000  0.4157470000000 1.0
C      1  0.5529210000000  0.5007060000000  0.4144240000000 1.0
C      1  0.5738280000000  0.4707730000000  0.5049780000000 1.0
C      1  0.4823440000000  0.5799790000000  0.5125270000000 1.0
C      1  0.4388600000000  0.4478290000000  0.5047140000000 1.0
C      1  0.5973450000000  0.5824810000000  0.4774350000000 1.0
C      1  0.3777800000000  0.5308380000000  0.4829970000000 1.0
C      1  0.5341960000000  0.3808060000000  0.4860310000000 1.0
C      1  0.5758850000000  0.5770230000000  0.4949260000000 1.0
C      1  0.3958130000000  0.5147590000000  0.4980300000000 1.0
C      1  0.5373400000000  0.4042940000000  0.5016760000000 1.0
C      1  0.4108770000000  0.5502710000000  0.5593590000000 1.0
C      1  0.4927920000000  0.4029760000000  0.5588260000000 1.0
C      1  0.5922680000000  0.5390700000000  0.5547330000000 1.0
C      1  0.5171840000000  0.4714490000000  0.4880450000000 1.0
C      1  0.5183800000000  0.5365870000000  0.4979780000000 1.0
C      1  0.4640360000000  0.5004310000000  0.4913080000000 1.0
C      1  0.5453130000000  0.4766550000000  0.4024700000000 1.0
C      1  0.4979050000000  0.5514890000000  0.4128010000000 1.0
C      1  0.4590210000000  0.4737430000000  0.4074870000000 1.0
C      1  0.5086370000000  0.4445000000000  0.4911840000000 1.0
C      1  0.5466130000000  0.5362300000000  0.4929650000000 1.0
C      1  0.4448310000000  0.5213850000000  0.4906400000000 1.0
C      1  0.4043710000000  0.5479160000000  0.5314640000000 1.0
C      1  0.5012770000000  0.3964630000000  0.5321590000000 1.0
C      1  0.5971570000000  0.5486760000000  0.5278940000000 1.0
C      1  0.5687480000000  0.4481020000000  0.5211850000000 1.0
C      1  0.5076110000000  0.5863390000000  0.5241850000000 1.0
C      1  0.4194180000000  0.4626120000000  0.5191180000000 1.0
C      1  0.5301000000000  0.4323580000000  0.5475430000000 1.0
C      1  0.5552830000000  0.5651560000000  0.5409880000000 1.0
C      1  0.4201920000000  0.5042070000000  0.5463520000000 1.0
C      1  0.4793550000000  0.3878150000000  0.5767380000000 1.0
C      1  0.6101970000000  0.5315490000000  0.5735810000000 1.0
C      1  0.4017930000000  0.5681950000000  0.5774850000000 1.0
C      1  0.5009610000000  0.3937370000000  0.4493900000000 1.0
C      1  0.6010970000000  0.5447480000000  0.4434280000000 1.0
C      1  0.4074520000000  0.5576990000000  0.4510560000000 1.0
C      1  0.4844170000000  0.4050320000000  0.5106300000000 1.0
C      1  0.5947930000000  0.5290490000000  0.5073240000000 1.0
C      1  0.4207690000000  0.5607920000000  0.5117160000000 1.0
C      1  0.4659590000000  0.5585450000000  0.5231940000000 1.0
C      1  0.4635080000000  0.4463800000000  0.5200480000000 1.0
C      1  0.5648410000000  0.4945790000000  0.5188510000000 1.0
C      1  0.5252750000000  0.5095490000000  0.5749470000000 1.0
C      1  0.4766730000000  0.5209900000000  0.5834820000000 1.0
C      1  0.4902280000000  0.4742010000000  0.5774890000000 1.0
C      1  0.4594190000000  0.4543680000000  0.5471230000000 1.0
C      1  0.5577470000000  0.4895910000000  0.5459600000000 1.0
C      1  0.4723260000000  0.5502070000000  0.5488230000000 1.0
C      1  0.5222590000000  0.5431670000000  0.4062740000000 1.0
C      1  0.4527660000000  0.4994850000000  0.4056340000000 1.0
C      1  0.5260970000000  0.4589140000000  0.3977810000000 1.0
C      1  0.5515380000000  0.4528140000000  0.5436200000000 1.0
C      1  0.5311510000000  0.5798090000000  0.5362180000000 1.0
C      1  0.4291260000000  0.4758290000000  0.5425520000000 1.0
C      1  0.5628150000000  0.4839550000000  0.4598600000000 1.0
C      1  0.4794800000000  0.5644110000000  0.4678120000000 1.0
C      1  0.4587360000000  0.4529840000000  0.4617050000000 1.0
C      1  0.5027740000000  0.4303740000000  0.5618790000000 1.0
C      1  0.5626180000000  0.5397170000000  0.5570530000000 1.0
C      1  0.4297180000000  0.5281010000000  0.5636710000000 1.0
C      1  0.4725540000000  0.4962490000000  0.5175170000000 1.0
C      1  0.5165270000000  0.4850640000000  0.5122690000000 1.0
C      1  0.5113950000000  0.5353270000000  0.5254740000000 1.0
C      1  0.4452510000000  0.5961890000000  0.4869970000000 1.0
C      1  0.4457800000000  0.4080110000000  0.4797980000000 1.0
C      1  0.6082800000000  0.4906620000000  0.4790260000000 1.0
C      1  0.4195950000000  0.5110340000000  0.4834440000000 1.0
C      1  0.5302410000000  0.4269380000000  0.4866110000000 1.0
C      1  0.5557870000000  0.5611000000000  0.4828620000000 1.0
C      1  0.6058190000000  0.5676130000000  0.4565740000000 1.0
C      1  0.3855760000000  0.5479500000000  0.4633690000000 1.0
C      1  0.5182380000000  0.3792740000000  0.4641090000000 1.0
C      1  0.5001740000000  0.5465930000000  0.4778230000000 1.0
C      1  0.4641560000000  0.4797570000000  0.4712960000000 1.0
C      1  0.5357790000000  0.4787130000000  0.4677400000000 1.0
C      1  0.4732290000000  0.4402590000000  0.4404080000000 1.0
C      1  0.5690520000000  0.5012220000000  0.4378290000000 1.0
C      1  0.4619760000000  0.5582150000000  0.4458630000000 1.0
C      1  0.5886720000000  0.5214690000000  0.4392560000000 1.0
C      1  0.4337550000000  0.5613760000000  0.4471760000000 1.0
C      1  0.4856710000000  0.4149250000000  0.4433610000000 1.0
END
