TITL C-3623282-6910-1929 0.645466858642996 125000 -370.184361436492 0 0 61 (C1) n - 1
REM
REM in /home/nfs/bkarasulu/CARBON/AIRSS/Generating-Clusters/LCBOP/Higher-Symm/SD-CG/FIRE-CG
REM
REM
REM
REM
REM
REM ./C.cell (b20cbc046b6831c77cfcea5457e17084)
REM AIRSS Version 0.9.1 bugfix July 2018 build 013d7b7c2542+ Fri, 06 Jul 2018 19:26:36 +0100
REM compiler GCC version 9.2.1 20190827 (Red Hat 9.2.1-1)
REM options -cpp -mtune=generic -march=x86-64 -g -O0 -fpre-include=/usr/include/finclude/math-vector-fortran.h
REM seed -1174042311 679054578 -302301100 -518099377 1150040783 -1716226947 1293359297 1385220559 -1379422404 1422644658 -1802150118 -1524561401 1579271594 2008717330 -2105911056 -693580870 -352537204 -2099744964 520503954 -1206112110 -1998591034 -353409267 394765780 25621418 1434743223 323098274 -981250878 -272760804 1345656556 -1376410805 1314265920 -1611969512 1761188506
REM
CELL 1.54180   50.00000   50.00000   50.00000   90.00000   90.00000   90.00000
LATT -1
SFAC C  
C      1  0.5233790000000  0.5244130000000  0.4539560000000 1.0
C      1  0.4196290000000  0.5449720000000  0.4765400000000 1.0
C      1  0.4769620000000  0.4916620000000  0.4343650000000 1.0
C      1  0.4610440000000  0.4327690000000  0.4767450000000 1.0
C      1  0.4880930000000  0.4644780000000  0.4982800000000 1.0
C      1  0.4617700000000  0.5449890000000  0.5358700000000 1.0
C      1  0.5614700000000  0.4354850000000  0.5226990000000 1.0
C      1  0.5118660000000  0.5488150000000  0.4444150000000 1.0
C      1  0.5047450000000  0.4596310000000  0.5893280000000 1.0
C      1  0.4943310000000  0.4400410000000  0.5707850000000 1.0
C      1  0.5264720000000  0.4748380000000  0.5783140000000 1.0
C      1  0.4316050000000  0.5449860000000  0.4507350000000 1.0
C      1  0.5451770000000  0.5751700000000  0.5207010000000 1.0
C      1  0.5674460000000  0.5134170000000  0.4385660000000 1.0
C      1  0.4761970000000  0.4702560000000  0.6636270000000 1.0
C      1  0.5258990000000  0.5034750000000  0.5782050000000 1.0
C      1  0.5289880000000  0.5166270000000  0.5062140000000 1.0
C      1  0.5904940000000  0.5461120000000  0.4703000000000 1.0
C      1  0.4714560000000  0.4841260000000  0.4858460000000 1.0
C      1  0.3987800000000  0.5627030000000  0.4821550000000 1.0
C      1  0.3793680000000  0.5792660000000  0.4874470000000 1.0
C      1  0.4791240000000  0.4942710000000  0.4608220000000 1.0
C      1  0.5351230000000  0.4521470000000  0.4588070000000 1.0
C      1  0.4428820000000  0.5371130000000  0.5188350000000 1.0
C      1  0.5635030000000  0.4376170000000  0.4962240000000 1.0
C      1  0.5408280000000  0.5048770000000  0.4422580000000 1.0
C      1  0.5225580000000  0.5192620000000  0.5547820000000 1.0
C      1  0.4287020000000  0.5270100000000  0.4967460000000 1.0
C      1  0.5098380000000  0.4162240000000  0.5692880000000 1.0
C      1  0.5364700000000  0.4637640000000  0.5532350000000 1.0
C      1  0.4585060000000  0.5521020000000  0.4467350000000 1.0
C      1  0.4402120000000  0.5005890000000  0.4008900000000 1.0
C      1  0.4881630000000  0.4409270000000  0.4814510000000 1.0
C      1  0.4854220000000  0.4666940000000  0.6395050000000 1.0
C      1  0.4211310000000  0.5179170000000  0.4081770000000 1.0
C      1  0.5390250000000  0.5826250000000  0.4727430000000 1.0
C      1  0.5554720000000  0.5757470000000  0.4945860000000 1.0
C      1  0.4175720000000  0.5348960000000  0.4285490000000 1.0
C      1  0.4397400000000  0.4497390000000  0.4813260000000 1.0
C      1  0.5254840000000  0.5043630000000  0.5304910000000 1.0
C      1  0.4842230000000  0.5507430000000  0.4398820000000 1.0
C      1  0.4265920000000  0.4990720000000  0.4931440000000 1.0
C      1  0.4433620000000  0.4774180000000  0.4877090000000 1.0
C      1  0.5797420000000  0.5631630000000  0.4878600000000 1.0
C      1  0.5859070000000  0.5284050000000  0.4508330000000 1.0
C      1  0.5596630000000  0.4411670000000  0.4686000000000 1.0
C      1  0.5218560000000  0.4765280000000  0.5319670000000 1.0
C      1  0.5255920000000  0.5723070000000  0.4520200000000 1.0
C      1  0.5352090000000  0.4161760000000  0.5595900000000 1.0
C      1  0.5129110000000  0.5457920000000  0.5511080000000 1.0
C      1  0.5110250000000  0.4387640000000  0.4653190000000 1.0
C      1  0.5478040000000  0.4382860000000  0.5470330000000 1.0
C      1  0.4843390000000  0.4501240000000  0.5459820000000 1.0
C      1  0.5215360000000  0.5219720000000  0.4816940000000 1.0
C      1  0.5354430000000  0.4772160000000  0.4455570000000 1.0
C      1  0.4948100000000  0.4630940000000  0.6149950000000 1.0
C      1  0.5793170000000  0.4339280000000  0.4509550000000 1.0
C      1  0.4628490000000  0.4914120000000  0.4117680000000 1.0
C      1  0.4972650000000  0.4640670000000  0.5246910000000 1.0
C      1  0.5305100000000  0.5651880000000  0.5406810000000 1.0
C      1  0.4851190000000  0.5490630000000  0.5480640000000 1.0
END
