TITL C-3623284-6838-572 3644.15511471568 125000 -596.084722269393 0 0 97 (C3) n - 1
REM
REM in /home/nfs/bkarasulu/CARBON/AIRSS/Generating-Clusters/LCBOP/Higher-Symm/SD-CG/FIRE-CG
REM
REM
REM
REM
REM
REM ./C.cell (b20cbc046b6831c77cfcea5457e17084)
REM AIRSS Version 0.9.1 bugfix July 2018 build 013d7b7c2542+ Fri, 06 Jul 2018 19:26:36 +0100
REM compiler GCC version 9.2.1 20190827 (Red Hat 9.2.1-1)
REM options -cpp -mtune=generic -march=x86-64 -g -O0 -fpre-include=/usr/include/finclude/math-vector-fortran.h
REM seed 1233248081 -718693527 531200249 -402015615 -664410527 85734166 -1276639119 465891757 294590585 759550636 842374980 -1376462271 717541814 -823454897 -160000204 244390060 -1973234080 -2110607821 -676340612 -767801966 1687860481 2067510502 -1095613884 2101342682 -188087416 -1867923750 -860634696 1127889804 474717833 -1466920862 1718953162 -1191883560 760893168
REM
CELL 1.54180   50.00000   50.00000   50.00000   90.00000   90.00000   90.00000
LATT -1
SFAC C  
C      1  0.4469530000000  0.4722380000000  0.5655690000000 1.0
C      1  0.4981630000000  0.4402660000000  0.4345130000000 1.0
C      1  0.5509880000000  0.4687390000000  0.5656850000000 1.0
C      1  0.5530830000000  0.5288850000000  0.4343900000000 1.0
C      1  0.5022040000000  0.5605170000000  0.5656170000000 1.0
C      1  0.4490230000000  0.5322770000000  0.4344600000000 1.0
C      1  0.4892870000000  0.4825990000000  0.4128970000000 1.0
C      1  0.5097310000000  0.4825400000000  0.5869520000000 1.0
C      1  0.5204960000000  0.5000450000000  0.4130610000000 1.0
C      1  0.5119980000000  0.5182510000000  0.5871470000000 1.0
C      1  0.4905370000000  0.5196160000000  0.4128730000000 1.0
C      1  0.4791640000000  0.5011080000000  0.5870990000000 1.0
C      1  0.5254410000000  0.4672540000000  0.4707140000000 1.0
C      1  0.5412000000000  0.5057770000000  0.5291790000000 1.0
C      1  0.5162050000000  0.5391180000000  0.4707580000000 1.0
C      1  0.4749320000000  0.5334720000000  0.5292370000000 1.0
C      1  0.4585730000000  0.4951530000000  0.4706730000000 1.0
C      1  0.4840570000000  0.4622390000000  0.5292500000000 1.0
C      1  0.4802330000000  0.4235170000000  0.4987660000000 1.0
C      1  0.5568670000000  0.4447400000000  0.5013940000000 1.0
C      1  0.5766450000000  0.5218330000000  0.4987030000000 1.0
C      1  0.5199870000000  0.5776270000000  0.5013650000000 1.0
C      1  0.4433190000000  0.5561640000000  0.4987420000000 1.0
C      1  0.4233340000000  0.4791980000000  0.5013150000000 1.0
C      1  0.5071400000000  0.4149580000000  0.5031710000000 1.0
C      1  0.5776600000000  0.4638640000000  0.4970060000000 1.0
C      1  0.5706370000000  0.5494260000000  0.5031140000000 1.0
C      1  0.4930080000000  0.5860290000000  0.4970130000000 1.0
C      1  0.4224410000000  0.5371500000000  0.5031220000000 1.0
C      1  0.4295360000000  0.4516330000000  0.4969660000000 1.0
C      1  0.5713250000000  0.4631430000000  0.4475010000000 1.0
C      1  0.5679890000000  0.5434770000000  0.5525710000000 1.0
C      1  0.4967880000000  0.5809150000000  0.4475130000000 1.0
C      1  0.4289580000000  0.5377700000000  0.5525880000000 1.0
C      1  0.4321630000000  0.4574600000000  0.4474610000000 1.0
C      1  0.5033130000000  0.4202690000000  0.5526290000000 1.0
C      1  0.5221500000000  0.4705150000000  0.5657820000000 1.0
C      1  0.5371560000000  0.5047950000000  0.4341930000000 1.0
C      1  0.5152520000000  0.5347640000000  0.5656910000000 1.0
C      1  0.4778380000000  0.5307190000000  0.4342940000000 1.0
C      1  0.4628680000000  0.4963450000000  0.5657190000000 1.0
C      1  0.4852280000000  0.4660770000000  0.4342390000000 1.0
C      1  0.4823070000000  0.4217520000000  0.4493760000000 1.0
C      1  0.5591830000000  0.4457750000000  0.5508410000000 1.0
C      1  0.5770410000000  0.5244190000000  0.4492820000000 1.0
C      1  0.5179230000000  0.5791760000000  0.5507880000000 1.0
C      1  0.4408010000000  0.5552310000000  0.4493410000000 1.0
C      1  0.4229710000000  0.4766240000000  0.5507360000000 1.0
C      1  0.5334500000000  0.4935110000000  0.4604360000000 1.0
C      1  0.5225820000000  0.5257230000000  0.5392980000000 1.0
C      1  0.4894490000000  0.5329450000000  0.4605470000000 1.0
C      1  0.4669970000000  0.5073520000000  0.5393680000000 1.0
C      1  0.4773240000000  0.4750770000000  0.4604220000000 1.0
C      1  0.5106330000000  0.4684610000000  0.5393980000000 1.0
C      1  0.4695240000000  0.4395450000000  0.5197190000000 1.0
C      1  0.5377150000000  0.4433480000000  0.4803660000000 1.0
C      1  0.5681220000000  0.5045600000000  0.5196750000000 1.0
C      1  0.5307610000000  0.5617260000000  0.4803460000000 1.0
C      1  0.4625410000000  0.5574070000000  0.5197110000000 1.0
C      1  0.4317200000000  0.4964800000000  0.4802950000000 1.0
C      1  0.5589270000000  0.5621130000000  0.4807640000000 1.0
C      1  0.4762370000000  0.5820290000000  0.5193850000000 1.0
C      1  0.4173180000000  0.5206890000000  0.4807500000000 1.0
C      1  0.4413520000000  0.4391020000000  0.5193530000000 1.0
C      1  0.5239710000000  0.4187600000000  0.4808140000000 1.0
C      1  0.5826140000000  0.4803980000000  0.5193610000000 1.0
C      1  0.4346820000000  0.5076880000000  0.4290560000000 1.0
C      1  0.4610110000000  0.4474890000000  0.5709490000000 1.0
C      1  0.5266340000000  0.4400660000000  0.4291480000000 1.0
C      1  0.5654630000000  0.4932660000000  0.5709790000000 1.0
C      1  0.5390590000000  0.5536830000000  0.4290890000000 1.0
C      1  0.4737400000000  0.5606430000000  0.5709900000000 1.0
C      1  0.5702780000000  0.5199470000000  0.5665950000000 1.0
C      1  0.5183210000000  0.5711680000000  0.4334560000000 1.0
C      1  0.4482230000000  0.5514600000000  0.5666360000000 1.0
C      1  0.4299050000000  0.4809790000000  0.4333840000000 1.0
C      1  0.4817810000000  0.4300440000000  0.5666420000000 1.0
C      1  0.5521240000000  0.4493570000000  0.4334540000000 1.0
C      1  0.5013480000000  0.5281880000000  0.5208920000000 1.0
C      1  0.4767730000000  0.5154720000000  0.4795590000000 1.0
C      1  0.4754400000000  0.4877640000000  0.5208640000000 1.0
C      1  0.4987330000000  0.4728680000000  0.4795660000000 1.0
C      1  0.5233840000000  0.4855470000000  0.5208870000000 1.0
C      1  0.5247530000000  0.5131990000000  0.4795210000000 1.0
C      1  0.5798260000000  0.4779970000000  0.4711130000000 1.0
C      1  0.5594470000000  0.5583310000000  0.5289880000000 1.0
C      1  0.4796680000000  0.5808470000000  0.4711280000000 1.0
C      1  0.4203300000000  0.5229920000000  0.5289820000000 1.0
C      1  0.4407220000000  0.4426670000000  0.4710990000000 1.0
C      1  0.5204360000000  0.4202220000000  0.5290380000000 1.0
C      1  0.4527050000000  0.5670190000000  0.4728040000000 1.0
C      1  0.4187250000000  0.4927710000000  0.5272620000000 1.0
C      1  0.4661530000000  0.4262100000000  0.4728210000000 1.0
C      1  0.5473910000000  0.4339870000000  0.5273480000000 1.0
C      1  0.5813210000000  0.5082600000000  0.4727650000000 1.0
C      1  0.5340510000000  0.5748200000000  0.5273090000000 1.0
C      1  0.4999830000000  0.5004440000000  0.4983850000000 1.0
END
