TITL C-3623284-6838-386 -1.29015613126473e-06 125000 -1031.42223668023 0 0 162 (C1) n - 1
REM
REM in /home/nfs/bkarasulu/CARBON/AIRSS/Generating-Clusters/LCBOP/Higher-Symm/SD-CG/FIRE-CG
REM
REM
REM
REM
REM
REM ./C.cell (b20cbc046b6831c77cfcea5457e17084)
REM AIRSS Version 0.9.1 bugfix July 2018 build 013d7b7c2542+ Fri, 06 Jul 2018 19:26:36 +0100
REM compiler GCC version 9.2.1 20190827 (Red Hat 9.2.1-1)
REM options -cpp -mtune=generic -march=x86-64 -g -O0 -fpre-include=/usr/include/finclude/math-vector-fortran.h
REM seed -2141395137 62110266 324635228 1735054431 801911937 1139896348 1632420266 751770185 -62244525 -2099808225 874874607 -1231980311 2136569799 -1502116758 -705900319 1972068239 -1807885941 -115107724 -1531969061 930393488 -602478394 1319502616 -350650040 1020674045 755641868 -1483077267 1226262328 489394205 -1290578435 -1904495523 -1430649952 -479668666 -1499727580
REM
CELL 1.54180   50.00000   50.00000   50.00000   90.00000   90.00000   90.00000
LATT -1
SFAC C  
C      1  0.5254800000000  0.5881090000000  0.4583120000000 1.0
C      1  0.4601730000000  0.5355310000000  0.6011720000000 1.0
C      1  0.5715750000000  0.4583950000000  0.5344690000000 1.0
C      1  0.5285020000000  0.3999670000000  0.5343570000000 1.0
C      1  0.4714410000000  0.4028210000000  0.4619610000000 1.0
C      1  0.4622590000000  0.5983120000000  0.5388690000000 1.0
C      1  0.4637380000000  0.4684770000000  0.4282720000000 1.0
C      1  0.5234020000000  0.4800770000000  0.5811310000000 1.0
C      1  0.5350340000000  0.5308760000000  0.3998610000000 1.0
C      1  0.5965000000000  0.5424210000000  0.4612750000000 1.0
C      1  0.4111880000000  0.5400870000000  0.5304480000000 1.0
C      1  0.4103960000000  0.4698010000000  0.4714640000000 1.0
C      1  0.4616640000000  0.6032070000000  0.4611600000000 1.0
C      1  0.5388060000000  0.5394060000000  0.5992680000000 1.0
C      1  0.4204670000000  0.4635440000000  0.5376480000000 1.0
C      1  0.4648120000000  0.3987320000000  0.5393200000000 1.0
C      1  0.5326770000000  0.4144480000000  0.4599540000000 1.0
C      1  0.5284770000000  0.5846730000000  0.5372610000000 1.0
C      1  0.5442060000000  0.4643370000000  0.3991130000000 1.0
C      1  0.4589630000000  0.4676570000000  0.6048600000000 1.0
C      1  0.4716510000000  0.5251660000000  0.4249520000000 1.0
C      1  0.4120120000000  0.5451520000000  0.4619030000000 1.0
C      1  0.5992250000000  0.5353020000000  0.5324750000000 1.0
C      1  0.5958070000000  0.4662610000000  0.4712020000000 1.0
C      1  0.4292390000000  0.4247330000000  0.4746250000000 1.0
C      1  0.4786760000000  0.4220090000000  0.4189570000000 1.0
C      1  0.4126290000000  0.4821820000000  0.4225840000000 1.0
C      1  0.4150800000000  0.5893040000000  0.5222540000000 1.0
C      1  0.5704490000000  0.5797410000000  0.4778120000000 1.0
C      1  0.5747960000000  0.4099050000000  0.5191240000000 1.0
C      1  0.4725130000000  0.5844410000000  0.5866380000000 1.0
C      1  0.5123710000000  0.5757510000000  0.4123600000000 1.0
C      1  0.5250160000000  0.4212030000000  0.5770520000000 1.0
C      1  0.4174010000000  0.5236030000000  0.5781240000000 1.0
C      1  0.5813010000000  0.5280420000000  0.4171730000000 1.0
C      1  0.5707830000000  0.4738320000000  0.5808560000000 1.0
C      1  0.5795690000000  0.4208410000000  0.4734800000000 1.0
C      1  0.5247030000000  0.4182840000000  0.4111080000000 1.0
C      1  0.5853470000000  0.4809480000000  0.4238830000000 1.0
C      1  0.5743510000000  0.5763110000000  0.5246020000000 1.0
C      1  0.4156770000000  0.5917910000000  0.4746550000000 1.0
C      1  0.4199010000000  0.4145680000000  0.5207220000000 1.0
C      1  0.5204280000000  0.5855150000000  0.5864670000000 1.0
C      1  0.4645420000000  0.5786460000000  0.4201940000000 1.0
C      1  0.4784230000000  0.4263120000000  0.5818980000000 1.0
C      1  0.5831380000000  0.5195040000000  0.5775760000000 1.0
C      1  0.4221620000000  0.5292000000000  0.4179570000000 1.0
C      1  0.4165970000000  0.4767670000000  0.5839960000000 1.0
C      1  0.5081570000000  0.5917210000000  0.4362530000000 1.0
C      1  0.4399020000000  0.5163720000000  0.5957210000000 1.0
C      1  0.5851300000000  0.4376740000000  0.5166900000000 1.0
C      1  0.5122190000000  0.4051200000000  0.5566120000000 1.0
C      1  0.4891560000000  0.4024460000000  0.4392850000000 1.0
C      1  0.4807580000000  0.5904720000000  0.5588440000000 1.0
C      1  0.4416520000000  0.4851840000000  0.4212400000000 1.0
C      1  0.5485850000000  0.4901240000000  0.5901740000000 1.0
C      1  0.5584100000000  0.5152280000000  0.4045270000000 1.0
C      1  0.5899400000000  0.5584040000000  0.4836710000000 1.0
C      1  0.4107110000000  0.5617880000000  0.5121890000000 1.0
C      1  0.4166700000000  0.4477860000000  0.4873150000000 1.0
C      1  0.4796900000000  0.5971580000000  0.4390920000000 1.0
C      1  0.5576990000000  0.5187980000000  0.5925000000000 1.0
C      1  0.4139450000000  0.4431730000000  0.5165220000000 1.0
C      1  0.4830410000000  0.4076490000000  0.5593110000000 1.0
C      1  0.5181120000000  0.4045550000000  0.4361820000000 1.0
C      1  0.5101590000000  0.5883060000000  0.5582880000000 1.0
C      1  0.5618410000000  0.4853310000000  0.4069780000000 1.0
C      1  0.4391490000000  0.4869450000000  0.5992250000000 1.0
C      1  0.4467550000000  0.5139570000000  0.4189360000000 1.0
C      1  0.4105150000000  0.5639580000000  0.4827500000000 1.0
C      1  0.5922430000000  0.5560350000000  0.5137800000000 1.0
C      1  0.5909500000000  0.4436560000000  0.4879540000000 1.0
C      1  0.5559060000000  0.5036520000000  0.5045140000000 1.0
C      1  0.4936280000000  0.5341110000000  0.5085930000000 1.0
C      1  0.5167920000000  0.4828310000000  0.5531510000000 1.0
C      1  0.5439200000000  0.4631330000000  0.5185730000000 1.0
C      1  0.4720970000000  0.4943640000000  0.4846450000000 1.0
C      1  0.4640550000000  0.5015820000000  0.5367850000000 1.0
C      1  0.4886470000000  0.4749190000000  0.4923640000000 1.0
C      1  0.5181410000000  0.4637380000000  0.5320510000000 1.0
C      1  0.5261680000000  0.5315990000000  0.4729480000000 1.0
C      1  0.5183360000000  0.5085030000000  0.4580300000000 1.0
C      1  0.4872290000000  0.5158820000000  0.5293140000000 1.0
C      1  0.4890100000000  0.4835610000000  0.4286410000000 1.0
C      1  0.4738450000000  0.5191720000000  0.4706890000000 1.0
C      1  0.5213880000000  0.5340420000000  0.5010860000000 1.0
C      1  0.4667350000000  0.4554120000000  0.5267670000000 1.0
C      1  0.4453020000000  0.4792010000000  0.5266520000000 1.0
C      1  0.5439660000000  0.4796460000000  0.4942340000000 1.0
C      1  0.5372680000000  0.5193950000000  0.5184200000000 1.0
C      1  0.5139440000000  0.4352350000000  0.4722660000000 1.0
C      1  0.4943470000000  0.4548630000000  0.5142470000000 1.0
C      1  0.4788950000000  0.5439130000000  0.4860140000000 1.0
C      1  0.4885750000000  0.5102620000000  0.4452300000000 1.0
C      1  0.5132090000000  0.5104980000000  0.5437040000000 1.0
C      1  0.5307350000000  0.4843750000000  0.4689770000000 1.0
C      1  0.5210170000000  0.4069800000000  0.5079500000000 1.0
C      1  0.5089450000000  0.5191230000000  0.3981400000000 1.0
C      1  0.4092710000000  0.5122750000000  0.5242520000000 1.0
C      1  0.5145920000000  0.5817530000000  0.4845000000000 1.0
C      1  0.4692670000000  0.6057060000000  0.5124910000000 1.0
C      1  0.4736730000000  0.3899270000000  0.4869290000000 1.0
C      1  0.5072560000000  0.4636400000000  0.5974390000000 1.0
C      1  0.5013580000000  0.4489340000000  0.3821870000000 1.0
C      1  0.4872050000000  0.5289240000000  0.6068350000000 1.0
C      1  0.4176460000000  0.4951700000000  0.4811270000000 1.0
C      1  0.5930910000000  0.4865120000000  0.5419290000000 1.0
C      1  0.6021010000000  0.5138370000000  0.4578640000000 1.0
C      1  0.4729900000000  0.3886980000000  0.5138580000000 1.0
C      1  0.4867920000000  0.5366770000000  0.4044300000000 1.0
C      1  0.5975470000000  0.5077680000000  0.5243320000000 1.0
C      1  0.4704330000000  0.5947730000000  0.4867110000000 1.0
C      1  0.5304770000000  0.5877350000000  0.5077940000000 1.0
C      1  0.5394470000000  0.3987830000000  0.4863750000000 1.0
C      1  0.4854670000000  0.4744470000000  0.6117720000000 1.0
C      1  0.5175650000000  0.4708230000000  0.3902660000000 1.0
C      1  0.5117120000000  0.5313160000000  0.5935400000000 1.0
C      1  0.5966050000000  0.4943310000000  0.4778250000000 1.0
C      1  0.3992770000000  0.4946730000000  0.5434840000000 1.0
C      1  0.4091890000000  0.5182570000000  0.4682470000000 1.0
C      1  0.5406210000000  0.5678290000000  0.5962990000000 1.0
C      1  0.5946710000000  0.5389110000000  0.5605650000000 1.0
C      1  0.5555000000000  0.5770810000000  0.5457530000000 1.0
C      1  0.5462180000000  0.4363970000000  0.4056700000000 1.0
C      1  0.4573990000000  0.4409760000000  0.5938270000000 1.0
C      1  0.4376230000000  0.5752650000000  0.4320380000000 1.0
C      1  0.5922050000000  0.4616730000000  0.4429920000000 1.0
C      1  0.4201230000000  0.4553210000000  0.5657030000000 1.0
C      1  0.4216120000000  0.5516010000000  0.4352760000000 1.0
C      1  0.5602870000000  0.4242760000000  0.4528890000000 1.0
C      1  0.4371410000000  0.4048360000000  0.5406410000000 1.0
C      1  0.4348040000000  0.5948290000000  0.4541550000000 1.0
C      1  0.4562910000000  0.5629830000000  0.5946550000000 1.0
C      1  0.4154790000000  0.5440170000000  0.5585970000000 1.0
C      1  0.4342790000000  0.5949090000000  0.5419790000000 1.0
C      1  0.4610560000000  0.4403370000000  0.4336610000000 1.0
C      1  0.5512840000000  0.4298810000000  0.5744270000000 1.0
C      1  0.5340340000000  0.5592790000000  0.4043050000000 1.0
C      1  0.4025920000000  0.4678240000000  0.4444360000000 1.0
C      1  0.5659060000000  0.4510700000000  0.5639220000000 1.0
C      1  0.5863870000000  0.5502620000000  0.4346050000000 1.0
C      1  0.4517310000000  0.4245820000000  0.4574400000000 1.0
C      1  0.5569600000000  0.3987600000000  0.5378750000000 1.0
C      1  0.5536430000000  0.5856390000000  0.4561250000000 1.0
C      1  0.4859720000000  0.5648670000000  0.4054440000000 1.0
C      1  0.5048920000000  0.4361730000000  0.5902970000000 1.0
C      1  0.4020930000000  0.5083130000000  0.4149580000000 1.0
C      1  0.4033800000000  0.4990200000000  0.5708660000000 1.0
C      1  0.5965310000000  0.5064450000000  0.4304250000000 1.0
C      1  0.5895500000000  0.4921460000000  0.5692670000000 1.0
C      1  0.4124250000000  0.6065310000000  0.4990990000000 1.0
C      1  0.5594320000000  0.5882390000000  0.5025480000000 1.0
C      1  0.5681150000000  0.4018080000000  0.4921710000000 1.0
C      1  0.4964090000000  0.5898030000000  0.6021600000000 1.0
C      1  0.4989560000000  0.4268820000000  0.3994500000000 1.0
C      1  0.4230270000000  0.4038130000000  0.4938170000000 1.0
C      1  0.5110870000000  0.5291830000000  0.5656070000000 1.0
C      1  0.5045080000000  0.4911990000000  0.4043540000000 1.0
C      1  0.5060600000000  0.4306140000000  0.4998240000000 1.0
C      1  0.4275570000000  0.4981680000000  0.5070480000000 1.0
C      1  0.4873160000000  0.5719900000000  0.4846700000000 1.0
C      1  0.5836420000000  0.5041160000000  0.5006280000000 1.0
END
