TITL C-3623282-6910-1192 1.88944975478322e-07 125000 -522.225285426461 0 0 85 (C1) n - 1
REM
REM in /home/nfs/bkarasulu/CARBON/AIRSS/Generating-Clusters/LCBOP/Higher-Symm/SD-CG/FIRE-CG
REM
REM
REM
REM
REM
REM ./C.cell (b20cbc046b6831c77cfcea5457e17084)
REM AIRSS Version 0.9.1 bugfix July 2018 build 013d7b7c2542+ Fri, 06 Jul 2018 19:26:36 +0100
REM compiler GCC version 9.2.1 20190827 (Red Hat 9.2.1-1)
REM options -cpp -mtune=generic -march=x86-64 -g -O0 -fpre-include=/usr/include/finclude/math-vector-fortran.h
REM seed -894911667 -21642290 38992936 -284527975 653258743 -197751278 1328711807 -551377642 -309653484 1159829428 1470358757 1954936885 1241533837 1050824849 -768075930 1561410934 -1905907028 -1801486051 -1170449883 1230430921 -901022171 1792084751 56226517 -1650197883 1368500720 -1028510656 398369957 -1669640789 287909503 -1456554041 -408022378 629440970 -1926850853
REM
CELL 1.54180   50.00000   50.00000   50.00000   90.00000   90.00000   90.00000
LATT -1
SFAC C  
C      1  0.5643690000000  0.5079520000000  0.4581010000000 1.0
C      1  0.5275840000000  0.4824860000000  0.4978540000000 1.0
C      1  0.5147790000000  0.5382170000000  0.5170030000000 1.0
C      1  0.4529370000000  0.4482580000000  0.5240990000000 1.0
C      1  0.5692560000000  0.5336780000000  0.5296760000000 1.0
C      1  0.5595990000000  0.5586780000000  0.5409840000000 1.0
C      1  0.5310170000000  0.5262610000000  0.4241700000000 1.0
C      1  0.4734760000000  0.4899230000000  0.5146020000000 1.0
C      1  0.4731060000000  0.4218170000000  0.4905420000000 1.0
C      1  0.4953680000000  0.4104100000000  0.4451960000000 1.0
C      1  0.5629580000000  0.5882950000000  0.5011570000000 1.0
C      1  0.5535640000000  0.4858600000000  0.4164840000000 1.0
C      1  0.5739650000000  0.4877490000000  0.5173360000000 1.0
C      1  0.5555260000000  0.4797540000000  0.4969810000000 1.0
C      1  0.4530150000000  0.5318030000000  0.5292660000000 1.0
C      1  0.4875210000000  0.4992960000000  0.4111950000000 1.0
C      1  0.4998460000000  0.4867810000000  0.6025460000000 1.0
C      1  0.4808820000000  0.4075670000000  0.4676490000000 1.0
C      1  0.5435850000000  0.5472720000000  0.4788590000000 1.0
C      1  0.4778990000000  0.4623730000000  0.5157310000000 1.0
C      1  0.5647380000000  0.5058050000000  0.5390800000000 1.0
C      1  0.5070080000000  0.4903300000000  0.4800530000000 1.0
C      1  0.4588390000000  0.5039870000000  0.4112550000000 1.0
C      1  0.3945900000000  0.4645440000000  0.4744350000000 1.0
C      1  0.5160770000000  0.5653570000000  0.5269580000000 1.0
C      1  0.5462690000000  0.4981630000000  0.5868600000000 1.0
C      1  0.5512390000000  0.4335200000000  0.4677440000000 1.0
C      1  0.4639620000000  0.5156960000000  0.5082570000000 1.0
C      1  0.4672230000000  0.4592820000000  0.4584320000000 1.0
C      1  0.5500060000000  0.5746920000000  0.4816990000000 1.0
C      1  0.5199730000000  0.5352340000000  0.4894110000000 1.0
C      1  0.4458520000000  0.4786400000000  0.4213940000000 1.0
C      1  0.5531720000000  0.5102930000000  0.4314130000000 1.0
C      1  0.5374810000000  0.4242590000000  0.4886610000000 1.0
C      1  0.4486700000000  0.5169490000000  0.5743490000000 1.0
C      1  0.4239140000000  0.4845720000000  0.4402490000000 1.0
C      1  0.5662030000000  0.5298660000000  0.4772920000000 1.0
C      1  0.5076390000000  0.4424650000000  0.5542150000000 1.0
C      1  0.4203630000000  0.5131500000000  0.4365620000000 1.0
C      1  0.4420990000000  0.4907520000000  0.5760820000000 1.0
C      1  0.4923390000000  0.5898550000000  0.4663010000000 1.0
C      1  0.4849470000000  0.5910130000000  0.4946330000000 1.0
C      1  0.4871220000000  0.4760980000000  0.5796220000000 1.0
C      1  0.5125490000000  0.5590470000000  0.5976910000000 1.0
C      1  0.5550000000000  0.4575420000000  0.4538070000000 1.0
C      1  0.5122710000000  0.5643900000000  0.6231940000000 1.0
C      1  0.4927960000000  0.4394940000000  0.5034900000000 1.0
C      1  0.3713770000000  0.4619740000000  0.4859950000000 1.0
C      1  0.5636140000000  0.4806800000000  0.4691650000000 1.0
C      1  0.5068780000000  0.5193910000000  0.4143290000000 1.0
C      1  0.5690030000000  0.5816920000000  0.5267490000000 1.0
C      1  0.5821990000000  0.5293900000000  0.5018440000000 1.0
C      1  0.5191800000000  0.4304360000000  0.5087470000000 1.0
C      1  0.4810130000000  0.5672630000000  0.4543000000000 1.0
C      1  0.5079820000000  0.5186300000000  0.5378880000000 1.0
C      1  0.5195760000000  0.4940560000000  0.5478940000000 1.0
C      1  0.5258730000000  0.4945540000000  0.6044900000000 1.0
C      1  0.5256330000000  0.4311270000000  0.5360750000000 1.0
C      1  0.4045410000000  0.5548570000000  0.5236500000000 1.0
C      1  0.4579910000000  0.4459200000000  0.5533590000000 1.0
C      1  0.5127150000000  0.5520000000000  0.5708500000000 1.0
C      1  0.4426920000000  0.4535080000000  0.4732460000000 1.0
C      1  0.4467950000000  0.4359670000000  0.4969440000000 1.0
C      1  0.4671960000000  0.4619840000000  0.4302160000000 1.0
C      1  0.5321040000000  0.5621980000000  0.5513260000000 1.0
C      1  0.5062420000000  0.4707870000000  0.5586520000000 1.0
C      1  0.4597560000000  0.4692930000000  0.5717880000000 1.0
C      1  0.5156620000000  0.4537880000000  0.4227280000000 1.0
C      1  0.4929730000000  0.4710350000000  0.4184780000000 1.0
C      1  0.5007860000000  0.5180020000000  0.4777630000000 1.0
C      1  0.4655850000000  0.5520260000000  0.4740800000000 1.0
C      1  0.4197510000000  0.4674520000000  0.4628910000000 1.0
C      1  0.4619990000000  0.5726910000000  0.4948420000000 1.0
C      1  0.5423670000000  0.4628710000000  0.4285430000000 1.0
C      1  0.4932580000000  0.5336880000000  0.5585460000000 1.0
C      1  0.4736200000000  0.5265190000000  0.4833530000000 1.0
C      1  0.4400230000000  0.5240040000000  0.4201440000000 1.0
C      1  0.5958730000000  0.5035980000000  0.5057630000000 1.0
C      1  0.4647970000000  0.5309210000000  0.5557790000000 1.0
C      1  0.4819210000000  0.4297450000000  0.5583700000000 1.0
C      1  0.5460230000000  0.4982340000000  0.5585160000000 1.0
C      1  0.5090210000000  0.4268000000000  0.4288960000000 1.0
C      1  0.4896070000000  0.4713740000000  0.4698650000000 1.0
C      1  0.5033100000000  0.5873380000000  0.5154790000000 1.0
C      1  0.4284750000000  0.5447840000000  0.5258840000000 1.0
END
