TITL C-3623285-6872-970 3.14784959647555e-07 125000 -367.339821599941 0 0 59 (C1) n - 1
REM
REM in /home/nfs/bkarasulu/CARBON/AIRSS/Generating-Clusters/LCBOP/Higher-Symm/SD-CG/FIRE-CG
REM
REM
REM
REM
REM
REM ./C.cell (b20cbc046b6831c77cfcea5457e17084)
REM AIRSS Version 0.9.1 bugfix July 2018 build 013d7b7c2542+ Fri, 06 Jul 2018 19:26:36 +0100
REM compiler GCC version 9.2.1 20190827 (Red Hat 9.2.1-1)
REM options -cpp -mtune=generic -march=x86-64 -g -O0 -fpre-include=/usr/include/finclude/math-vector-fortran.h
REM seed 1445034245 1191146477 1572168839 -226776214 -984457767 -2061827859 1347488832 -1415787601 1261179126 -1387878487 -1412448359 788353492 275243184 891313708 2145247140 108141887 986765187 -574900718 -1564994381 -617506336 890610374 -1078056467 -391937850 -118184671 -1519190220 418107650 1428478664 -2025084381 1143041727 -503570045 -389209893 -1369951747 -1828248390
REM
CELL 1.54180   50.00000   50.00000   50.00000   90.00000   90.00000   90.00000
LATT -1
SFAC C  
C      1  0.4385560000000  0.4853710000000  0.4776880000000 1.0
C      1  0.4778690000000  0.4745030000000  0.4512080000000 1.0
C      1  0.4571020000000  0.4412160000000  0.4825330000000 1.0
C      1  0.5597980000000  0.5219050000000  0.4681060000000 1.0
C      1  0.4459040000000  0.5173130000000  0.5439770000000 1.0
C      1  0.5507100000000  0.4798330000000  0.5279820000000 1.0
C      1  0.5213720000000  0.5313460000000  0.4410180000000 1.0
C      1  0.4887960000000  0.5319310000000  0.5645720000000 1.0
C      1  0.5165950000000  0.4648410000000  0.5621430000000 1.0
C      1  0.5319530000000  0.5599200000000  0.4779970000000 1.0
C      1  0.4751340000000  0.5523690000000  0.5226490000000 1.0
C      1  0.5197540000000  0.4420960000000  0.5196610000000 1.0
C      1  0.5278860000000  0.5106900000000  0.5548180000000 1.0
C      1  0.5167530000000  0.5211260000000  0.5266420000000 1.0
C      1  0.5436300000000  0.5253970000000  0.5125370000000 1.0
C      1  0.4762060000000  0.4861120000000  0.5615510000000 1.0
C      1  0.5236820000000  0.4875740000000  0.4592330000000 1.0
C      1  0.4752970000000  0.5151600000000  0.4843790000000 1.0
C      1  0.4808020000000  0.4753410000000  0.5315620000000 1.0
C      1  0.5037320000000  0.4478270000000  0.4787390000000 1.0
C      1  0.4876120000000  0.5425260000000  0.4769990000000 1.0
C      1  0.4513750000000  0.4721780000000  0.5226020000000 1.0
C      1  0.5178380000000  0.4758070000000  0.4871620000000 1.0
C      1  0.4474310000000  0.5252030000000  0.4970500000000 1.0
C      1  0.5122830000000  0.5205250000000  0.5777540000000 1.0
C      1  0.5256410000000  0.5854360000000  0.4885730000000 1.0
C      1  0.5627780000000  0.5034730000000  0.5176020000000 1.0
C      1  0.4971460000000  0.4768840000000  0.5802750000000 1.0
C      1  0.5023920000000  0.4823280000000  0.4394800000000 1.0
C      1  0.5101240000000  0.5246410000000  0.4159230000000 1.0
C      1  0.4595950000000  0.4148860000000  0.4932550000000 1.0
C      1  0.5072880000000  0.4274110000000  0.4988770000000 1.0
C      1  0.4826230000000  0.5631720000000  0.4974760000000 1.0
C      1  0.4327610000000  0.4928840000000  0.5339950000000 1.0
C      1  0.5848590000000  0.5101850000000  0.4741830000000 1.0
C      1  0.4250840000000  0.5071960000000  0.4909190000000 1.0
C      1  0.4513600000000  0.5364400000000  0.5228080000000 1.0
C      1  0.5387820000000  0.5110120000000  0.4526510000000 1.0
C      1  0.5025550000000  0.4536390000000  0.5389360000000 1.0
C      1  0.5366500000000  0.4639620000000  0.5091170000000 1.0
C      1  0.4444650000000  0.4630140000000  0.4956230000000 1.0
C      1  0.5489230000000  0.5397750000000  0.4884350000000 1.0
C      1  0.4632340000000  0.4945070000000  0.4647060000000 1.0
C      1  0.5371310000000  0.4835600000000  0.5531320000000 1.0
C      1  0.4667390000000  0.5130690000000  0.5626850000000 1.0
C      1  0.4961480000000  0.5413380000000  0.5379030000000 1.0
C      1  0.5110800000000  0.5479130000000  0.4614780000000 1.0
C      1  0.4789270000000  0.4501320000000  0.4657850000000 1.0
C      1  0.5026820000000  0.4973030000000  0.4154720000000 1.0
C      1  0.5067940000000  0.4989440000000  0.5955700000000 1.0
C      1  0.4863370000000  0.4087870000000  0.5008750000000 1.0
C      1  0.4120210000000  0.4992510000000  0.5150020000000 1.0
C      1  0.4983330000000  0.5866880000000  0.4961280000000 1.0
C      1  0.5859250000000  0.5024570000000  0.5014140000000 1.0
C      1  0.4388060000000  0.3975320000000  0.4958300000000 1.0
C      1  0.6051220000000  0.5068590000000  0.4564080000000 1.0
C      1  0.5432670000000  0.6059450000000  0.4911100000000 1.0
C      1  0.5069490000000  0.5418790000000  0.3951880000000 1.0
C      1  0.4970520000000  0.4974610000000  0.5073990000000 1.0
END
