TITL C-3623284-6838-461 474987.331243896 125000 -1040.31918373564 0 0 167 (C1) n - 1
REM
REM in /home/nfs/bkarasulu/CARBON/AIRSS/Generating-Clusters/LCBOP/Higher-Symm/SD-CG/FIRE-CG
REM
REM
REM
REM
REM
REM ./C.cell (b20cbc046b6831c77cfcea5457e17084)
REM AIRSS Version 0.9.1 bugfix July 2018 build 013d7b7c2542+ Fri, 06 Jul 2018 19:26:36 +0100
REM compiler GCC version 9.2.1 20190827 (Red Hat 9.2.1-1)
REM options -cpp -mtune=generic -march=x86-64 -g -O0 -fpre-include=/usr/include/finclude/math-vector-fortran.h
REM seed -173750584 -757528388 -1808808827 -671823783 -1581161466 -1929515194 -1461946213 1562852102 959623562 -785760418 1399263145 -1574684189 99607125 791287068 -823150171 -171912499 -1406630197 1861613512 -1968162907 1899210282 1901459325 848850749 -1185444909 -509321654 1462627676 1446892229 -1841270820 -2033985261 746895916 -877781448 1954871694 758051751 -2114355181
REM
CELL 1.54180   50.00000   50.00000   50.00000   90.00000   90.00000   90.00000
LATT -1
SFAC C  
C      1  0.4724570000000  0.5054020000000  0.4038120000000 1.0
C      1  0.4864500000000  0.4750200000000  0.4036100000000 1.0
C      1  0.5196040000000  0.4790750000000  0.4033450000000 1.0
C      1  0.5259140000000  0.5118690000000  0.4034990000000 1.0
C      1  0.4967270000000  0.5279760000000  0.4036810000000 1.0
C      1  0.5607760000000  0.4063830000000  0.4875050000000 1.0
C      1  0.6073410000000  0.5273410000000  0.4871980000000 1.0
C      1  0.5054710000000  0.6098840000000  0.4872020000000 1.0
C      1  0.3966490000000  0.5412820000000  0.4881150000000 1.0
C      1  0.4307100000000  0.4154140000000  0.4872910000000 1.0
C      1  0.6006030000000  0.5407130000000  0.5122520000000 1.0
C      1  0.4906780000000  0.6075380000000  0.5120100000000 1.0
C      1  0.3932870000000  0.5266200000000  0.5132960000000 1.0
C      1  0.4441980000000  0.4085070000000  0.5119680000000 1.0
C      1  0.5716680000000  0.4164600000000  0.5125630000000 1.0
C      1  0.5317070000000  0.4492040000000  0.5120180000000 1.0
C      1  0.5603120000000  0.5087020000000  0.5131890000000 1.0
C      1  0.5035860000000  0.5543100000000  0.5094450000000 1.0
C      1  0.4434460000000  0.5267350000000  0.5142910000000 1.0
C      1  0.4619100000000  0.4603610000000  0.5091500000000 1.0
C      1  0.5657210000000  0.4843210000000  0.5801010000000 1.0
C      1  0.5343770000000  0.5562670000000  0.5788480000000 1.0
C      1  0.4557140000000  0.5508190000000  0.5809820000000 1.0
C      1  0.4384180000000  0.4746170000000  0.5797360000000 1.0
C      1  0.5061300000000  0.4338170000000  0.5795110000000 1.0
C      1  0.4728490000000  0.4063270000000  0.5187310000000 1.0
C      1  0.5832840000000  0.4429430000000  0.5191720000000 1.0
C      1  0.5779520000000  0.5584310000000  0.5192240000000 1.0
C      1  0.4656600000000  0.5933180000000  0.5187870000000 1.0
C      1  0.4004830000000  0.4986220000000  0.5201330000000 1.0
C      1  0.4664370000000  0.5694390000000  0.4196830000000 1.0
C      1  0.4232370000000  0.4898900000000  0.4187810000000 1.0
C      1  0.4862030000000  0.4233900000000  0.4194910000000 1.0
C      1  0.5687060000000  0.4629670000000  0.4187170000000 1.0
C      1  0.5566000000000  0.5534210000000  0.4190730000000 1.0
C      1  0.5145920000000  0.6013610000000  0.4383680000000 1.0
C      1  0.4084130000000  0.5460530000000  0.4389180000000 1.0
C      1  0.4280060000000  0.4270670000000  0.4385910000000 1.0
C      1  0.5482350000000  0.4090660000000  0.4384960000000 1.0
C      1  0.6016700000000  0.5167800000000  0.4381100000000 1.0
C      1  0.4704490000000  0.4445720000000  0.4091740000000 1.0
C      1  0.5435760000000  0.4544740000000  0.4088330000000 1.0
C      1  0.5567720000000  0.5269040000000  0.4091610000000 1.0
C      1  0.4915490000000  0.5618950000000  0.4090570000000 1.0
C      1  0.4386660000000  0.5115240000000  0.4092010000000 1.0
C      1  0.4496880000000  0.5759070000000  0.5681400000000 1.0
C      1  0.4121320000000  0.4766630000000  0.5679920000000 1.0
C      1  0.4961090000000  0.4098910000000  0.5672030000000 1.0
C      1  0.5857060000000  0.4674800000000  0.5678800000000 1.0
C      1  0.5567700000000  0.5698250000000  0.5669070000000 1.0
C      1  0.4252200000000  0.5897660000000  0.5677940000000 1.0
C      1  0.3928710000000  0.4563040000000  0.5655350000000 1.0
C      1  0.5081320000000  0.3845430000000  0.5655310000000 1.0
C      1  0.6135270000000  0.4716280000000  0.5674060000000 1.0
C      1  0.5607600000000  0.5974690000000  0.5636630000000 1.0
C      1  0.6032310000000  0.4543790000000  0.4520960000000 1.0
C      1  0.5738570000000  0.5816140000000  0.4550320000000 1.0
C      1  0.4423830000000  0.5961250000000  0.4527080000000 1.0
C      1  0.3918290000000  0.4779860000000  0.4542750000000 1.0
C      1  0.4890240000000  0.3894340000000  0.4544350000000 1.0
C      1  0.4677310000000  0.5845420000000  0.5478190000000 1.0
C      1  0.4076930000000  0.4979330000000  0.5495380000000 1.0
C      1  0.4759480000000  0.4137750000000  0.5476000000000 1.0
C      1  0.5768460000000  0.4485920000000  0.5484100000000 1.0
C      1  0.5719500000000  0.5546650000000  0.5482760000000 1.0
C      1  0.4980480000000  0.5505700000000  0.4650760000000 1.0
C      1  0.4527780000000  0.5141520000000  0.4693170000000 1.0
C      1  0.4726850000000  0.4578000000000  0.4648610000000 1.0
C      1  0.5320600000000  0.4600410000000  0.4656630000000 1.0
C      1  0.5479540000000  0.5159760000000  0.4674170000000 1.0
C      1  0.4171670000000  0.4433190000000  0.5277510000000 1.0
C      1  0.5296970000000  0.4021120000000  0.5279820000000 1.0
C      1  0.6057460000000  0.4967430000000  0.5285890000000 1.0
C      1  0.5324410000000  0.5926860000000  0.5268630000000 1.0
C      1  0.4161110000000  0.5644670000000  0.5294960000000 1.0
C      1  0.4536170000000  0.5175240000000  0.5384650000000 1.0
C      1  0.4775930000000  0.4814230000000  0.5186630000000 1.0
C      1  0.5291610000000  0.4665870000000  0.5333890000000 1.0
C      1  0.5434790000000  0.5042420000000  0.5343680000000 1.0
C      1  0.4975850000000  0.5291300000000  0.5199250000000 1.0
C      1  0.5537990000000  0.6064580000000  0.5390340000000 1.0
C      1  0.4114180000000  0.5876640000000  0.5445700000000 1.0
C      1  0.3924750000000  0.4444570000000  0.5411570000000 1.0
C      1  0.5199310000000  0.3795710000000  0.5416380000000 1.0
C      1  0.6233140000000  0.4813590000000  0.5440980000000 1.0
C      1  0.5901950000000  0.4476030000000  0.4291790000000 1.0
C      1  0.5774850000000  0.5680280000000  0.4317070000000 1.0
C      1  0.4575210000000  0.5943040000000  0.4301350000000 1.0
C      1  0.3974750000000  0.4903800000000  0.4307320000000 1.0
C      1  0.4780870000000  0.3988560000000  0.4313430000000 1.0
C      1  0.5115920000000  0.4786690000000  0.5506290000000 1.0
C      1  0.5223700000000  0.5062890000000  0.5514860000000 1.0
C      1  0.5003280000000  0.5235680000000  0.5477020000000 1.0
C      1  0.4755950000000  0.5090240000000  0.5531490000000 1.0
C      1  0.4837700000000  0.4817850000000  0.5465860000000 1.0
C      1  0.5414870000000  0.4695830000000  0.5887460000000 1.0
C      1  0.5415830000000  0.5291240000000  0.5883490000000 1.0
C      1  0.4844050000000  0.5480700000000  0.5884450000000 1.0
C      1  0.4484790000000  0.5006490000000  0.5899150000000 1.0
C      1  0.4843820000000  0.4523180000000  0.5877970000000 1.0
C      1  0.4521170000000  0.5487260000000  0.4309910000000 1.0
C      1  0.4381730000000  0.4692210000000  0.4290660000000 1.0
C      1  0.5105720000000  0.4311520000000  0.4298000000000 1.0
C      1  0.5686560000000  0.4881200000000  0.4300740000000 1.0
C      1  0.5322210000000  0.5616580000000  0.4288330000000 1.0
C      1  0.4289670000000  0.5369460000000  0.4194720000000 1.0
C      1  0.4427660000000  0.4432310000000  0.4184690000000 1.0
C      1  0.5365170000000  0.4279540000000  0.4186240000000 1.0
C      1  0.5795600000000  0.5118040000000  0.4188740000000 1.0
C      1  0.5129260000000  0.5795750000000  0.4181230000000 1.0
C      1  0.5823910000000  0.4905250000000  0.5130730000000 1.0
C      1  0.5293830000000  0.5672620000000  0.5135680000000 1.0
C      1  0.4385320000000  0.5548240000000  0.5140120000000 1.0
C      1  0.4334530000000  0.4623000000000  0.5137580000000 1.0
C      1  0.5176330000000  0.4241140000000  0.5135820000000 1.0
C      1  0.4369980000000  0.5270270000000  0.5793300000000 1.0
C      1  0.4567320000000  0.4507650000000  0.5759210000000 1.0
C      1  0.5349650000000  0.4424720000000  0.5769940000000 1.0
C      1  0.5658040000000  0.5143310000000  0.5773100000000 1.0
C      1  0.5056010000000  0.5652220000000  0.5757010000000 1.0
C      1  0.4976500000000  0.5233340000000  0.4593330000000 1.0
C      1  0.4773600000000  0.5040880000000  0.4612390000000 1.0
C      1  0.4894830000000  0.4788480000000  0.4580920000000 1.0
C      1  0.5175210000000  0.4822050000000  0.4559580000000 1.0
C      1  0.5225790000000  0.5102430000000  0.4572140000000 1.0
C      1  0.4525730000000  0.4285450000000  0.5567320000000 1.0
C      1  0.5553150000000  0.4308560000000  0.5577600000000 1.0
C      1  0.5830900000000  0.5294850000000  0.5579360000000 1.0
C      1  0.4956070000000  0.5855800000000  0.5565070000000 1.0
C      1  0.4133990000000  0.5250100000000  0.5596380000000 1.0
C      1  0.4927050000000  0.5237800000000  0.6012390000000 1.0
C      1  0.4748910000000  0.5003630000000  0.6016390000000 1.0
C      1  0.4921320000000  0.4764490000000  0.6009940000000 1.0
C      1  0.5203580000000  0.4848400000000  0.6010600000000 1.0
C      1  0.5206180000000  0.5142340000000  0.6011010000000 1.0
C      1  0.4332330000000  0.4219780000000  0.5357780000000 1.0
C      1  0.5551990000000  0.4103950000000  0.5364270000000 1.0
C      1  0.6031500000000  0.5237020000000  0.5366520000000 1.0
C      1  0.5075200000000  0.6017130000000  0.5353530000000 1.0
C      1  0.4014070000000  0.5416970000000  0.5378330000000 1.0
C      1  0.4522040000000  0.5394720000000  0.4572920000000 1.0
C      1  0.4477340000000  0.4668470000000  0.4552840000000 1.0
C      1  0.5161960000000  0.4386800000000  0.4562880000000 1.0
C      1  0.5634890000000  0.4950560000000  0.4567340000000 1.0
C      1  0.5232070000000  0.5582760000000  0.4551860000000 1.0
C      1  0.5541220000000  0.5586490000000  0.4992100000000 1.0
C      1  0.4555280000000  0.5730530000000  0.4968690000000 1.0
C      1  0.4186260000000  0.4839350000000  0.4989770000000 1.0
C      1  0.4925860000000  0.4180840000000  0.4976100000000 1.0
C      1  0.5794380000000  0.4651960000000  0.4968920000000 1.0
C      1  0.5538350000000  0.5280440000000  0.4920960000000 1.0
C      1  0.4849490000000  0.5613300000000  0.4879590000000 1.0
C      1  0.4382270000000  0.5080710000000  0.4924310000000 1.0
C      1  0.4756090000000  0.4438590000000  0.4892230000000 1.0
C      1  0.5478580000000  0.4580440000000  0.4892170000000 1.0
C      1  0.5244440000000  0.6013280000000  0.4668370000000 1.0
C      1  0.4111080000000  0.5565820000000  0.4672060000000 1.0
C      1  0.4200350000000  0.4334160000000  0.4669440000000 1.0
C      1  0.5403320000000  0.4026430000000  0.4668920000000 1.0
C      1  0.6057110000000  0.5068350000000  0.4662290000000 1.0
C      1  0.5991280000000  0.4734430000000  0.4726000000000 1.0
C      1  0.5534890000000  0.5835640000000  0.4742450000000 1.0
C      1  0.4342850000000  0.5776380000000  0.4730150000000 1.0
C      1  0.4067590000000  0.4648300000000  0.4742950000000 1.0
C      1  0.5064390000000  0.3999330000000  0.4741450000000 1.0
C      1  0.4936510000000  0.5030310000000  0.5072080000000 1.0
C      1  0.5169230000000  0.4935450000000  0.4969260000000 1.0
END
