TITL C-3623287-7182-1816 -0.0855760816066735 125000 -838.940792302256 0 0 134 (C1) n - 1
REM
REM in /home/nfs/bkarasulu/CARBON/AIRSS/Generating-Clusters/LCBOP/Higher-Symm/SD-CG/FIRE-CG
REM
REM
REM
REM
REM
REM ./C.cell (b20cbc046b6831c77cfcea5457e17084)
REM AIRSS Version 0.9.1 bugfix July 2018 build 013d7b7c2542+ Fri, 06 Jul 2018 19:26:36 +0100
REM compiler GCC version 9.2.1 20190827 (Red Hat 9.2.1-1)
REM options -cpp -mtune=generic -march=x86-64 -g -O0 -fpre-include=/usr/include/finclude/math-vector-fortran.h
REM seed -2020353791 -667142642 -602112262 -527199917 1291065199 67962466 -327407786 -694248709 875642898 394140748 -354521150 946043365 -827147568 -263029068 1767613655 1861021227 1048686522 -1571500851 2104848781 47367589 -1210421715 -1368505380 1212734909 46798129 -2030543035 -174054202 -1499501278 956956550 1669614548 -1226623561 42848006 38142693 1995321152
REM
CELL 1.54180   50.00000   50.00000   50.00000   90.00000   90.00000   90.00000
LATT -1
SFAC C  
C      1  0.4789750000000  0.4867370000000  0.4130970000000 1.0
C      1  0.5184370000000  0.5392760000000  0.4185600000000 1.0
C      1  0.4879710000000  0.5810560000000  0.4560260000000 1.0
C      1  0.5205790000000  0.5892040000000  0.5103590000000 1.0
C      1  0.4857010000000  0.5658000000000  0.5596930000000 1.0
C      1  0.5220220000000  0.5174910000000  0.5822380000000 1.0
C      1  0.4848900000000  0.4648320000000  0.5766740000000 1.0
C      1  0.5192390000000  0.4253490000000  0.5391080000000 1.0
C      1  0.4880640000000  0.4133110000000  0.4846950000000 1.0
C      1  0.5212320000000  0.4398780000000  0.4360720000000 1.0
C      1  0.6107370000000  0.4741320000000  0.4807170000000 1.0
C      1  0.4099120000000  0.5068410000000  0.4785640000000 1.0
C      1  0.5886430000000  0.5177970000000  0.4784190000000 1.0
C      1  0.3805240000000  0.5296740000000  0.5103070000000 1.0
C      1  0.6051980000000  0.5408090000000  0.5181330000000 1.0
C      1  0.3503120000000  0.5047760000000  0.5393530000000 1.0
C      1  0.6097770000000  0.4992690000000  0.5444840000000 1.0
C      1  0.3506470000000  0.4608830000000  0.5197740000000 1.0
C      1  0.6095310000000  0.4541230000000  0.5239730000000 1.0
C      1  0.3804270000000  0.4677580000000  0.4824810000000 1.0
C      1  0.5263440000000  0.5239720000000  0.5345110000000 1.0
C      1  0.4830050000000  0.4981190000000  0.5386970000000 1.0
C      1  0.5240280000000  0.4726500000000  0.5285600000000 1.0
C      1  0.4734840000000  0.4555610000000  0.5057280000000 1.0
C      1  0.5253700000000  0.4598610000000  0.4794210000000 1.0
C      1  0.4803670000000  0.4781040000000  0.4613780000000 1.0
C      1  0.5248160000000  0.5043880000000  0.4548060000000 1.0
C      1  0.4849820000000  0.5320170000000  0.4684090000000 1.0
C      1  0.5284490000000  0.5459190000000  0.4893270000000 1.0
C      1  0.4751630000000  0.5457070000000  0.5173580000000 1.0
C      1  0.3643670000000  0.5493840000000  0.5519390000000 1.0
C      1  0.6467240000000  0.5317660000000  0.5431100000000 1.0
C      1  0.3221220000000  0.4699670000000  0.5579160000000 1.0
C      1  0.6419330000000  0.4646740000000  0.5606540000000 1.0
C      1  0.3626270000000  0.4235840000000  0.4913280000000 1.0
C      1  0.6435330000000  0.4380950000000  0.4916430000000 1.0
C      1  0.3924610000000  0.4840620000000  0.4386980000000 1.0
C      1  0.6256980000000  0.4796830000000  0.4287810000000 1.0
C      1  0.3639880000000  0.5637590000000  0.4712670000000 1.0
C      1  0.6220670000000  0.5536200000000  0.4736240000000 1.0
C      1  0.6710550000000  0.5378960000000  0.5501460000000 1.0
C      1  0.3045810000000  0.4620100000000  0.5754730000000 1.0
C      1  0.6620510000000  0.4581600000000  0.5758820000000 1.0
C      1  0.3613870000000  0.3983460000000  0.4849460000000 1.0
C      1  0.6637310000000  0.4228560000000  0.4854050000000 1.0
C      1  0.3911880000000  0.4814150000000  0.4128030000000 1.0
C      1  0.6312110000000  0.4843690000000  0.4037370000000 1.0
C      1  0.3561430000000  0.5792650000000  0.4518360000000 1.0
C      1  0.6371610000000  0.5679070000000  0.4579060000000 1.0
C      1  0.3649930000000  0.5695360000000  0.5684510000000 1.0
C      1  0.5125440000000  0.4987330000000  0.5310130000000 1.0
C      1  0.4684580000000  0.4738170000000  0.5267280000000 1.0
C      1  0.5363080000000  0.4615230000000  0.5052540000000 1.0
C      1  0.4642260000000  0.4605780000000  0.4794690000000 1.0
C      1  0.5103160000000  0.4807140000000  0.4673350000000 1.0
C      1  0.4705420000000  0.5066010000000  0.4609420000000 1.0
C      1  0.5148000000000  0.5274580000000  0.4725490000000 1.0
C      1  0.4694680000000  0.5456410000000  0.4903340000000 1.0
C      1  0.5398900000000  0.5393520000000  0.5146730000000 1.0
C      1  0.4686200000000  0.5239780000000  0.5339040000000 1.0
C      1  0.4505440000000  0.5326600000000  0.5547970000000 1.0
C      1  0.5642830000000  0.4989850000000  0.5649010000000 1.0
C      1  0.4478340000000  0.4642740000000  0.5451910000000 1.0
C      1  0.5567910000000  0.4419720000000  0.5139260000000 1.0
C      1  0.4502210000000  0.4379600000000  0.4685200000000 1.0
C      1  0.5577410000000  0.4733320000000  0.4363360000000 1.0
C      1  0.4475170000000  0.5114390000000  0.4440240000000 1.0
C      1  0.5639200000000  0.5422150000000  0.4396780000000 1.0
C      1  0.4503040000000  0.5646410000000  0.4793190000000 1.0
C      1  0.5567270000000  0.5607890000000  0.5248510000000 1.0
C      1  0.6223110000000  0.4546540000000  0.4983740000000 1.0
C      1  0.3945060000000  0.4858770000000  0.4665250000000 1.0
C      1  0.6188460000000  0.4757710000000  0.4540700000000 1.0
C      1  0.3728570000000  0.5477510000000  0.4904230000000 1.0
C      1  0.6055500000000  0.5378580000000  0.4895490000000 1.0
C      1  0.3649470000000  0.5279380000000  0.5340610000000 1.0
C      1  0.6210800000000  0.5240070000000  0.5354590000000 1.0
C      1  0.3409040000000  0.4784900000000  0.5391280000000 1.0
C      1  0.6212730000000  0.4725020000000  0.5437330000000 1.0
C      1  0.3645690000000  0.4506580000000  0.4978480000000 1.0
C      1  0.4230330000000  0.4769290000000  0.5398600000000 1.0
C      1  0.5805930000000  0.4554900000000  0.5207060000000 1.0
C      1  0.4235960000000  0.4358760000000  0.4637600000000 1.0
C      1  0.5540840000000  0.4973220000000  0.4515070000000 1.0
C      1  0.4261110000000  0.5232140000000  0.4603460000000 1.0
C      1  0.5713190000000  0.5197520000000  0.4557330000000 1.0
C      1  0.4289450000000  0.5512660000000  0.4664350000000 1.0
C      1  0.5841220000000  0.5567010000000  0.5280120000000 1.0
C      1  0.4244390000000  0.5236870000000  0.5501340000000 1.0
C      1  0.5808790000000  0.4980310000000  0.5420940000000 1.0
C      1  0.5407120000000  0.5550780000000  0.4285690000000 1.0
C      1  0.4667160000000  0.5884560000000  0.4741780000000 1.0
C      1  0.5404560000000  0.5839210000000  0.5308740000000 1.0
C      1  0.4661740000000  0.5486660000000  0.5732940000000 1.0
C      1  0.5421790000000  0.4970460000000  0.5828770000000 1.0
C      1  0.4637810000000  0.4487100000000  0.5646630000000 1.0
C      1  0.5409890000000  0.4184090000000  0.5208890000000 1.0
C      1  0.4687380000000  0.4164980000000  0.4634420000000 1.0
C      1  0.5384950000000  0.4578080000000  0.4216580000000 1.0
C      1  0.4597760000000  0.5090300000000  0.4166690000000 1.0
C      1  0.5255390000000  0.4353790000000  0.4640600000000 1.0
C      1  0.4795220000000  0.4659010000000  0.4329100000000 1.0
C      1  0.5183510000000  0.5115620000000  0.4251850000000 1.0
C      1  0.4839680000000  0.5545860000000  0.4458970000000 1.0
C      1  0.5248450000000  0.5748090000000  0.4857960000000 1.0
C      1  0.4815400000000  0.5700080000000  0.5316000000000 1.0
C      1  0.5241480000000  0.5362310000000  0.5610660000000 1.0
C      1  0.4830720000000  0.4925960000000  0.5702180000000 1.0
C      1  0.5214700000000  0.4520800000000  0.5493250000000 1.0
C      1  0.4822290000000  0.4278260000000  0.5090560000000 1.0
C      1  0.4907650000000  0.5478020000000  0.4194340000000 1.0
C      1  0.5161110000000  0.5851300000000  0.4607260000000 1.0
C      1  0.4924240000000  0.5918900000000  0.5167050000000 1.0
C      1  0.5138610000000  0.5628170000000  0.5652700000000 1.0
C      1  0.4943140000000  0.5120170000000  0.5880110000000 1.0
C      1  0.5129280000000  0.4576300000000  0.5757070000000 1.0
C      1  0.4913730000000  0.4191280000000  0.5345650000000 1.0
C      1  0.5162920000000  0.4122850000000  0.4785230000000 1.0
C      1  0.4929340000000  0.4402690000000  0.4293250000000 1.0
C      1  0.5069830000000  0.4925300000000  0.4071960000000 1.0
C      1  0.4699610000000  0.5337190000000  0.4059260000000 1.0
C      1  0.5337110000000  0.5806500000000  0.4389260000000 1.0
C      1  0.4750430000000  0.6031150000000  0.4970960000000 1.0
C      1  0.5309620000000  0.5841020000000  0.5576190000000 1.0
C      1  0.4770220000000  0.5334790000000  0.5948280000000 1.0
C      1  0.5323210000000  0.4716040000000  0.5909550000000 1.0
C      1  0.4725990000000  0.4229300000000  0.5558180000000 1.0
C      1  0.5337000000000  0.4022280000000  0.4986400000000 1.0
C      1  0.4784550000000  0.4170610000000  0.4368280000000 1.0
C      1  0.5251980000000  0.4717680000000  0.4004460000000 1.0
C      1  0.4036010000000  0.5126920000000  0.5066960000000 1.0
C      1  0.5906280000000  0.4923870000000  0.4914340000000 1.0
C      1  0.5775450000000  0.4847670000000  0.5163760000000 1.0
C      1  0.4157050000000  0.5034410000000  0.5316280000000 1.0
END
