TITL C-3623287-7182-1218 -94.0095685964295 125000 -439.903007891993 0 0 73 (C1) n - 1
REM
REM in /home/nfs/bkarasulu/CARBON/AIRSS/Generating-Clusters/LCBOP/Higher-Symm/SD-CG/FIRE-CG
REM
REM
REM
REM
REM
REM ./C.cell (b20cbc046b6831c77cfcea5457e17084)
REM AIRSS Version 0.9.1 bugfix July 2018 build 013d7b7c2542+ Fri, 06 Jul 2018 19:26:36 +0100
REM compiler GCC version 9.2.1 20190827 (Red Hat 9.2.1-1)
REM options -cpp -mtune=generic -march=x86-64 -g -O0 -fpre-include=/usr/include/finclude/math-vector-fortran.h
REM seed -1792476147 291094802 -1345927942 1317981408 -1924069894 950979113 -1079070621 -1893941183 1043591625 1720340472 1589496749 940144000 1662381590 -368566986 -1907147688 483476012 604673072 -361010601 -1320952254 -629480219 -1893225536 2139842348 985072742 723311582 565262452 1635940117 984979947 -1839147339 419293758 149255952 -976091853 415617740 480747991
REM
CELL 1.54180   50.00000   50.00000   50.00000   90.00000   90.00000   90.00000
LATT -1
SFAC C  
C      1  0.5545850000000  0.4525560000000  0.4473340000000 1.0
C      1  0.5211770000000  0.4509770000000  0.5660140000000 1.0
C      1  0.4393890000000  0.4474400000000  0.4758680000000 1.0
C      1  0.4435010000000  0.5188200000000  0.4569370000000 1.0
C      1  0.5633030000000  0.5229920000000  0.4684180000000 1.0
C      1  0.4949060000000  0.5202790000000  0.5684690000000 1.0
C      1  0.4425010000000  0.5018220000000  0.5124740000000 1.0
C      1  0.5183670000000  0.5105650000000  0.4363120000000 1.0
C      1  0.5425160000000  0.5055550000000  0.5405070000000 1.0
C      1  0.5018990000000  0.4705520000000  0.5745590000000 1.0
C      1  0.4406230000000  0.4669840000000  0.4544300000000 1.0
C      1  0.5693890000000  0.4732060000000  0.4604380000000 1.0
C      1  0.4888380000000  0.5501300000000  0.5264100000000 1.0
C      1  0.4804230000000  0.5509510000000  0.4757580000000 1.0
C      1  0.5286770000000  0.5522330000000  0.4939640000000 1.0
C      1  0.4580170000000  0.5198220000000  0.4318360000000 1.0
C      1  0.5763130000000  0.5194870000000  0.4940570000000 1.0
C      1  0.4663520000000  0.5158870000000  0.5669640000000 1.0
C      1  0.5261330000000  0.4746320000000  0.5056260000000 1.0
C      1  0.4806420000000  0.4740610000000  0.5158030000000 1.0
C      1  0.4943630000000  0.4817360000000  0.4608110000000 1.0
C      1  0.4542910000000  0.5363510000000  0.4792170000000 1.0
C      1  0.5389170000000  0.5409430000000  0.4682330000000 1.0
C      1  0.5065330000000  0.5382000000000  0.5475080000000 1.0
C      1  0.5758640000000  0.4924390000000  0.5062800000000 1.0
C      1  0.4572740000000  0.4888440000000  0.5594230000000 1.0
C      1  0.4704900000000  0.4946570000000  0.4223540000000 1.0
C      1  0.4451260000000  0.4372650000000  0.5006180000000 1.0
C      1  0.5363500000000  0.4383640000000  0.4639280000000 1.0
C      1  0.5158060000000  0.4366310000000  0.5423950000000 1.0
C      1  0.4373350000000  0.4909540000000  0.5385830000000 1.0
C      1  0.4990540000000  0.5006980000000  0.4168330000000 1.0
C      1  0.5681280000000  0.4949400000000  0.5338470000000 1.0
C      1  0.5453680000000  0.5481170000000  0.5175870000000 1.0
C      1  0.4602130000000  0.5444710000000  0.5284310000000 1.0
C      1  0.4927280000000  0.5494930000000  0.4493390000000 1.0
C      1  0.5512020000000  0.4412190000000  0.4949610000000 1.0
C      1  0.4775380000000  0.4415330000000  0.5440660000000 1.0
C      1  0.4882020000000  0.4573420000000  0.4475980000000 1.0
C      1  0.5190410000000  0.5375620000000  0.4470550000000 1.0
C      1  0.5341520000000  0.5334550000000  0.5396500000000 1.0
C      1  0.4472180000000  0.5301300000000  0.5068800000000 1.0
C      1  0.5692620000000  0.5004720000000  0.4518100000000 1.0
C      1  0.5078950000000  0.4977920000000  0.5804260000000 1.0
C      1  0.4300430000000  0.4934990000000  0.4595720000000 1.0
C      1  0.5362520000000  0.4331590000000  0.5208090000000 1.0
C      1  0.4582510000000  0.4341370000000  0.5245040000000 1.0
C      1  0.5067480000000  0.4382620000000  0.4610880000000 1.0
C      1  0.4791730000000  0.4973520000000  0.4790910000000 1.0
C      1  0.5257040000000  0.4970070000000  0.4866190000000 1.0
C      1  0.4954680000000  0.4988380000000  0.5245220000000 1.0
C      1  0.4738170000000  0.5434370000000  0.4288450000000 1.0
C      1  0.5724200000000  0.5417560000000  0.5113590000000 1.0
C      1  0.4522840000000  0.5375340000000  0.5548990000000 1.0
C      1  0.5219780000000  0.4891000000000  0.5308520000000 1.0
C      1  0.4611320000000  0.4857520000000  0.4982950000000 1.0
C      1  0.5205070000000  0.4925280000000  0.4586150000000 1.0
C      1  0.5699230000000  0.4680390000000  0.4901050000000 1.0
C      1  0.4755670000000  0.4653390000000  0.5620340000000 1.0
C      1  0.4630540000000  0.4667630000000  0.4346620000000 1.0
C      1  0.4896140000000  0.3818250000000  0.5020290000000 1.0
C      1  0.4979650000000  0.5910440000000  0.4995680000000 1.0
C      1  0.4921940000000  0.4075080000000  0.4960700000000 1.0
C      1  0.5013560000000  0.4569500000000  0.5041220000000 1.0
C      1  0.4986790000000  0.6705090000000  0.4989340000000 1.0
C      1  0.4979750000000  0.4335780000000  0.4882250000000 1.0
C      1  0.4982070000000  0.6440090000000  0.4992860000000 1.0
C      1  0.4989650000000  0.5611000000000  0.4989570000000 1.0
C      1  0.4844560000000  0.3312960000000  0.5155970000000 1.0
C      1  0.4992020000000  0.6965710000000  0.4985530000000 1.0
C      1  0.4869950000000  0.3563450000000  0.5088350000000 1.0
C      1  0.4979090000000  0.6175130000000  0.4995340000000 1.0
C      1  0.5000200000000  0.5105660000000  0.4966430000000 1.0
END
