TITL C-3623282-6910-1540 -1.18884487345998e-06 125000 -1110.56341721881 0 0 182 (C1) n - 1
REM
REM in /home/nfs/bkarasulu/CARBON/AIRSS/Generating-Clusters/LCBOP/Higher-Symm/SD-CG/FIRE-CG
REM
REM
REM
REM
REM
REM ./C.cell (b20cbc046b6831c77cfcea5457e17084)
REM AIRSS Version 0.9.1 bugfix July 2018 build 013d7b7c2542+ Fri, 06 Jul 2018 19:26:36 +0100
REM compiler GCC version 9.2.1 20190827 (Red Hat 9.2.1-1)
REM options -cpp -mtune=generic -march=x86-64 -g -O0 -fpre-include=/usr/include/finclude/math-vector-fortran.h
REM seed 1193856528 -580998256 1537704802 1319337631 -453227070 -1171487827 -198194774 1365294989 -1818815077 1470584947 -1346552111 1934011006 1449405648 1036955224 1829411194 -561590932 -1518265447 713737914 1382013461 -1699132519 -704909556 -1954994445 -1584343432 -2098017890 -961242854 -1052978623 46453567 1730535982 -152329121 117820611 -1654623723 809106870 562046047
REM
CELL 1.54180   50.00000   50.00000   50.00000   90.00000   90.00000   90.00000
LATT -1
SFAC C  
C      1  0.4759730000000  0.6089430000000  0.4257410000000 1.0
C      1  0.4803790000000  0.4027280000000  0.4330520000000 1.0
C      1  0.4806500000000  0.4896610000000  0.6252440000000 1.0
C      1  0.5317000000000  0.5828680000000  0.4119900000000 1.0
C      1  0.5369920000000  0.3963870000000  0.4664750000000 1.0
C      1  0.5306890000000  0.5297130000000  0.6103640000000 1.0
C      1  0.5459240000000  0.4675220000000  0.3959690000000 1.0
C      1  0.5408250000000  0.4183320000000  0.5847400000000 1.0
C      1  0.5507980000000  0.6033150000000  0.5048980000000 1.0
C      1  0.4848650000000  0.4488960000000  0.4559830000000 1.0
C      1  0.4799860000000  0.4839710000000  0.5742680000000 1.0
C      1  0.4840360000000  0.5697910000000  0.4952610000000 1.0
C      1  0.4797190000000  0.5179950000000  0.6172820000000 1.0
C      1  0.4783950000000  0.5847930000000  0.4101090000000 1.0
C      1  0.4818500000000  0.3929440000000  0.4610110000000 1.0
C      1  0.4111630000000  0.5544670000000  0.4923700000000 1.0
C      1  0.4059620000000  0.4623260000000  0.4588960000000 1.0
C      1  0.4041240000000  0.4772860000000  0.5537590000000 1.0
C      1  0.5288250000000  0.4681660000000  0.4524310000000 1.0
C      1  0.5216420000000  0.4648300000000  0.5589710000000 1.0
C      1  0.5274460000000  0.5548990000000  0.5111030000000 1.0
C      1  0.4724050000000  0.5050650000000  0.3937750000000 1.0
C      1  0.4752420000000  0.4005850000000  0.5484240000000 1.0
C      1  0.4888120000000  0.6104090000000  0.5375520000000 1.0
C      1  0.5574590000000  0.3885830000000  0.4850850000000 1.0
C      1  0.5438290000000  0.5537960000000  0.6028780000000 1.0
C      1  0.5517280000000  0.5626060000000  0.4093910000000 1.0
C      1  0.4554010000000  0.5302470000000  0.6052020000000 1.0
C      1  0.4562830000000  0.5625570000000  0.4076370000000 1.0
C      1  0.4596700000000  0.3930330000000  0.4835380000000 1.0
C      1  0.4760550000000  0.6165750000000  0.4913780000000 1.0
C      1  0.4585680000000  0.4549020000000  0.3954970000000 1.0
C      1  0.4721170000000  0.4280670000000  0.5961530000000 1.0
C      1  0.5022960000000  0.5011170000000  0.5813030000000 1.0
C      1  0.4990830000000  0.5723090000000  0.4700510000000 1.0
C      1  0.5044230000000  0.4321960000000  0.4712700000000 1.0
C      1  0.4631960000000  0.5465410000000  0.5825940000000 1.0
C      1  0.4717710000000  0.5360890000000  0.3981310000000 1.0
C      1  0.4734900000000  0.3928110000000  0.5122450000000 1.0
C      1  0.4536530000000  0.4864060000000  0.5598740000000 1.0
C      1  0.4570600000000  0.5656700000000  0.4833480000000 1.0
C      1  0.4583750000000  0.4611290000000  0.4622160000000 1.0
C      1  0.5447840000000  0.6012640000000  0.4306220000000 1.0
C      1  0.5473050000000  0.4116360000000  0.4438700000000 1.0
C      1  0.5527950000000  0.5105610000000  0.6144860000000 1.0
C      1  0.4460510000000  0.4549790000000  0.4879730000000 1.0
C      1  0.4437810000000  0.5138350000000  0.5525550000000 1.0
C      1  0.4595680000000  0.5509320000000  0.4592280000000 1.0
C      1  0.5044700000000  0.4729130000000  0.6267220000000 1.0
C      1  0.4960350000000  0.6276050000000  0.4325020000000 1.0
C      1  0.5029640000000  0.4120950000000  0.4158100000000 1.0
C      1  0.5971470000000  0.5144460000000  0.5278090000000 1.0
C      1  0.6078200000000  0.5415710000000  0.4424900000000 1.0
C      1  0.5952100000000  0.4606210000000  0.5116700000000 1.0
C      1  0.4527290000000  0.6105600000000  0.4425790000000 1.0
C      1  0.4531150000000  0.4102510000000  0.4257030000000 1.0
C      1  0.4555700000000  0.4745920000000  0.6210020000000 1.0
C      1  0.5348030000000  0.5286010000000  0.5211320000000 1.0
C      1  0.5504270000000  0.4855540000000  0.4597190000000 1.0
C      1  0.5427980000000  0.4622920000000  0.5411620000000 1.0
C      1  0.5689930000000  0.5605780000000  0.5404660000000 1.0
C      1  0.5575030000000  0.5055950000000  0.4400290000000 1.0
C      1  0.5532230000000  0.4370100000000  0.5382930000000 1.0
C      1  0.5555720000000  0.5843350000000  0.5484090000000 1.0
C      1  0.5355110000000  0.5112700000000  0.4197490000000 1.0
C      1  0.5409400000000  0.4139320000000  0.5292210000000 1.0
C      1  0.6007990000000  0.5642520000000  0.4565630000000 1.0
C      1  0.5994220000000  0.4542470000000  0.4839470000000 1.0
C      1  0.5950930000000  0.5202000000000  0.5572490000000 1.0
C      1  0.5607380000000  0.5323270000000  0.4520330000000 1.0
C      1  0.5962200000000  0.4114280000000  0.5131280000000 1.0
C      1  0.5685310000000  0.5359430000000  0.5597680000000 1.0
C      1  0.4534330000000  0.4461020000000  0.5324990000000 1.0
C      1  0.4526390000000  0.5574670000000  0.5350150000000 1.0
C      1  0.4476640000000  0.5058040000000  0.4460520000000 1.0
C      1  0.3926220000000  0.5256510000000  0.5370240000000 1.0
C      1  0.3943720000000  0.5145490000000  0.4597070000000 1.0
C      1  0.3898590000000  0.4524050000000  0.5067250000000 1.0
C      1  0.6001320000000  0.5391230000000  0.5119580000000 1.0
C      1  0.6026520000000  0.5182450000000  0.4285250000000 1.0
C      1  0.5960810000000  0.4360370000000  0.5287180000000 1.0
C      1  0.5253770000000  0.5798110000000  0.4731940000000 1.0
C      1  0.5307820000000  0.4196230000000  0.4217620000000 1.0
C      1  0.5263320000000  0.4680970000000  0.6053950000000 1.0
C      1  0.3918790000000  0.4632360000000  0.5316720000000 1.0
C      1  0.3969380000000  0.5415320000000  0.5145180000000 1.0
C      1  0.3921810000000  0.4876120000000  0.4585540000000 1.0
C      1  0.5018180000000  0.3940500000000  0.5040420000000 1.0
C      1  0.4922060000000  0.5468870000000  0.5769220000000 1.0
C      1  0.5006770000000  0.5449780000000  0.4011560000000 1.0
C      1  0.5157730000000  0.6117260000000  0.5399620000000 1.0
C      1  0.4986430000000  0.4944490000000  0.3849040000000 1.0
C      1  0.5006710000000  0.3920490000000  0.5600620000000 1.0
C      1  0.5548780000000  0.5358750000000  0.4790610000000 1.0
C      1  0.5489010000000  0.4532580000000  0.4910590000000 1.0
C      1  0.5496420000000  0.5045460000000  0.5606430000000 1.0
C      1  0.5030990000000  0.5258110000000  0.5981210000000 1.0
C      1  0.5049720000000  0.5739740000000  0.4046160000000 1.0
C      1  0.5075050000000  0.4012130000000  0.4746020000000 1.0
C      1  0.4000230000000  0.4430520000000  0.4810850000000 1.0
C      1  0.3988080000000  0.5064570000000  0.5590030000000 1.0
C      1  0.4119030000000  0.5387680000000  0.4594440000000 1.0
C      1  0.5240850000000  0.3980900000000  0.5725950000000 1.0
C      1  0.5419940000000  0.6033020000000  0.5326860000000 1.0
C      1  0.5227390000000  0.4816040000000  0.3855970000000 1.0
C      1  0.4948160000000  0.4226500000000  0.3903140000000 1.0
C      1  0.4978130000000  0.4451420000000  0.6342850000000 1.0
C      1  0.5052000000000  0.6356030000000  0.4567120000000 1.0
C      1  0.4778520000000  0.5207770000000  0.5039550000000 1.0
C      1  0.4817600000000  0.5070510000000  0.4795400000000 1.0
C      1  0.4872130000000  0.4814220000000  0.5238560000000 1.0
C      1  0.4557230000000  0.4481010000000  0.6101540000000 1.0
C      1  0.4568000000000  0.6173640000000  0.4698650000000 1.0
C      1  0.4466200000000  0.4330420000000  0.4100090000000 1.0
C      1  0.4630730000000  0.4727690000000  0.5340040000000 1.0
C      1  0.4558880000000  0.5347310000000  0.5148920000000 1.0
C      1  0.4639490000000  0.4915250000000  0.4648510000000 1.0
C      1  0.4514800000000  0.4360450000000  0.5071440000000 1.0
C      1  0.4485390000000  0.5422170000000  0.5593210000000 1.0
C      1  0.4871360000000  0.5542870000000  0.4517620000000 1.0
C      1  0.5045220000000  0.6221920000000  0.4821500000000 1.0
C      1  0.4808030000000  0.4441240000000  0.3814860000000 1.0
C      1  0.4985350000000  0.4287800000000  0.6098540000000 1.0
C      1  0.5824020000000  0.5843340000000  0.4675090000000 1.0
C      1  0.5904600000000  0.4398500000000  0.4626110000000 1.0
C      1  0.5959200000000  0.5068170000000  0.5832750000000 1.0
C      1  0.5750630000000  0.5852970000000  0.4966640000000 1.0
C      1  0.5710990000000  0.4809370000000  0.4024280000000 1.0
C      1  0.5688830000000  0.4226820000000  0.5770810000000 1.0
C      1  0.5032140000000  0.5324150000000  0.4454780000000 1.0
C      1  0.5053490000000  0.4382300000000  0.5132540000000 1.0
C      1  0.5121080000000  0.5228000000000  0.5375970000000 1.0
C      1  0.4294880000000  0.4661620000000  0.5653390000000 1.0
C      1  0.4334250000000  0.5728460000000  0.4973770000000 1.0
C      1  0.4319910000000  0.4632130000000  0.4443000000000 1.0
C      1  0.4421230000000  0.4391640000000  0.5579930000000 1.0
C      1  0.4465870000000  0.5832420000000  0.5222230000000 1.0
C      1  0.4387990000000  0.4865660000000  0.4265570000000 1.0
C      1  0.5543050000000  0.5187150000000  0.5027100000000 1.0
C      1  0.5604770000000  0.4788160000000  0.4859810000000 1.0
C      1  0.5578130000000  0.4864960000000  0.5397230000000 1.0
C      1  0.4302380000000  0.5150520000000  0.6045520000000 1.0
C      1  0.4301370000000  0.5705440000000  0.4209880000000 1.0
C      1  0.4334850000000  0.4004960000000  0.4717200000000 1.0
C      1  0.4680390000000  0.6055040000000  0.5181630000000 1.0
C      1  0.4542870000000  0.4830880000000  0.4026990000000 1.0
C      1  0.4611220000000  0.4194470000000  0.5691590000000 1.0
C      1  0.4092220000000  0.5161560000000  0.5846150000000 1.0
C      1  0.4088230000000  0.5557920000000  0.4342270000000 1.0
C      1  0.4124650000000  0.4171330000000  0.4811710000000 1.0
C      1  0.5140850000000  0.5288290000000  0.4201980000000 1.0
C      1  0.5160530000000  0.4134270000000  0.5182320000000 1.0
C      1  0.5003080000000  0.5481740000000  0.5479280000000 1.0
C      1  0.5782510000000  0.4330750000000  0.5515580000000 1.0
C      1  0.5836630000000  0.5626980000000  0.5153540000000 1.0
C      1  0.5814280000000  0.4994360000000  0.4223660000000 1.0
C      1  0.4338310000000  0.3989700000000  0.4430780000000 1.0
C      1  0.4323810000000  0.4907330000000  0.6192260000000 1.0
C      1  0.4307970000000  0.5974210000000  0.4312100000000 1.0
C      1  0.5253370000000  0.4376460000000  0.5991910000000 1.0
C      1  0.5283650000000  0.6052930000000  0.4861230000000 1.0
C      1  0.5416090000000  0.4408700000000  0.4053840000000 1.0
C      1  0.5775780000000  0.5044990000000  0.6038630000000 1.0
C      1  0.5656740000000  0.5991240000000  0.4485680000000 1.0
C      1  0.5726680000000  0.4249100000000  0.4485540000000 1.0
C      1  0.5390930000000  0.5589420000000  0.4856800000000 1.0
C      1  0.5288450000000  0.4467050000000  0.4726000000000 1.0
C      1  0.5288130000000  0.4867770000000  0.5795210000000 1.0
C      1  0.5049450000000  0.5135710000000  0.4656390000000 1.0
C      1  0.5028330000000  0.4640030000000  0.5103010000000 1.0
C      1  0.4930190000000  0.5079380000000  0.5239780000000 1.0
C      1  0.4292970000000  0.4756990000000  0.4964330000000 1.0
C      1  0.4368650000000  0.5155140000000  0.5245680000000 1.0
C      1  0.4404900000000  0.5310340000000  0.4548170000000 1.0
C      1  0.5006650000000  0.5636350000000  0.5205160000000 1.0
C      1  0.5029040000000  0.4664630000000  0.4407930000000 1.0
C      1  0.4943350000000  0.4599810000000  0.5649230000000 1.0
C      1  0.5624730000000  0.5511320000000  0.4311410000000 1.0
C      1  0.5797840000000  0.3950410000000  0.4990240000000 1.0
C      1  0.5638910000000  0.5508320000000  0.5852070000000 1.0
C      1  0.5759730000000  0.4931620000000  0.5158850000000 1.0
C      1  0.4236650000000  0.4985220000000  0.5079050000000 1.0
END
