TITL C-3623283-6828-906 -8.23191433053543e-07 125000 -1109.18290489186 0 0 175 (C1) n - 1
REM
REM in /home/nfs/bkarasulu/CARBON/AIRSS/Generating-Clusters/LCBOP/Higher-Symm/SD-CG/FIRE-CG
REM
REM
REM
REM
REM
REM ./C.cell (b20cbc046b6831c77cfcea5457e17084)
REM AIRSS Version 0.9.1 bugfix July 2018 build 013d7b7c2542+ Fri, 06 Jul 2018 19:26:36 +0100
REM compiler GCC version 9.2.1 20190827 (Red Hat 9.2.1-1)
REM options -cpp -mtune=generic -march=x86-64 -g -O0 -fpre-include=/usr/include/finclude/math-vector-fortran.h
REM seed 571791495 957000498 -484411411 2014711746 1536492626 -674056334 577597174 -741696921 1815223371 1069323288 331517767 1591379234 -1084440989 817588013 619949215 673132076 -1051692506 251536757 -1512880244 31240311 -1605075345 -322022221 -1700702586 -789199499 -735556626 -73982158 -2038503977 -1804241206 -1935707746 -277869075 712197784 1910494920 1075227418
REM
CELL 1.54180   50.00000   50.00000   50.00000   90.00000   90.00000   90.00000
LATT -1
SFAC C  
C      1  0.5534260000000  0.5875310000000  0.5061950000000 1.0
C      1  0.5501870000000  0.5923670000000  0.4514190000000 1.0
C      1  0.5313170000000  0.5581520000000  0.5973490000000 1.0
C      1  0.5888130000000  0.5225890000000  0.5308080000000 1.0
C      1  0.4502670000000  0.5188230000000  0.6288880000000 1.0
C      1  0.5278650000000  0.4644560000000  0.3920690000000 1.0
C      1  0.5820350000000  0.5393910000000  0.4560850000000 1.0
C      1  0.4535390000000  0.5932010000000  0.5125770000000 1.0
C      1  0.5168380000000  0.4880640000000  0.4039470000000 1.0
C      1  0.4250830000000  0.5116190000000  0.3976210000000 1.0
C      1  0.5556180000000  0.5344400000000  0.4664300000000 1.0
C      1  0.5375050000000  0.4173170000000  0.4188180000000 1.0
C      1  0.6309710000000  0.5419360000000  0.5515020000000 1.0
C      1  0.4759760000000  0.5214750000000  0.3825550000000 1.0
C      1  0.4236080000000  0.4818280000000  0.5011140000000 1.0
C      1  0.6079490000000  0.4760090000000  0.5194610000000 1.0
C      1  0.4200260000000  0.5077840000000  0.4906500000000 1.0
C      1  0.6107230000000  0.4878290000000  0.4923580000000 1.0
C      1  0.4828620000000  0.4513760000000  0.3876050000000 1.0
C      1  0.4729310000000  0.5141900000000  0.5284800000000 1.0
C      1  0.5018780000000  0.5606120000000  0.3969120000000 1.0
C      1  0.5878180000000  0.5315880000000  0.5788560000000 1.0
C      1  0.4806030000000  0.4546790000000  0.4606190000000 1.0
C      1  0.5996860000000  0.4433030000000  0.4860110000000 1.0
C      1  0.4363420000000  0.4583600000000  0.5384920000000 1.0
C      1  0.5317270000000  0.5256520000000  0.5054960000000 1.0
C      1  0.4528060000000  0.3856920000000  0.4342790000000 1.0
C      1  0.5330150000000  0.5305880000000  0.4487150000000 1.0
C      1  0.5458230000000  0.4795860000000  0.4957980000000 1.0
C      1  0.6326230000000  0.5305400000000  0.5007290000000 1.0
C      1  0.5662620000000  0.4474470000000  0.5635550000000 1.0
C      1  0.5221790000000  0.5685220000000  0.4156920000000 1.0
C      1  0.4202980000000  0.4157380000000  0.4923510000000 1.0
C      1  0.4696730000000  0.5900000000000  0.5358020000000 1.0
C      1  0.4521290000000  0.4853200000000  0.4371540000000 1.0
C      1  0.3579320000000  0.5202600000000  0.5479730000000 1.0
C      1  0.4344910000000  0.5410070000000  0.5241180000000 1.0
C      1  0.4079640000000  0.4208360000000  0.4692890000000 1.0
C      1  0.5136920000000  0.6043810000000  0.4826980000000 1.0
C      1  0.4548350000000  0.5203870000000  0.5698970000000 1.0
C      1  0.4719310000000  0.5304440000000  0.6151450000000 1.0
C      1  0.5263210000000  0.4913860000000  0.6209600000000 1.0
C      1  0.5619320000000  0.5404210000000  0.4133530000000 1.0
C      1  0.4596230000000  0.3785230000000  0.4590500000000 1.0
C      1  0.5134900000000  0.6018170000000  0.5717190000000 1.0
C      1  0.5653170000000  0.5610410000000  0.5062850000000 1.0
C      1  0.4850260000000  0.5514210000000  0.4441480000000 1.0
C      1  0.5099670000000  0.5103550000000  0.4492610000000 1.0
C      1  0.4432870000000  0.5790440000000  0.4668760000000 1.0
C      1  0.3743620000000  0.5025350000000  0.4843150000000 1.0
C      1  0.3997850000000  0.4920360000000  0.5487840000000 1.0
C      1  0.4661510000000  0.5140260000000  0.5010800000000 1.0
C      1  0.5098170000000  0.4431940000000  0.3883990000000 1.0
C      1  0.4256970000000  0.4409360000000  0.5916790000000 1.0
C      1  0.4764640000000  0.5214010000000  0.5882690000000 1.0
C      1  0.4679280000000  0.4507260000000  0.4110820000000 1.0
C      1  0.5229160000000  0.4627480000000  0.4466300000000 1.0
C      1  0.4690030000000  0.3872840000000  0.4823430000000 1.0
C      1  0.4417920000000  0.5609390000000  0.4445360000000 1.0
C      1  0.5291830000000  0.5916830000000  0.4309220000000 1.0
C      1  0.5025640000000  0.5324010000000  0.3876180000000 1.0
C      1  0.4958120000000  0.3910870000000  0.5650720000000 1.0
C      1  0.4887370000000  0.4046250000000  0.4082670000000 1.0
C      1  0.4347210000000  0.5324810000000  0.4455320000000 1.0
C      1  0.5048070000000  0.4924720000000  0.5568300000000 1.0
C      1  0.4798150000000  0.4948100000000  0.4862040000000 1.0
C      1  0.5600130000000  0.4347340000000  0.4116290000000 1.0
C      1  0.5127990000000  0.5611910000000  0.6185510000000 1.0
C      1  0.5944220000000  0.4182360000000  0.4448900000000 1.0
C      1  0.5503100000000  0.5417290000000  0.4925100000000 1.0
C      1  0.5887430000000  0.4214470000000  0.4720430000000 1.0
C      1  0.5220700000000  0.5101190000000  0.6001080000000 1.0
C      1  0.4091090000000  0.5178080000000  0.4449840000000 1.0
C      1  0.5416790000000  0.5968630000000  0.4801630000000 1.0
C      1  0.5795740000000  0.5555670000000  0.4323560000000 1.0
C      1  0.4395680000000  0.5255960000000  0.4998140000000 1.0
C      1  0.4100230000000  0.5415120000000  0.5917100000000 1.0
C      1  0.4903850000000  0.5887720000000  0.4789480000000 1.0
C      1  0.4438100000000  0.4237470000000  0.5813930000000 1.0
C      1  0.5383560000000  0.5697050000000  0.5495580000000 1.0
C      1  0.5420980000000  0.4342590000000  0.5562530000000 1.0
C      1  0.4257650000000  0.4751370000000  0.4284130000000 1.0
C      1  0.4112730000000  0.5139690000000  0.5980780000000 1.0
C      1  0.5322190000000  0.4883670000000  0.5462500000000 1.0
C      1  0.4678190000000  0.4063510000000  0.5025770000000 1.0
C      1  0.5167530000000  0.6068180000000  0.5411570000000 1.0
C      1  0.4651480000000  0.5646600000000  0.4279130000000 1.0
C      1  0.5247840000000  0.4640220000000  0.6148340000000 1.0
C      1  0.4425960000000  0.4945610000000  0.5691410000000 1.0
C      1  0.5316000000000  0.5779040000000  0.5769110000000 1.0
C      1  0.5616720000000  0.5208490000000  0.5769390000000 1.0
C      1  0.5054330000000  0.5003730000000  0.4767680000000 1.0
C      1  0.5684450000000  0.4774480000000  0.4683940000000 1.0
C      1  0.4417200000000  0.4310330000000  0.5345630000000 1.0
C      1  0.3839480000000  0.4633820000000  0.5148430000000 1.0
C      1  0.4628580000000  0.5914540000000  0.5642770000000 1.0
C      1  0.5383670000000  0.4058910000000  0.4448820000000 1.0
C      1  0.3988790000000  0.5109960000000  0.4714780000000 1.0
C      1  0.4422100000000  0.4174730000000  0.5096200000000 1.0
C      1  0.4493710000000  0.5169270000000  0.3862130000000 1.0
C      1  0.5947690000000  0.4696030000000  0.4771630000000 1.0
C      1  0.6381100000000  0.5391570000000  0.5256600000000 1.0
C      1  0.4425850000000  0.4652880000000  0.4891260000000 1.0
C      1  0.5404180000000  0.5310100000000  0.5929580000000 1.0
C      1  0.5193090000000  0.4280810000000  0.4834680000000 1.0
C      1  0.4856120000000  0.6008480000000  0.5796650000000 1.0
C      1  0.5835510000000  0.5481580000000  0.5235100000000 1.0
C      1  0.5982960000000  0.4975510000000  0.5351000000000 1.0
C      1  0.4715260000000  0.4648220000000  0.4351830000000 1.0
C      1  0.4159310000000  0.5624980000000  0.5234560000000 1.0
C      1  0.5850460000000  0.4263930000000  0.4211800000000 1.0
C      1  0.6037170000000  0.5215350000000  0.4594900000000 1.0
C      1  0.3754300000000  0.5030870000000  0.5361250000000 1.0
C      1  0.5276180000000  0.5011590000000  0.4930760000000 1.0
C      1  0.4805630000000  0.4071650000000  0.5482010000000 1.0
C      1  0.5309190000000  0.4416690000000  0.5301740000000 1.0
C      1  0.5719830000000  0.4079770000000  0.5138960000000 1.0
C      1  0.4133640000000  0.4916550000000  0.5768980000000 1.0
C      1  0.5075750000000  0.4462880000000  0.4641660000000 1.0
C      1  0.6026730000000  0.4466820000000  0.5154300000000 1.0
C      1  0.5160220000000  0.4865690000000  0.4324030000000 1.0
C      1  0.5748210000000  0.4870260000000  0.4401360000000 1.0
C      1  0.5407320000000  0.4117180000000  0.4727420000000 1.0
C      1  0.4972810000000  0.5851510000000  0.5317340000000 1.0
C      1  0.5711980000000  0.4731740000000  0.5695730000000 1.0
C      1  0.5127600000000  0.5604680000000  0.5368540000000 1.0
C      1  0.5662680000000  0.4097820000000  0.4858540000000 1.0
C      1  0.4688990000000  0.4690530000000  0.4817670000000 1.0
C      1  0.4893280000000  0.5499970000000  0.6252430000000 1.0
C      1  0.4081950000000  0.4317060000000  0.4449280000000 1.0
C      1  0.5132960000000  0.4187060000000  0.4034030000000 1.0
C      1  0.4115620000000  0.4717090000000  0.5269940000000 1.0
C      1  0.5544520000000  0.4613750000000  0.4022570000000 1.0
C      1  0.5551250000000  0.5141140000000  0.4010950000000 1.0
C      1  0.4240410000000  0.4456150000000  0.4263210000000 1.0
C      1  0.5381270000000  0.4691820000000  0.5230850000000 1.0
C      1  0.4119770000000  0.4640360000000  0.5893800000000 1.0
C      1  0.4472060000000  0.4313410000000  0.4145830000000 1.0
C      1  0.4839060000000  0.5235070000000  0.4428590000000 1.0
C      1  0.4547180000000  0.5319630000000  0.5437040000000 1.0
C      1  0.5248390000000  0.4413170000000  0.6010220000000 1.0
C      1  0.5130460000000  0.4269580000000  0.5122130000000 1.0
C      1  0.4573830000000  0.5130160000000  0.4422230000000 1.0
C      1  0.3707590000000  0.4898020000000  0.5100810000000 1.0
C      1  0.5961180000000  0.6017670000000  0.4362940000000 1.0
C      1  0.5140640000000  0.5366430000000  0.5234720000000 1.0
C      1  0.4555360000000  0.4184430000000  0.5562570000000 1.0
C      1  0.4960170000000  0.5649080000000  0.4654600000000 1.0
C      1  0.5553600000000  0.4958500000000  0.5631180000000 1.0
C      1  0.4802710000000  0.4895700000000  0.5418030000000 1.0
C      1  0.4757170000000  0.5711030000000  0.4027280000000 1.0
C      1  0.4122800000000  0.4998290000000  0.4211100000000 1.0
C      1  0.5174370000000  0.3985450000000  0.5788740000000 1.0
C      1  0.4393610000000  0.5803670000000  0.5763070000000 1.0
C      1  0.4890610000000  0.4127390000000  0.5209360000000 1.0
C      1  0.5251980000000  0.5135920000000  0.3928200000000 1.0
C      1  0.5757990000000  0.5836820000000  0.4399140000000 1.0
C      1  0.3920950000000  0.5648110000000  0.5380170000000 1.0
C      1  0.4258380000000  0.5093780000000  0.6222830000000 1.0
C      1  0.6171170000000  0.5141800000000  0.4837250000000 1.0
C      1  0.4554400000000  0.4762750000000  0.5510040000000 1.0
C      1  0.6006510000000  0.5003070000000  0.4407450000000 1.0
C      1  0.5316890000000  0.4997150000000  0.6464350000000 1.0
C      1  0.5284760000000  0.4241450000000  0.5791150000000 1.0
C      1  0.3927180000000  0.5741950000000  0.5633370000000 1.0
C      1  0.4142320000000  0.5669540000000  0.5803150000000 1.0
C      1  0.5361180000000  0.5463060000000  0.4253580000000 1.0
C      1  0.6124060000000  0.5390770000000  0.5708420000000 1.0
C      1  0.5639980000000  0.4871280000000  0.4132920000000 1.0
C      1  0.4607530000000  0.4055220000000  0.4162130000000 1.0
C      1  0.4264410000000  0.5872780000000  0.5155390000000 1.0
C      1  0.5423360000000  0.5942270000000  0.5326110000000 1.0
C      1  0.4625710000000  0.5907250000000  0.4856230000000 1.0
C      1  0.5006590000000  0.5069900000000  0.5818600000000 1.0
C      1  0.5897230000000  0.4242230000000  0.5273240000000 1.0
END
