TITL C-3623283-6828-1846 -9.53715965209632e-08 125000 -449.023005626633 0 0 72 (C1) n - 1
REM
REM in /home/nfs/bkarasulu/CARBON/AIRSS/Generating-Clusters/LCBOP/Higher-Symm/SD-CG/FIRE-CG
REM
REM
REM
REM
REM
REM ./C.cell (b20cbc046b6831c77cfcea5457e17084)
REM AIRSS Version 0.9.1 bugfix July 2018 build 013d7b7c2542+ Fri, 06 Jul 2018 19:26:36 +0100
REM compiler GCC version 9.2.1 20190827 (Red Hat 9.2.1-1)
REM options -cpp -mtune=generic -march=x86-64 -g -O0 -fpre-include=/usr/include/finclude/math-vector-fortran.h
REM seed 482271263 1872831892 1000577758 -1662930057 -36912100 2094117609 1852640264 -1671477274 -945588117 2137642639 -1334532863 62903916 1035727024 -1203868347 -2016886881 228190311 1547616797 203864506 504202308 2615904 316601420 -150933875 -686329143 -1134775117 2042608537 2133759980 574521794 1776525855 -1064879783 -1000965068 125274329 1132427722 -1040662904
REM
CELL 1.54180   50.00000   50.00000   50.00000   90.00000   90.00000   90.00000
LATT -1
SFAC C  
C      1  0.4432090000000  0.4898770000000  0.5429880000000 1.0
C      1  0.4439820000000  0.5186860000000  0.5405610000000 1.0
C      1  0.4434060000000  0.5393550000000  0.5203080000000 1.0
C      1  0.4418300000000  0.5422010000000  0.4916150000000 1.0
C      1  0.4402700000000  0.5258860000000  0.4679100000000 1.0
C      1  0.4384290000000  0.4981300000000  0.4604440000000 1.0
C      1  0.4381180000000  0.4718490000000  0.4725180000000 1.0
C      1  0.4396230000000  0.4592960000000  0.4984490000000 1.0
C      1  0.4413250000000  0.4663810000000  0.5263470000000 1.0
C      1  0.5576790000000  0.4565370000000  0.4940630000000 1.0
C      1  0.5563720000000  0.4630620000000  0.5222010000000 1.0
C      1  0.5586790000000  0.4876540000000  0.5384330000000 1.0
C      1  0.5599370000000  0.5173040000000  0.5368160000000 1.0
C      1  0.5589990000000  0.5392080000000  0.5168570000000 1.0
C      1  0.5570820000000  0.5435520000000  0.4879900000000 1.0
C      1  0.5594510000000  0.5249040000000  0.4661060000000 1.0
C      1  0.5748770000000  0.5009830000000  0.4718760000000 1.0
C      1  0.5669110000000  0.4730690000000  0.4719900000000 1.0
C      1  0.4735750000000  0.5541480000000  0.5551150000000 1.0
C      1  0.4723810000000  0.5762110000000  0.5072400000000 1.0
C      1  0.4710900000000  0.5617700000000  0.4582490000000 1.0
C      1  0.4661020000000  0.5210340000000  0.4272930000000 1.0
C      1  0.4622920000000  0.4685250000000  0.4308760000000 1.0
C      1  0.4647800000000  0.4312110000000  0.4681780000000 1.0
C      1  0.4698120000000  0.4278290000000  0.5194280000000 1.0
C      1  0.4720510000000  0.4556900000000  0.5621350000000 1.0
C      1  0.4736050000000  0.5061970000000  0.5769010000000 1.0
C      1  0.5415800000000  0.4419610000000  0.5366670000000 1.0
C      1  0.5445480000000  0.4800220000000  0.5637650000000 1.0
C      1  0.5465590000000  0.5281520000000  0.5618850000000 1.0
C      1  0.5444950000000  0.5625670000000  0.5280480000000 1.0
C      1  0.5424020000000  0.5675570000000  0.4806450000000 1.0
C      1  0.5435840000000  0.5340350000000  0.4424630000000 1.0
C      1  0.6015830000000  0.5054350000000  0.4777970000000 1.0
C      1  0.5705020000000  0.4598950000000  0.4478700000000 1.0
C      1  0.5415900000000  0.4317350000000  0.4881280000000 1.0
C      1  0.5145960000000  0.4678590000000  0.4637590000000 1.0
C      1  0.5078550000000  0.4626280000000  0.4904990000000 1.0
C      1  0.4995280000000  0.4763830000000  0.5121890000000 1.0
C      1  0.5077930000000  0.4890110000000  0.5347350000000 1.0
C      1  0.5110640000000  0.5158260000000  0.5344860000000 1.0
C      1  0.5083890000000  0.5338970000000  0.5146210000000 1.0
C      1  0.5002000000000  0.5247950000000  0.4903990000000 1.0
C      1  0.5087110000000  0.5163600000000  0.4662120000000 1.0
C      1  0.5151700000000  0.4926360000000  0.4525440000000 1.0
C      1  0.4615580000000  0.5288850000000  0.5631270000000 1.0
C      1  0.4608620000000  0.5621860000000  0.5302090000000 1.0
C      1  0.4587850000000  0.5660570000000  0.4840860000000 1.0
C      1  0.4563660000000  0.5399270000000  0.4465800000000 1.0
C      1  0.4525460000000  0.4957110000000  0.4336940000000 1.0
C      1  0.4519290000000  0.4529700000000  0.4531600000000 1.0
C      1  0.4551980000000  0.4335970000000  0.4951610000000 1.0
C      1  0.4579990000000  0.4448980000000  0.5395080000000 1.0
C      1  0.4606880000000  0.4822700000000  0.5666340000000 1.0
C      1  0.5139640000000  0.4354020000000  0.5418150000000 1.0
C      1  0.5143030000000  0.4794270000000  0.5641090000000 1.0
C      1  0.5161860000000  0.5284380000000  0.5624620000000 1.0
C      1  0.5143640000000  0.5623440000000  0.5269360000000 1.0
C      1  0.5145760000000  0.5743860000000  0.4789590000000 1.0
C      1  0.5124380000000  0.5367840000000  0.4436590000000 1.0
C      1  0.5043940000000  0.4921140000000  0.4251760000000 1.0
C      1  0.5036300000000  0.4478480000000  0.4452410000000 1.0
C      1  0.5107100000000  0.4320360000000  0.4909930000000 1.0
C      1  0.4986040000000  0.4255850000000  0.5185780000000 1.0
C      1  0.5006840000000  0.4524260000000  0.5622290000000 1.0
C      1  0.5025740000000  0.5053050000000  0.5786560000000 1.0
C      1  0.5025060000000  0.5559640000000  0.5558080000000 1.0
C      1  0.5009990000000  0.5785660000000  0.5051100000000 1.0
C      1  0.4999550000000  0.5622270000000  0.4563860000000 1.0
C      1  0.4946490000000  0.5203220000000  0.4223000000000 1.0
C      1  0.4902980000000  0.4657040000000  0.4253930000000 1.0
C      1  0.4932210000000  0.4273180000000  0.4644320000000 1.0
END
