TITL C-3623284-6838-1135 124390.403695006 125000 -751.603380660423 0 0 126 (C1) n - 1
REM
REM in /home/nfs/bkarasulu/CARBON/AIRSS/Generating-Clusters/LCBOP/Higher-Symm/SD-CG/FIRE-CG
REM
REM
REM
REM
REM
REM ./C.cell (b20cbc046b6831c77cfcea5457e17084)
REM AIRSS Version 0.9.1 bugfix July 2018 build 013d7b7c2542+ Fri, 06 Jul 2018 19:26:36 +0100
REM compiler GCC version 9.2.1 20190827 (Red Hat 9.2.1-1)
REM options -cpp -mtune=generic -march=x86-64 -g -O0 -fpre-include=/usr/include/finclude/math-vector-fortran.h
REM seed -1444782901 -447571823 -828149268 -1844892655 -19428324 155114475 1725785672 -1069946699 -1304135149 609340198 663609235 -304177381 2072952391 -839332312 -812501040 1948254657 -1442842714 -473899842 1409165714 -1054416949 1312441481 -603222456 -1562947646 -1913818286 565775398 214620894 1812391479 -87553955 -965213129 -1648521034 18182026 -1916020472 -1424709823
REM
CELL 1.54180   50.00000   50.00000   50.00000   90.00000   90.00000   90.00000
LATT -1
SFAC C  
C      1  0.6013940000000  0.4707090000000  0.4865220000000 1.0
C      1  0.4546000000000  0.4693200000000  0.5997630000000 1.0
C      1  0.4343540000000  0.4745400000000  0.4118770000000 1.0
C      1  0.6029400000000  0.5272740000000  0.4905370000000 1.0
C      1  0.4546350000000  0.5241240000000  0.6043220000000 1.0
C      1  0.4381660000000  0.5308460000000  0.4190470000000 1.0
C      1  0.6017140000000  0.4731530000000  0.5133020000000 1.0
C      1  0.4567220000000  0.4746210000000  0.3972690000000 1.0
C      1  0.4313860000000  0.4664880000000  0.5870370000000 1.0
C      1  0.6013680000000  0.5309500000000  0.5172560000000 1.0
C      1  0.4599310000000  0.5289080000000  0.4032850000000 1.0
C      1  0.4313260000000  0.5234200000000  0.5914140000000 1.0
C      1  0.5293890000000  0.4876900000000  0.5980450000000 1.0
C      1  0.4030140000000  0.4926270000000  0.4800950000000 1.0
C      1  0.5578850000000  0.4798330000000  0.4234840000000 1.0
C      1  0.5313300000000  0.5153690000000  0.5935600000000 1.0
C      1  0.4078340000000  0.5187310000000  0.4885600000000 1.0
C      1  0.5615850000000  0.5091620000000  0.4226420000000 1.0
C      1  0.5351140000000  0.4772240000000  0.4069720000000 1.0
C      1  0.4028560000000  0.4882060000000  0.5201640000000 1.0
C      1  0.5645680000000  0.4897260000000  0.5785860000000 1.0
C      1  0.5386180000000  0.5166360000000  0.4069960000000 1.0
C      1  0.4069470000000  0.5156870000000  0.5179000000000 1.0
C      1  0.5573350000000  0.5163080000000  0.5793850000000 1.0
C      1  0.4612870000000  0.4315230000000  0.4439520000000 1.0
C      1  0.5763450000000  0.4202050000000  0.4840550000000 1.0
C      1  0.4922370000000  0.4313510000000  0.5674450000000 1.0
C      1  0.4494860000000  0.5792790000000  0.4427650000000 1.0
C      1  0.5683820000000  0.5692370000000  0.4802800000000 1.0
C      1  0.4844340000000  0.5664190000000  0.5636940000000 1.0
C      1  0.4652180000000  0.4289610000000  0.5577890000000 1.0
C      1  0.5724850000000  0.4345060000000  0.5070460000000 1.0
C      1  0.4877190000000  0.4334300000000  0.4333400000000 1.0
C      1  0.4539480000000  0.5644330000000  0.5454630000000 1.0
C      1  0.5701140000000  0.5708700000000  0.5074520000000 1.0
C      1  0.4714080000000  0.5658870000000  0.4336380000000 1.0
C      1  0.5255520000000  0.5873240000000  0.5086060000000 1.0
C      1  0.4769110000000  0.5854070000000  0.5094590000000 1.0
C      1  0.4973140000000  0.5838740000000  0.4681090000000 1.0
C      1  0.5300060000000  0.4159680000000  0.5094980000000 1.0
C      1  0.4792380000000  0.4128840000000  0.5138870000000 1.0
C      1  0.5039450000000  0.4139090000000  0.4728280000000 1.0
C      1  0.5227660000000  0.5851270000000  0.4799690000000 1.0
C      1  0.4731810000000  0.5904420000000  0.4825000000000 1.0
C      1  0.5019450000000  0.5868060000000  0.5229790000000 1.0
C      1  0.5298480000000  0.4086200000000  0.4819510000000 1.0
C      1  0.4778420000000  0.4129940000000  0.4859450000000 1.0
C      1  0.5063930000000  0.4147520000000  0.5240620000000 1.0
C      1  0.5207060000000  0.5569650000000  0.4203180000000 1.0
C      1  0.5511980000000  0.5598010000000  0.5650380000000 1.0
C      1  0.4267600000000  0.5572980000000  0.5381260000000 1.0
C      1  0.5083420000000  0.4404110000000  0.4152200000000 1.0
C      1  0.5571220000000  0.4459700000000  0.5647620000000 1.0
C      1  0.4177740000000  0.4434830000000  0.5215660000000 1.0
C      1  0.5037750000000  0.5580050000000  0.5840020000000 1.0
C      1  0.5667890000000  0.5532920000000  0.4357060000000 1.0
C      1  0.4305660000000  0.5627720000000  0.4849030000000 1.0
C      1  0.5114760000000  0.4430140000000  0.5848940000000 1.0
C      1  0.5510350000000  0.4366150000000  0.4457560000000 1.0
C      1  0.4147460000000  0.4469830000000  0.4734520000000 1.0
C      1  0.4834780000000  0.4760310000000  0.3960560000000 1.0
C      1  0.5899740000000  0.4729660000000  0.5374850000000 1.0
C      1  0.4192210000000  0.4681750000000  0.5634070000000 1.0
C      1  0.4866770000000  0.5279540000000  0.3995120000000 1.0
C      1  0.5894270000000  0.5345480000000  0.5413280000000 1.0
C      1  0.4202320000000  0.5208840000000  0.5672610000000 1.0
C      1  0.4805350000000  0.4750650000000  0.5981820000000 1.0
C      1  0.5885820000000  0.4667760000000  0.4631640000000 1.0
C      1  0.4212910000000  0.4764030000000  0.4351010000000 1.0
C      1  0.4810700000000  0.5216970000000  0.6017520000000 1.0
C      1  0.5944670000000  0.5243600000000  0.4649790000000 1.0
C      1  0.4257220000000  0.5340550000000  0.4427400000000 1.0
C      1  0.5436770000000  0.4873550000000  0.5343880000000 1.0
C      1  0.4512990000000  0.4832850000000  0.5280950000000 1.0
C      1  0.5007630000000  0.4846310000000  0.4420240000000 1.0
C      1  0.5464990000000  0.5167490000000  0.5319740000000 1.0
C      1  0.4534450000000  0.5132140000000  0.5291480000000 1.0
C      1  0.5034090000000  0.5139040000000  0.4420560000000 1.0
C      1  0.5449840000000  0.4854040000000  0.4699080000000 1.0
C      1  0.4499000000000  0.4849210000000  0.4744150000000 1.0
C      1  0.5064930000000  0.4855010000000  0.5545320000000 1.0
C      1  0.5482720000000  0.5143110000000  0.4679020000000 1.0
C      1  0.4538020000000  0.5140260000000  0.4759010000000 1.0
C      1  0.5029160000000  0.5151180000000  0.5550480000000 1.0
C      1  0.5443380000000  0.5678660000000  0.5184020000000 1.0
C      1  0.4654200000000  0.5612730000000  0.5188510000000 1.0
C      1  0.4931110000000  0.5607490000000  0.4515500000000 1.0
C      1  0.5456360000000  0.4399890000000  0.5144570000000 1.0
C      1  0.4635610000000  0.4320840000000  0.5287480000000 1.0
C      1  0.5023680000000  0.4380560000000  0.4582550000000 1.0
C      1  0.5411970000000  0.5639200000000  0.4724780000000 1.0
C      1  0.4476770000000  0.5819470000000  0.4710390000000 1.0
C      1  0.5019630000000  0.5651300000000  0.5412420000000 1.0
C      1  0.5534750000000  0.4172750000000  0.4671370000000 1.0
C      1  0.4615640000000  0.4338400000000  0.4731860000000 1.0
C      1  0.5054710000000  0.4362010000000  0.5423000000000 1.0
C      1  0.5004710000000  0.5333310000000  0.4661390000000 1.0
C      1  0.5300050000000  0.5355310000000  0.5142020000000 1.0
C      1  0.4758680000000  0.5324060000000  0.5149740000000 1.0
C      1  0.4993890000000  0.4668550000000  0.4691640000000 1.0
C      1  0.5293000000000  0.4676350000000  0.5151340000000 1.0
C      1  0.4725060000000  0.4633470000000  0.5171690000000 1.0
C      1  0.5029410000000  0.5348810000000  0.5303440000000 1.0
C      1  0.5293590000000  0.5351250000000  0.4804120000000 1.0
C      1  0.4782110000000  0.5253990000000  0.4856630000000 1.0
C      1  0.5021850000000  0.4648470000000  0.5312760000000 1.0
C      1  0.5237130000000  0.4748050000000  0.4859990000000 1.0
C      1  0.4707450000000  0.4639580000000  0.4843890000000 1.0
C      1  0.4258730000000  0.5268500000000  0.5385180000000 1.0
C      1  0.5123520000000  0.5285530000000  0.4154790000000 1.0
C      1  0.5621410000000  0.5329750000000  0.5547140000000 1.0
C      1  0.4228290000000  0.4703280000000  0.5339500000000 1.0
C      1  0.5069900000000  0.4709140000000  0.4138580000000 1.0
C      1  0.5645090000000  0.4731600000000  0.5537580000000 1.0
C      1  0.4289100000000  0.5339360000000  0.4731220000000 1.0
C      1  0.5048770000000  0.5276100000000  0.5845810000000 1.0
C      1  0.5697500000000  0.5252870000000  0.4473360000000 1.0
C      1  0.4218250000000  0.4746960000000  0.4648460000000 1.0
C      1  0.5073370000000  0.4729650000000  0.5845680000000 1.0
C      1  0.5610650000000  0.4658970000000  0.4503160000000 1.0
C      1  0.5386670000000  0.4354730000000  0.5815220000000 1.0
C      1  0.4125020000000  0.4344160000000  0.4969730000000 1.0
C      1  0.4194830000000  0.5672940000000  0.5115380000000 1.0
C      1  0.5346350000000  0.4309720000000  0.4226110000000 1.0
C      1  0.5458230000000  0.5659640000000  0.4242940000000 1.0
C      1  0.5305160000000  0.5685570000000  0.5806730000000 1.0
END
