TITL C-3623285-6872-836 -1.5156795392231e-07 125000 -228.425583673341 0 0 53 (T23) n - 1
REM
REM in /home/nfs/bkarasulu/CARBON/AIRSS/Generating-Clusters/LCBOP/Higher-Symm/SD-CG/FIRE-CG
REM
REM
REM
REM
REM
REM ./C.cell (b20cbc046b6831c77cfcea5457e17084)
REM AIRSS Version 0.9.1 bugfix July 2018 build 013d7b7c2542+ Fri, 06 Jul 2018 19:26:36 +0100
REM compiler GCC version 9.2.1 20190827 (Red Hat 9.2.1-1)
REM options -cpp -mtune=generic -march=x86-64 -g -O0 -fpre-include=/usr/include/finclude/math-vector-fortran.h
REM seed 54879160 161425572 -1037034968 2132832629 -911305316 1962602883 -1883626496 -324601209 -1121710988 334520311 -702261274 -2025574145 287993345 -898513742 -711092153 1544495063 -1207594848 -750831734 1343282574 1825561341 -1079749933 -137655987 1163356865 918889187 636347227 846144094 -247501534 1005322233 -130742926 -460564554 1727871260 -2040373193 -1562185258
REM
CELL 1.54180   50.00000   50.00000   50.00000   90.00000   90.00000   90.00000
LATT -1
SFAC C  
C      1  0.5123910000000  0.4262820000000  0.4761620000000 1.0
C      1  0.4752800000000  0.5128030000000  0.4267520000000 1.0
C      1  0.4258700000000  0.4756920000000  0.5132730000000 1.0
C      1  0.5123910000000  0.5736700000000  0.5247300000000 1.0
C      1  0.4867370000000  0.5736700000000  0.4761620000000 1.0
C      1  0.4867370000000  0.4262820000000  0.5247300000000 1.0
C      1  0.4752800000000  0.4871490000000  0.5741400000000 1.0
C      1  0.5238480000000  0.4871490000000  0.4267520000000 1.0
C      1  0.5238480000000  0.5128030000000  0.5741400000000 1.0
C      1  0.4258700000000  0.5242600000000  0.4876190000000 1.0
C      1  0.5732580000000  0.5242600000000  0.5132730000000 1.0
C      1  0.5732580000000  0.4756920000000  0.4876190000000 1.0
C      1  0.5122340000000  0.4435030000000  0.5253880000000 1.0
C      1  0.5245060000000  0.5126460000000  0.4439730000000 1.0
C      1  0.4430910000000  0.5249180000000  0.5131160000000 1.0
C      1  0.5122340000000  0.5564490000000  0.4755040000000 1.0
C      1  0.4868940000000  0.5564490000000  0.5253880000000 1.0
C      1  0.4868940000000  0.4435030000000  0.4755040000000 1.0
C      1  0.5245060000000  0.4873060000000  0.5569190000000 1.0
C      1  0.4746220000000  0.4873060000000  0.4439730000000 1.0
C      1  0.4746220000000  0.5126460000000  0.5569190000000 1.0
C      1  0.4430910000000  0.4750340000000  0.4877760000000 1.0
C      1  0.5560370000000  0.4750340000000  0.5131160000000 1.0
C      1  0.5560370000000  0.5249180000000  0.4877760000000 1.0
C      1  0.5702780000000  0.5000280000000  0.4734660000000 1.0
C      1  0.4725840000000  0.5706900000000  0.5004970000000 1.0
C      1  0.4996160000000  0.4729960000000  0.5711600000000 1.0
C      1  0.5702780000000  0.4999250000000  0.5274260000000 1.0
C      1  0.4288500000000  0.4999250000000  0.4734660000000 1.0
C      1  0.4288500000000  0.5000280000000  0.5274260000000 1.0
C      1  0.4725840000000  0.4292620000000  0.5003940000000 1.0
C      1  0.5265440000000  0.4292620000000  0.5004970000000 1.0
C      1  0.5265440000000  0.5706900000000  0.5003940000000 1.0
C      1  0.4996150000000  0.5269560000000  0.4297320000000 1.0
C      1  0.4995130000000  0.5269560000000  0.5711600000000 1.0
C      1  0.4995130000000  0.4729960000000  0.4297320000000 1.0
C      1  0.4997790000000  0.4686850000000  0.4824470000000 1.0
C      1  0.4815650000000  0.5001910000000  0.4691540000000 1.0
C      1  0.4682720000000  0.4819770000000  0.5006610000000 1.0
C      1  0.4997790000000  0.5312680000000  0.5184450000000 1.0
C      1  0.4993490000000  0.5312680000000  0.4824470000000 1.0
C      1  0.4993490000000  0.4686850000000  0.5184450000000 1.0
C      1  0.4815650000000  0.4997610000000  0.5317370000000 1.0
C      1  0.5175630000000  0.4997610000000  0.4691540000000 1.0
C      1  0.5175630000000  0.5001910000000  0.5317370000000 1.0
C      1  0.4682720000000  0.5179750000000  0.5002310000000 1.0
C      1  0.5308560000000  0.5179750000000  0.5006610000000 1.0
C      1  0.5308560000000  0.4819770000000  0.5002310000000 1.0
C      1  0.4588440000000  0.5406960000000  0.5411660000000 1.0
C      1  0.5402840000000  0.4592560000000  0.5411660000000 1.0
C      1  0.5402840000000  0.5406960000000  0.4597260000000 1.0
C      1  0.4588440000000  0.4592560000000  0.4597260000000 1.0
C      1  0.4995640000000  0.4999760000000  0.5004460000000 1.0
END
