TITL C-3623287-7182-939 2514352.62089365 125000 -863.237371121442 0 0 166 (T23) n - 1
REM
REM in /home/nfs/bkarasulu/CARBON/AIRSS/Generating-Clusters/LCBOP/Higher-Symm/SD-CG/FIRE-CG
REM
REM
REM
REM
REM
REM ./C.cell (b20cbc046b6831c77cfcea5457e17084)
REM AIRSS Version 0.9.1 bugfix July 2018 build 013d7b7c2542+ Fri, 06 Jul 2018 19:26:36 +0100
REM compiler GCC version 9.2.1 20190827 (Red Hat 9.2.1-1)
REM options -cpp -mtune=generic -march=x86-64 -g -O0 -fpre-include=/usr/include/finclude/math-vector-fortran.h
REM seed 1694957964 -1009266266 -295895535 -1047476150 -936977118 -577948588 1268064207 428619961 694798722 3322773 458128844 710685515 1602025916 1584286055 219480780 -401834575 1012691484 1985593589 -619823784 -98767502 1746536035 975715007 -297041796 -1692389621 1709975896 -1533515134 222308461 1098686830 1897487531 -636187544 -1419011843 -2090474966 1977410022
REM
CELL 1.54180   50.00000   50.00000   50.00000   90.00000   90.00000   90.00000
LATT -1
SFAC C  
C      1  0.5552490000000  0.4098390000000  0.4895530000000 1.0
C      1  0.4099180000000  0.4897840000000  0.5549390000000 1.0
C      1  0.4898640000000  0.5551700000000  0.4096100000000 1.0
C      1  0.5552480000000  0.5909250000000  0.5107490000000 1.0
C      1  0.4456740000000  0.4098410000000  0.5107490000000 1.0
C      1  0.4456730000000  0.5909260000000  0.4895520000000 1.0
C      1  0.4099180000000  0.5109800000000  0.4453630000000 1.0
C      1  0.5910020000000  0.4897850000000  0.4453620000000 1.0
C      1  0.5910030000000  0.5109810000000  0.5549390000000 1.0
C      1  0.4898620000000  0.4455950000000  0.5906940000000 1.0
C      1  0.5110590000000  0.5551700000000  0.5906940000000 1.0
C      1  0.5110580000000  0.4455940000000  0.4096090000000 1.0
C      1  0.4267400000000  0.5513250000000  0.4664660000000 1.0
C      1  0.5513960000000  0.4667010000000  0.4264380000000 1.0
C      1  0.4667780000000  0.4266660000000  0.5510890000000 1.0
C      1  0.4267410000000  0.4494410000000  0.5338350000000 1.0
C      1  0.5741790000000  0.5513240000000  0.5338350000000 1.0
C      1  0.5741790000000  0.4494410000000  0.4664670000000 1.0
C      1  0.5513980000000  0.5340640000000  0.5738660000000 1.0
C      1  0.4495240000000  0.4667020000000  0.5738650000000 1.0
C      1  0.4495250000000  0.5340640000000  0.4264370000000 1.0
C      1  0.4667760000000  0.5741010000000  0.4492120000000 1.0
C      1  0.5341440000000  0.4266660000000  0.4492140000000 1.0
C      1  0.5341430000000  0.5740980000000  0.5510880000000 1.0
C      1  0.5443210000000  0.4784280000000  0.5002840000000 1.0
C      1  0.4785140000000  0.5005180000000  0.5440530000000 1.0
C      1  0.5005980000000  0.5442670000000  0.4781660000000 1.0
C      1  0.5443220000000  0.5223430000000  0.5000240000000 1.0
C      1  0.4566030000000  0.4784480000000  0.5000240000000 1.0
C      1  0.4566070000000  0.5223140000000  0.5002830000000 1.0
C      1  0.4784800000000  0.5002410000000  0.4562440000000 1.0
C      1  0.5224370000000  0.5005240000000  0.4562470000000 1.0
C      1  0.5224020000000  0.5002470000000  0.5440490000000 1.0
C      1  0.5005990000000  0.4564920000000  0.5221470000000 1.0
C      1  0.5003210000000  0.5442750000000  0.5221470000000 1.0
C      1  0.5003190000000  0.4564990000000  0.4781660000000 1.0
C      1  0.5487370000000  0.5205810000000  0.4152170000000 1.0
C      1  0.5206600000000  0.4154480000000  0.5484260000000 1.0
C      1  0.4155240000000  0.5486590000000  0.5203500000000 1.0
C      1  0.5487360000000  0.4801840000000  0.5850870000000 1.0
C      1  0.4521850000000  0.5205800000000  0.5850860000000 1.0
C      1  0.4521840000000  0.4801840000000  0.4152160000000 1.0
C      1  0.5206600000000  0.5853160000000  0.4518760000000 1.0
C      1  0.4802620000000  0.4154490000000  0.4518750000000 1.0
C      1  0.4802620000000  0.5853170000000  0.5484260000000 1.0
C      1  0.4155250000000  0.4521060000000  0.4799520000000 1.0
C      1  0.5853950000000  0.5486590000000  0.4799510000000 1.0
C      1  0.5853970000000  0.4521070000000  0.5203490000000 1.0
C      1  0.4772160000000  0.3860330000000  0.4702700000000 1.0
C      1  0.3861080000000  0.4705000000000  0.4769060000000 1.0
C      1  0.4705780000000  0.4771380000000  0.3857990000000 1.0
C      1  0.4772160000000  0.6147350000000  0.5300340000000 1.0
C      1  0.5237050000000  0.3860300000000  0.5300340000000 1.0
C      1  0.5237050000000  0.6147330000000  0.4702690000000 1.0
C      1  0.3861070000000  0.5302660000000  0.5233950000000 1.0
C      1  0.6148130000000  0.4705000000000  0.5233950000000 1.0
C      1  0.6148130000000  0.5302660000000  0.4769060000000 1.0
C      1  0.4705780000000  0.5236270000000  0.6145030000000 1.0
C      1  0.5303430000000  0.4771380000000  0.6145040000000 1.0
C      1  0.5303420000000  0.5236270000000  0.3858010000000 1.0
C      1  0.5295030000000  0.6052540000000  0.5175780000000 1.0
C      1  0.6053300000000  0.5178080000000  0.5291930000000 1.0
C      1  0.5178860000000  0.5294250000000  0.6050220000000 1.0
C      1  0.5295040000000  0.3955120000000  0.4827260000000 1.0
C      1  0.4714180000000  0.6052530000000  0.4827260000000 1.0
C      1  0.4714180000000  0.3955120000000  0.5175770000000 1.0
C      1  0.6053300000000  0.4829580000000  0.4711070000000 1.0
C      1  0.3955910000000  0.5178080000000  0.4711080000000 1.0
C      1  0.3955900000000  0.4829570000000  0.5291940000000 1.0
C      1  0.5178850000000  0.4713390000000  0.3952800000000 1.0
C      1  0.4830350000000  0.5294250000000  0.3952810000000 1.0
C      1  0.4830350000000  0.4713390000000  0.6050220000000 1.0
C      1  0.5810490000000  0.5519810000000  0.4431520000000 1.0
C      1  0.5520590000000  0.4433850000000  0.5807400000000 1.0
C      1  0.4434630000000  0.5809710000000  0.5517510000000 1.0
C      1  0.5810500000000  0.4487830000000  0.5571510000000 1.0
C      1  0.4198720000000  0.5519820000000  0.5571510000000 1.0
C      1  0.4198720000000  0.4487840000000  0.4431520000000 1.0
C      1  0.5520590000000  0.5573800000000  0.4195620000000 1.0
C      1  0.4488620000000  0.4433850000000  0.4195630000000 1.0
C      1  0.4488630000000  0.5573790000000  0.5807390000000 1.0
C      1  0.4434610000000  0.4197940000000  0.4485510000000 1.0
C      1  0.5574600000000  0.5809710000000  0.4485510000000 1.0
C      1  0.5574600000000  0.4197940000000  0.5517510000000 1.0
C      1  0.5423140000000  0.4849980000000  0.4052090000000 1.0
C      1  0.4850760000000  0.4054390000000  0.5420070000000 1.0
C      1  0.4055160000000  0.5422400000000  0.4847650000000 1.0
C      1  0.5423170000000  0.5157680000000  0.5950950000000 1.0
C      1  0.4586050000000  0.4849980000000  0.5950950000000 1.0
C      1  0.4586060000000  0.5157670000000  0.4052080000000 1.0
C      1  0.4850770000000  0.5953270000000  0.4582960000000 1.0
C      1  0.5158450000000  0.4054390000000  0.4582970000000 1.0
C      1  0.5158450000000  0.5953260000000  0.5420070000000 1.0
C      1  0.4055160000000  0.4585260000000  0.5155360000000 1.0
C      1  0.5954050000000  0.5422390000000  0.5155360000000 1.0
C      1  0.5954050000000  0.4585260000000  0.4847650000000 1.0
C      1  0.5665280000000  0.4776990000000  0.5282590000000 1.0
C      1  0.4777790000000  0.5284890000000  0.5662130000000 1.0
C      1  0.5285720000000  0.5664500000000  0.4774710000000 1.0
C      1  0.5665260000000  0.5230650000000  0.4720440000000 1.0
C      1  0.4343940000000  0.4777000000000  0.4720440000000 1.0
C      1  0.4343920000000  0.5230660000000  0.5282580000000 1.0
C      1  0.4777800000000  0.4722750000000  0.4340860000000 1.0
C      1  0.5231400000000  0.5284910000000  0.4340840000000 1.0
C      1  0.5231420000000  0.4722740000000  0.5662140000000 1.0
C      1  0.5285710000000  0.4343160000000  0.5228330000000 1.0
C      1  0.4723520000000  0.5664480000000  0.5228340000000 1.0
C      1  0.4723500000000  0.4343130000000  0.4774710000000 1.0
C      1  0.6176730000000  0.4973050000000  0.5142280000000 1.0
C      1  0.4973830000000  0.5144600000000  0.6173640000000 1.0
C      1  0.5145380000000  0.6175950000000  0.4970740000000 1.0
C      1  0.6176730000000  0.5034610000000  0.4860730000000 1.0
C      1  0.3832480000000  0.4973050000000  0.4860730000000 1.0
C      1  0.3832480000000  0.5034600000000  0.5142290000000 1.0
C      1  0.4973830000000  0.4863040000000  0.3829380000000 1.0
C      1  0.5035380000000  0.5144600000000  0.3829390000000 1.0
C      1  0.5035380000000  0.4863050000000  0.6173640000000 1.0
C      1  0.5145390000000  0.3831690000000  0.5032290000000 1.0
C      1  0.4863830000000  0.6175950000000  0.5032290000000 1.0
C      1  0.4863830000000  0.3831700000000  0.4970740000000 1.0
C      1  0.5515730000000  0.4644600000000  0.4788850000000 1.0
C      1  0.4645240000000  0.4790960000000  0.5512750000000 1.0
C      1  0.4791660000000  0.5515110000000  0.4642140000000 1.0
C      1  0.5515770000000  0.5363060000000  0.5214250000000 1.0
C      1  0.4493460000000  0.4644620000000  0.5214180000000 1.0
C      1  0.4493470000000  0.5363000000000  0.4788850000000 1.0
C      1  0.4645100000000  0.5216810000000  0.4490200000000 1.0
C      1  0.5364100000000  0.4790840000000  0.4490210000000 1.0
C      1  0.5363980000000  0.5216690000000  0.5512760000000 1.0
C      1  0.4791600000000  0.4492510000000  0.5360950000000 1.0
C      1  0.5217570000000  0.5515110000000  0.5360910000000 1.0
C      1  0.5217560000000  0.4492560000000  0.4642140000000 1.0
C      1  0.5166800000000  0.4397560000000  0.5741480000000 1.0
C      1  0.4398350000000  0.5743780000000  0.5163710000000 1.0
C      1  0.5744570000000  0.5166040000000  0.4395240000000 1.0
C      1  0.5166800000000  0.5610060000000  0.4261570000000 1.0
C      1  0.4842420000000  0.4397590000000  0.4261560000000 1.0
C      1  0.4842420000000  0.5610070000000  0.5741460000000 1.0
C      1  0.4398350000000  0.4263880000000  0.4839310000000 1.0
C      1  0.5610870000000  0.5743790000000  0.4839310000000 1.0
C      1  0.5610870000000  0.4263860000000  0.5163710000000 1.0
C      1  0.5744570000000  0.4841610000000  0.5607790000000 1.0
C      1  0.4264640000000  0.5166050000000  0.5607780000000 1.0
C      1  0.4264640000000  0.4841610000000  0.4395230000000 1.0
C      1  0.4396810000000  0.4231370000000  0.5362080000000 1.0
C      1  0.4232190000000  0.5364350000000  0.4393700000000 1.0
C      1  0.5365130000000  0.4396050000000  0.4229110000000 1.0
C      1  0.4396790000000  0.5776300000000  0.4640930000000 1.0
C      1  0.5612420000000  0.4231360000000  0.4640940000000 1.0
C      1  0.5612400000000  0.5776270000000  0.5362070000000 1.0
C      1  0.4232190000000  0.4643290000000  0.5609310000000 1.0
C      1  0.5777030000000  0.5364370000000  0.5609310000000 1.0
C      1  0.5777010000000  0.4643300000000  0.4393710000000 1.0
C      1  0.5365130000000  0.5611610000000  0.5773910000000 1.0
C      1  0.4644070000000  0.4396040000000  0.5773920000000 1.0
C      1  0.4644070000000  0.5611590000000  0.4229110000000 1.0
C      1  0.5293190000000  0.5003810000000  0.5001450000000 1.0
C      1  0.5004580000000  0.5003890000000  0.5290080000000 1.0
C      1  0.5004650000000  0.4715240000000  0.5001500000000 1.0
C      1  0.5004610000000  0.5292410000000  0.5001560000000 1.0
C      1  0.4716030000000  0.5003820000000  0.5001470000000 1.0
C      1  0.5004590000000  0.5003770000000  0.4712910000000 1.0
C      1  0.4664030000000  0.5344380000000  0.5341980000000 1.0
C      1  0.5345130000000  0.4663310000000  0.5341950000000 1.0
C      1  0.5345100000000  0.5344320000000  0.4661160000000 1.0
C      1  0.4664080000000  0.4663310000000  0.4661130000000 1.0
END
