TITL C-3623289-7120-129 42.8903260911577 125000 -1194.52217442674 0 0 194 (C1) n - 1
REM
REM in /home/nfs/bkarasulu/CARBON/AIRSS/Generating-Clusters/LCBOP/Higher-Symm/SD-CG/FIRE-CG
REM
REM
REM
REM
REM
REM ./C.cell (b20cbc046b6831c77cfcea5457e17084)
REM AIRSS Version 0.9.1 bugfix July 2018 build 013d7b7c2542+ Fri, 06 Jul 2018 19:26:36 +0100
REM compiler GCC version 9.2.1 20190827 (Red Hat 9.2.1-1)
REM options -cpp -mtune=generic -march=x86-64 -g -O0 -fpre-include=/usr/include/finclude/math-vector-fortran.h
REM seed 1512957702 577444227 -855594418 -727597460 -137386541 322607490 843556387 1517070980 33034219 -1949256909 -1494587429 -2089205895 -1947277875 -96235090 1992352570 -2097313115 1682007565 -2124673851 -727182321 1243617522 -2008094815 -1095773777 912701756 -1927403594 2130669097 -1258811944 584600555 -1690822852 -198964347 761551535 -1632258541 821891530 1640617796
REM
CELL 1.54180   50.00000   50.00000   50.00000   90.00000   90.00000   90.00000
LATT -1
SFAC C  
C      1  0.4430290000000  0.5273010000000  0.5429540000000 1.0
C      1  0.5101100000000  0.4100940000000  0.4418610000000 1.0
C      1  0.6502780000000  0.4931890000000  0.5399010000000 1.0
C      1  0.4826480000000  0.3761480000000  0.5435770000000 1.0
C      1  0.5562320000000  0.5261380000000  0.5527020000000 1.0
C      1  0.4174810000000  0.4117140000000  0.4520750000000 1.0
C      1  0.5056970000000  0.5191460000000  0.4571200000000 1.0
C      1  0.5001850000000  0.4656720000000  0.5826500000000 1.0
C      1  0.5552620000000  0.5111220000000  0.4612940000000 1.0
C      1  0.5700240000000  0.4718490000000  0.4827120000000 1.0
C      1  0.5217050000000  0.5727950000000  0.4857050000000 1.0
C      1  0.4392590000000  0.5390430000000  0.4784670000000 1.0
C      1  0.5625160000000  0.4543880000000  0.5535480000000 1.0
C      1  0.5009550000000  0.5745760000000  0.4316050000000 1.0
C      1  0.4975120000000  0.4966570000000  0.6444450000000 1.0
C      1  0.4146890000000  0.5004080000000  0.4990550000000 1.0
C      1  0.5854850000000  0.5494920000000  0.4320490000000 1.0
C      1  0.4854570000000  0.5345460000000  0.5652210000000 1.0
C      1  0.4860500000000  0.4589280000000  0.5155120000000 1.0
C      1  0.5721870000000  0.5696130000000  0.4492800000000 1.0
C      1  0.3556830000000  0.4692980000000  0.5652600000000 1.0
C      1  0.4093730000000  0.5416520000000  0.4407310000000 1.0
C      1  0.4623490000000  0.5143120000000  0.6165710000000 1.0
C      1  0.4924950000000  0.5489700000000  0.5906800000000 1.0
C      1  0.4477730000000  0.4943930000000  0.6009450000000 1.0
C      1  0.5610660000000  0.5646620000000  0.6001610000000 1.0
C      1  0.4704060000000  0.4568050000000  0.4492960000000 1.0
C      1  0.5798470000000  0.4277570000000  0.4461870000000 1.0
C      1  0.5721580000000  0.4911920000000  0.5835680000000 1.0
C      1  0.4408850000000  0.4024780000000  0.5249000000000 1.0
C      1  0.5684520000000  0.4227620000000  0.4734760000000 1.0
C      1  0.4466920000000  0.4992710000000  0.5374820000000 1.0
C      1  0.4854000000000  0.4146040000000  0.5161950000000 1.0
C      1  0.5355830000000  0.5435370000000  0.4274040000000 1.0
C      1  0.3943380000000  0.4925350000000  0.4560700000000 1.0
C      1  0.5825340000000  0.5430690000000  0.4928130000000 1.0
C      1  0.5455920000000  0.5385060000000  0.4008350000000 1.0
C      1  0.4460070000000  0.5246190000000  0.4047180000000 1.0
C      1  0.4865120000000  0.3986840000000  0.4926080000000 1.0
C      1  0.5173660000000  0.4104110000000  0.5612890000000 1.0
C      1  0.4029320000000  0.5680230000000  0.4511120000000 1.0
C      1  0.4845270000000  0.4607030000000  0.4244580000000 1.0
C      1  0.4661020000000  0.4383130000000  0.5177650000000 1.0
C      1  0.5492660000000  0.5024480000000  0.5129330000000 1.0
C      1  0.5287480000000  0.5706490000000  0.4324400000000 1.0
C      1  0.5228670000000  0.4722120000000  0.5754920000000 1.0
C      1  0.5473170000000  0.5716430000000  0.4897290000000 1.0
C      1  0.5676310000000  0.5178060000000  0.5282740000000 1.0
C      1  0.6006020000000  0.5316490000000  0.4500600000000 1.0
C      1  0.5291340000000  0.4496900000000  0.4048950000000 1.0
C      1  0.4502290000000  0.5589770000000  0.4984230000000 1.0
C      1  0.5056540000000  0.4204030000000  0.5372310000000 1.0
C      1  0.5431010000000  0.6101230000000  0.4579870000000 1.0
C      1  0.4615000000000  0.4980590000000  0.4927000000000 1.0
C      1  0.4176160000000  0.6070320000000  0.5202000000000 1.0
C      1  0.5846860000000  0.5081410000000  0.4556130000000 1.0
C      1  0.5128350000000  0.4750390000000  0.4754240000000 1.0
C      1  0.5322530000000  0.4872220000000  0.5285360000000 1.0
C      1  0.4012860000000  0.4778910000000  0.4324560000000 1.0
C      1  0.5616850000000  0.4457270000000  0.4899020000000 1.0
C      1  0.4201040000000  0.4446180000000  0.5460670000000 1.0
C      1  0.5801880000000  0.4755030000000  0.5609850000000 1.0
C      1  0.4104790000000  0.4424650000000  0.5956710000000 1.0
C      1  0.5223990000000  0.4592890000000  0.4528220000000 1.0
C      1  0.4868360000000  0.5098660000000  0.4993580000000 1.0
C      1  0.3921970000000  0.4132120000000  0.4945320000000 1.0
C      1  0.5036000000000  0.4511880000000  0.5386230000000 1.0
C      1  0.4240690000000  0.4541020000000  0.5740620000000 1.0
C      1  0.4560630000000  0.5096230000000  0.6641590000000 1.0
C      1  0.4542680000000  0.4976170000000  0.4642710000000 1.0
C      1  0.4382230000000  0.3968900000000  0.4946840000000 1.0
C      1  0.4799600000000  0.4439610000000  0.4717540000000 1.0
C      1  0.6052050000000  0.5819550000000  0.5049040000000 1.0
C      1  0.4627890000000  0.4027410000000  0.4484510000000 1.0
C      1  0.5605070000000  0.5926300000000  0.5347540000000 1.0
C      1  0.4742240000000  0.6229450000000  0.4699600000000 1.0
C      1  0.5107470000000  0.5071080000000  0.3759140000000 1.0
C      1  0.4865930000000  0.3789400000000  0.4132700000000 1.0
C      1  0.4429670000000  0.6058650000000  0.4376240000000 1.0
C      1  0.4254470000000  0.4610220000000  0.4755890000000 1.0
C      1  0.3638530000000  0.4522680000000  0.6105930000000 1.0
C      1  0.4686850000000  0.5892380000000  0.3984510000000 1.0
C      1  0.5342760000000  0.4601260000000  0.5398990000000 1.0
C      1  0.5898550000000  0.5266300000000  0.5140260000000 1.0
C      1  0.4459440000000  0.5789490000000  0.5821430000000 1.0
C      1  0.3500940000000  0.4644930000000  0.5910230000000 1.0
C      1  0.5694490000000  0.5394710000000  0.5969990000000 1.0
C      1  0.5473970000000  0.4299970000000  0.4062090000000 1.0
C      1  0.5208590000000  0.5333860000000  0.3851270000000 1.0
C      1  0.4711310000000  0.5930880000000  0.5446820000000 1.0
C      1  0.4829670000000  0.5013020000000  0.3825420000000 1.0
C      1  0.6182940000000  0.5666990000000  0.4856570000000 1.0
C      1  0.5316100000000  0.5182900000000  0.4425430000000 1.0
C      1  0.4046130000000  0.4798840000000  0.4811080000000 1.0
C      1  0.4401650000000  0.4944480000000  0.5108120000000 1.0
C      1  0.5233180000000  0.5862580000000  0.5709090000000 1.0
C      1  0.6155830000000  0.5144170000000  0.5127900000000 1.0
C      1  0.6300440000000  0.5185380000000  0.4879150000000 1.0
C      1  0.6233540000000  0.4961490000000  0.5331480000000 1.0
C      1  0.5542030000000  0.4515860000000  0.6119640000000 1.0
C      1  0.4825910000000  0.5349410000000  0.4510400000000 1.0
C      1  0.3888300000000  0.4425080000000  0.6113160000000 1.0
C      1  0.6440910000000  0.4968470000000  0.4763560000000 1.0
C      1  0.5435610000000  0.4443610000000  0.5118220000000 1.0
C      1  0.4398950000000  0.4322950000000  0.5282290000000 1.0
C      1  0.5931680000000  0.4849230000000  0.4012160000000 1.0
C      1  0.4139170000000  0.5252180000000  0.4838070000000 1.0
C      1  0.4359800000000  0.5333650000000  0.4302500000000 1.0
C      1  0.5445240000000  0.5827630000000  0.5895760000000 1.0
C      1  0.5720280000000  0.4278660000000  0.5541910000000 1.0
C      1  0.5698020000000  0.5618810000000  0.4771540000000 1.0
C      1  0.5647080000000  0.4757400000000  0.6061150000000 1.0
C      1  0.6001460000000  0.4475400000000  0.4382610000000 1.0
C      1  0.5112710000000  0.6196550000000  0.5011980000000 1.0
C      1  0.5870190000000  0.5110490000000  0.3987750000000 1.0
C      1  0.4410820000000  0.4424710000000  0.4170080000000 1.0
C      1  0.4878240000000  0.5625760000000  0.4539430000000 1.0
C      1  0.5281510000000  0.4147360000000  0.5855790000000 1.0
C      1  0.4952440000000  0.5680520000000  0.4805700000000 1.0
C      1  0.6756480000000  0.4905580000000  0.5452470000000 1.0
C      1  0.5080060000000  0.3697810000000  0.5346700000000 1.0
C      1  0.4946670000000  0.5472960000000  0.3925600000000 1.0
C      1  0.4153500000000  0.5961320000000  0.5464370000000 1.0
C      1  0.4473900000000  0.5510170000000  0.5880440000000 1.0
C      1  0.4385070000000  0.4985250000000  0.3938620000000 1.0
C      1  0.5306550000000  0.6206300000000  0.4798620000000 1.0
C      1  0.3737110000000  0.4632280000000  0.5465590000000 1.0
C      1  0.5322800000000  0.5938690000000  0.5430650000000 1.0
C      1  0.4144420000000  0.4048620000000  0.4798160000000 1.0
C      1  0.4645440000000  0.4573200000000  0.4035460000000 1.0
C      1  0.5115230000000  0.3891240000000  0.4845810000000 1.0
C      1  0.5645150000000  0.4189920000000  0.4238110000000 1.0
C      1  0.4622290000000  0.3966070000000  0.4776760000000 1.0
C      1  0.4845470000000  0.6296720000000  0.4953980000000 1.0
C      1  0.5023790000000  0.5329050000000  0.5428920000000 1.0
C      1  0.5147220000000  0.4674840000000  0.4241850000000 1.0
C      1  0.4578270000000  0.4800310000000  0.5561550000000 1.0
C      1  0.4729430000000  0.5279890000000  0.3932130000000 1.0
C      1  0.4564660000000  0.5360580000000  0.5650400000000 1.0
C      1  0.3993390000000  0.5839860000000  0.4731300000000 1.0
C      1  0.3931120000000  0.4461410000000  0.5357710000000 1.0
C      1  0.5975910000000  0.4609930000000  0.4129530000000 1.0
C      1  0.3988270000000  0.5210320000000  0.4584060000000 1.0
C      1  0.6037240000000  0.4814660000000  0.5469900000000 1.0
C      1  0.4446060000000  0.4707720000000  0.4538820000000 1.0
C      1  0.5747140000000  0.5357360000000  0.4066740000000 1.0
C      1  0.5806290000000  0.3762880000000  0.4793470000000 1.0
C      1  0.4678460000000  0.5414270000000  0.6071930000000 1.0
C      1  0.4215420000000  0.5916440000000  0.5739090000000 1.0
C      1  0.5497700000000  0.5868320000000  0.4424360000000 1.0
C      1  0.6200630000000  0.5406420000000  0.4713290000000 1.0
C      1  0.4376360000000  0.5478800000000  0.5239300000000 1.0
C      1  0.5368030000000  0.3868420000000  0.4966360000000 1.0
C      1  0.6373350000000  0.4735050000000  0.4643890000000 1.0
C      1  0.4471720000000  0.5851390000000  0.4827950000000 1.0
C      1  0.4968750000000  0.5771140000000  0.5814630000000 1.0
C      1  0.5296720000000  0.5349280000000  0.5492900000000 1.0
C      1  0.4535430000000  0.6048980000000  0.4634770000000 1.0
C      1  0.4634480000000  0.6351850000000  0.5136730000000 1.0
C      1  0.5613820000000  0.3958250000000  0.4833260000000 1.0
C      1  0.4714940000000  0.5886470000000  0.5722780000000 1.0
C      1  0.4264900000000  0.4650030000000  0.4296980000000 1.0
C      1  0.4036660000000  0.5964130000000  0.4971370000000 1.0
C      1  0.5344110000000  0.3764030000000  0.5237860000000 1.0
C      1  0.5846280000000  0.5894100000000  0.5218100000000 1.0
C      1  0.5122840000000  0.5996920000000  0.5226010000000 1.0
C      1  0.4721400000000  0.5067210000000  0.6421820000000 1.0
C      1  0.5532970000000  0.4954990000000  0.4862130000000 1.0
C      1  0.4878530000000  0.5840270000000  0.5243850000000 1.0
C      1  0.5666810000000  0.5187140000000  0.5783920000000 1.0
C      1  0.4491570000000  0.6015110000000  0.4120170000000 1.0
C      1  0.4908190000000  0.5331380000000  0.5163240000000 1.0
C      1  0.4805520000000  0.5602380000000  0.5054790000000 1.0
C      1  0.4614210000000  0.3962100000000  0.5474090000000 1.0
C      1  0.5565770000000  0.3810790000000  0.5404990000000 1.0
C      1  0.5914270000000  0.4821800000000  0.4668060000000 1.0
C      1  0.4542340000000  0.5261680000000  0.4540730000000 1.0
C      1  0.4037160000000  0.5998190000000  0.5930860000000 1.0
C      1  0.6114380000000  0.4648570000000  0.4576950000000 1.0
C      1  0.5227610000000  0.4306850000000  0.4535840000000 1.0
C      1  0.5412810000000  0.4294170000000  0.6038810000000 1.0
C      1  0.4406320000000  0.4177050000000  0.4354450000000 1.0
C      1  0.4896170000000  0.5720770000000  0.4054850000000 1.0
C      1  0.4866400000000  0.3967990000000  0.4339180000000 1.0
C      1  0.4955430000000  0.4585870000000  0.4897440000000 1.0
C      1  0.5709450000000  0.4015540000000  0.5499820000000 1.0
C      1  0.4819850000000  0.4542580000000  0.5618160000000 1.0
C      1  0.4379180000000  0.6269670000000  0.5173700000000 1.0
C      1  0.4416460000000  0.4765880000000  0.5791120000000 1.0
C      1  0.4616360000000  0.4813480000000  0.3877380000000 1.0
C      1  0.5058210000000  0.5023890000000  0.4794330000000 1.0
C      1  0.5257900000000  0.4951220000000  0.4233500000000 1.0
C      1  0.3855720000000  0.4288210000000  0.5150360000000 1.0
C      1  0.4683140000000  0.4219680000000  0.5636670000000 1.0
END
