TITL C-3623289-7120-475 0.336290433724504 125000 -178.209160240396 0 0 34 (D3) n - 1
REM
REM in /home/nfs/bkarasulu/CARBON/AIRSS/Generating-Clusters/LCBOP/Higher-Symm/SD-CG/FIRE-CG
REM
REM
REM
REM
REM
REM ./C.cell (b20cbc046b6831c77cfcea5457e17084)
REM AIRSS Version 0.9.1 bugfix July 2018 build 013d7b7c2542+ Fri, 06 Jul 2018 19:26:36 +0100
REM compiler GCC version 9.2.1 20190827 (Red Hat 9.2.1-1)
REM options -cpp -mtune=generic -march=x86-64 -g -O0 -fpre-include=/usr/include/finclude/math-vector-fortran.h
REM seed -50504 1165301095 1615701570 1825979138 -653682113 -1906256353 -157730464 -527606528 -6659950 -605063333 -738692664 1742224859 1726855189 704948771 -792199751 876327048 -483494890 -212309098 -635237943 1767044391 -993969165 1671467571 732601452 1407007460 876839825 1719432644 233541023 -1189524934 -866849369 707566911 1541511384 -1046385780 826339503
REM
CELL 1.54180   50.00000   50.00000   50.00000   90.00000   90.00000   90.00000
LATT -1
SFAC C  
C      1  0.4558590000000  0.4917550000000  0.4115360000000 1.0
C      1  0.5159990000000  0.5423850000000  0.4115360000000 1.0
C      1  0.5297760000000  0.4649880000000  0.4115360000000 1.0
C      1  0.4558650000000  0.5076890000000  0.5858310000000 1.0
C      1  0.5159760000000  0.4570240000000  0.5858310000000 1.0
C      1  0.5297970000000  0.5344140000000  0.5858310000000 1.0
C      1  0.4716050000000  0.4291630000000  0.4421090000000 1.0
C      1  0.4539200000000  0.5600450000000  0.4421090000000 1.0
C      1  0.5761090000000  0.5099200000000  0.4421080000000 1.0
C      1  0.4716460000000  0.5702720000000  0.5552590000000 1.0
C      1  0.4538860000000  0.4394000000000  0.5552590000000 1.0
C      1  0.5761040000000  0.4894550000000  0.5552580000000 1.0
C      1  0.4807720000000  0.4624010000000  0.5228670000000 1.0
C      1  0.4781220000000  0.5354880000000  0.5228670000000 1.0
C      1  0.5427420000000  0.5012390000000  0.5228660000000 1.0
C      1  0.4807930000000  0.5370290000000  0.4745010000000 1.0
C      1  0.4781010000000  0.4639440000000  0.4745000000000 1.0
C      1  0.5427400000000  0.4981550000000  0.4745000000000 1.0
C      1  0.4772240000000  0.5473880000000  0.4487990000000 1.0
C      1  0.5534960000000  0.4960660000000  0.4487990000000 1.0
C      1  0.4709140000000  0.4556740000000  0.4487990000000 1.0
C      1  0.4771970000000  0.4520440000000  0.5485680000000 1.0
C      1  0.5534990000000  0.5033220000000  0.5485670000000 1.0
C      1  0.4709400000000  0.5437620000000  0.5485680000000 1.0
C      1  0.5408400000000  0.4796990000000  0.4299840000000 1.0
C      1  0.4630670000000  0.4748180000000  0.4299850000000 1.0
C      1  0.4977260000000  0.5446120000000  0.4299840000000 1.0
C      1  0.5408530000000  0.5196970000000  0.5673820000000 1.0
C      1  0.4630820000000  0.5246220000000  0.5673830000000 1.0
C      1  0.4977020000000  0.4548080000000  0.5673830000000 1.0
C      1  0.4863640000000  0.5242880000000  0.4986840000000 1.0
C      1  0.4863500000000  0.4751390000000  0.4986840000000 1.0
C      1  0.5289210000000  0.4997010000000  0.4986830000000 1.0
C      1  0.5005450000000  0.4997090000000  0.4986840000000 1.0
END
