TITL C-3623284-6838-690 -1.40019673780469e-06 125000 -1003.99905450534 0 0 166 (C2) n - 1
REM
REM in /home/nfs/bkarasulu/CARBON/AIRSS/Generating-Clusters/LCBOP/Higher-Symm/SD-CG/FIRE-CG
REM
REM
REM
REM
REM
REM ./C.cell (b20cbc046b6831c77cfcea5457e17084)
REM AIRSS Version 0.9.1 bugfix July 2018 build 013d7b7c2542+ Fri, 06 Jul 2018 19:26:36 +0100
REM compiler GCC version 9.2.1 20190827 (Red Hat 9.2.1-1)
REM options -cpp -mtune=generic -march=x86-64 -g -O0 -fpre-include=/usr/include/finclude/math-vector-fortran.h
REM seed 312555464 1771479588 -1803052877 1043368473 -1854484242 -408061979 411746591 408673889 1402610550 106870813 -923938077 710690126 119094289 1855846384 -1071672864 -1197492124 -1652765513 -1460777084 -37178809 -302515548 -884786702 -400245369 -1439254618 -2021630957 1039147335 -1464418567 1283261305 -243099413 -91832327 1830307895 -322431624 -1617529203 -1791841694
REM
CELL 1.54180   50.00000   50.00000   50.00000   90.00000   90.00000   90.00000
LATT -1
SFAC C  
C      1  0.4354560000000  0.5966220000000  0.4412290000000 1.0
C      1  0.3979750000000  0.4408360000000  0.5564250000000 1.0
C      1  0.5643500000000  0.4035850000000  0.4412360000000 1.0
C      1  0.6018530000000  0.5593940000000  0.5563940000000 1.0
C      1  0.5929220000000  0.4418570000000  0.5059640000000 1.0
C      1  0.5583100000000  0.5930540000000  0.4951910000000 1.0
C      1  0.4068960000000  0.5583630000000  0.5059700000000 1.0
C      1  0.4415060000000  0.4071640000000  0.4952200000000 1.0
C      1  0.4728610000000  0.5107310000000  0.4150480000000 1.0
C      1  0.4862340000000  0.4749840000000  0.5846290000000 1.0
C      1  0.5269410000000  0.4894720000000  0.4150450000000 1.0
C      1  0.5136000000000  0.5252510000000  0.5846210000000 1.0
C      1  0.4072710000000  0.5021200000000  0.4533860000000 1.0
C      1  0.4935950000000  0.4063210000000  0.5513270000000 1.0
C      1  0.5925380000000  0.4980900000000  0.4533690000000 1.0
C      1  0.5062320000000  0.5939070000000  0.5513080000000 1.0
C      1  0.5556240000000  0.4140440000000  0.4906750000000 1.0
C      1  0.5897660000000  0.5571680000000  0.5063110000000 1.0
C      1  0.4441920000000  0.5861730000000  0.4906680000000 1.0
C      1  0.4100520000000  0.4430520000000  0.5063390000000 1.0
C      1  0.5181950000000  0.5448040000000  0.4824650000000 1.0
C      1  0.4562340000000  0.5097720000000  0.5252850000000 1.0
C      1  0.4816190000000  0.4554110000000  0.4824770000000 1.0
C      1  0.5435880000000  0.4904520000000  0.5252780000000 1.0
C      1  0.4408510000000  0.4655630000000  0.5344950000000 1.0
C      1  0.5227520000000  0.4359540000000  0.4616800000000 1.0
C      1  0.5589730000000  0.5346630000000  0.5344770000000 1.0
C      1  0.4770580000000  0.5642570000000  0.4616710000000 1.0
C      1  0.4262040000000  0.5815630000000  0.5649270000000 1.0
C      1  0.4218910000000  0.4219340000000  0.4338550000000 1.0
C      1  0.5736250000000  0.4186680000000  0.5649290000000 1.0
C      1  0.5779140000000  0.5782710000000  0.4338250000000 1.0
C      1  0.4700940000000  0.4898380000000  0.6041540000000 1.0
C      1  0.5122780000000  0.4725940000000  0.3961640000000 1.0
C      1  0.5297430000000  0.5104020000000  0.6041470000000 1.0
C      1  0.4875200000000  0.5276040000000  0.3961610000000 1.0
C      1  0.4410090000000  0.5368990000000  0.4626000000000 1.0
C      1  0.4507790000000  0.4398060000000  0.5382930000000 1.0
C      1  0.5588010000000  0.4633130000000  0.4625960000000 1.0
C      1  0.5490460000000  0.5604200000000  0.5382720000000 1.0
C      1  0.4845250000000  0.4457590000000  0.5832060000000 1.0
C      1  0.5564750000000  0.4892750000000  0.4166560000000 1.0
C      1  0.5153080000000  0.5544760000000  0.5831920000000 1.0
C      1  0.4433270000000  0.5109280000000  0.4166650000000 1.0
C      1  0.4841290000000  0.4800260000000  0.4731320000000 1.0
C      1  0.5190480000000  0.4822620000000  0.5152630000000 1.0
C      1  0.5156830000000  0.5201880000000  0.4731250000000 1.0
C      1  0.4807720000000  0.5179590000000  0.5152630000000 1.0
C      1  0.4808460000000  0.5164070000000  0.4424740000000 1.0
C      1  0.4809330000000  0.4843910000000  0.5580720000000 1.0
C      1  0.5189600000000  0.4838000000000  0.4424740000000 1.0
C      1  0.5188950000000  0.5158390000000  0.5580650000000 1.0
C      1  0.5424300000000  0.6060360000000  0.5136620000000 1.0
C      1  0.3939180000000  0.5409410000000  0.4885860000000 1.0
C      1  0.4573900000000  0.3941850000000  0.5136910000000 1.0
C      1  0.6058980000000  0.4592760000000  0.4885740000000 1.0
C      1  0.4762110000000  0.3933540000000  0.5340300000000 1.0
C      1  0.6055670000000  0.4801170000000  0.4701020000000 1.0
C      1  0.5236120000000  0.6068720000000  0.5340050000000 1.0
C      1  0.3942450000000  0.5200960000000  0.4701180000000 1.0
C      1  0.5698220000000  0.5086630000000  0.4373880000000 1.0
C      1  0.4954970000000  0.5694570000000  0.5642770000000 1.0
C      1  0.4299830000000  0.4915440000000  0.4374030000000 1.0
C      1  0.5043330000000  0.4307750000000  0.5642900000000 1.0
C      1  0.4239010000000  0.5655520000000  0.5894490000000 1.0
C      1  0.4391550000000  0.4210850000000  0.4100840000000 1.0
C      1  0.5759340000000  0.4346840000000  0.5894480000000 1.0
C      1  0.5606450000000  0.5791160000000  0.4100570000000 1.0
C      1  0.4713920000000  0.6084190000000  0.4099910000000 1.0
C      1  0.3884860000000  0.4789010000000  0.5858560000000 1.0
C      1  0.5284080000000  0.3917820000000  0.4100070000000 1.0
C      1  0.6113480000000  0.5213350000000  0.5858300000000 1.0
C      1  0.5451190000000  0.5600050000000  0.5846430000000 1.0
C      1  0.4365810000000  0.5407930000000  0.4161380000000 1.0
C      1  0.4547140000000  0.4402310000000  0.5846630000000 1.0
C      1  0.5632200000000  0.4594090000000  0.4161350000000 1.0
C      1  0.5682960000000  0.4271800000000  0.5139750000000 1.0
C      1  0.5742360000000  0.5704440000000  0.4849870000000 1.0
C      1  0.4315240000000  0.5730410000000  0.5139730000000 1.0
C      1  0.4255780000000  0.4297710000000  0.4850150000000 1.0
C      1  0.6005200000000  0.5938590000000  0.4349320000000 1.0
C      1  0.4129910000000  0.6055780000000  0.5628740000000 1.0
C      1  0.3992850000000  0.4063470000000  0.4349700000000 1.0
C      1  0.5868380000000  0.3946540000000  0.5628780000000 1.0
C      1  0.4557500000000  0.5377740000000  0.5731890000000 1.0
C      1  0.4642920000000  0.4548100000000  0.4274130000000 1.0
C      1  0.5440810000000  0.4624600000000  0.5731880000000 1.0
C      1  0.5355120000000  0.5453940000000  0.4273970000000 1.0
C      1  0.4200360000000  0.4682090000000  0.5155050000000 1.0
C      1  0.5286800000000  0.4193590000000  0.4836380000000 1.0
C      1  0.5797840000000  0.5320130000000  0.5154840000000 1.0
C      1  0.4711340000000  0.5808560000000  0.4836280000000 1.0
C      1  0.3820330000000  0.5041010000000  0.5919080000000 1.0
C      1  0.5034870000000  0.3838620000000  0.4045730000000 1.0
C      1  0.6178020000000  0.4961360000000  0.5918860000000 1.0
C      1  0.4963120000000  0.6163380000000  0.4045510000000 1.0
C      1  0.4362140000000  0.5293710000000  0.4881640000000 1.0
C      1  0.4737730000000  0.4365150000000  0.5241760000000 1.0
C      1  0.5636010000000  0.4708450000000  0.4881580000000 1.0
C      1  0.5260490000000  0.5637090000000  0.5241590000000 1.0
C      1  0.5472740000000  0.4105760000000  0.4194590000000 1.0
C      1  0.5933740000000  0.5416480000000  0.5776000000000 1.0
C      1  0.4525280000000  0.5896270000000  0.4194510000000 1.0
C      1  0.4064580000000  0.4585860000000  0.5776250000000 1.0
C      1  0.4438170000000  0.4887860000000  0.5908180000000 1.0
C      1  0.5148730000000  0.4466110000000  0.4097480000000 1.0
C      1  0.5560170000000  0.5114510000000  0.5908050000000 1.0
C      1  0.4849280000000  0.5535900000000  0.4097410000000 1.0
C      1  0.4716200000000  0.5126700000000  0.6211500000000 1.0
C      1  0.4894500000000  0.4722450000000  0.3790980000000 1.0
C      1  0.5282210000000  0.4875730000000  0.6211480000000 1.0
C      1  0.5103450000000  0.5279500000000  0.3790900000000 1.0
C      1  0.4683770000000  0.5384380000000  0.4558310000000 1.0
C      1  0.4584900000000  0.4866030000000  0.5409510000000 1.0
C      1  0.5314320000000  0.4617720000000  0.4558330000000 1.0
C      1  0.5413350000000  0.5136240000000  0.5409410000000 1.0
C      1  0.5404260000000  0.4629490000000  0.6203000000000 1.0
C      1  0.5340230000000  0.5418620000000  0.3801150000000 1.0
C      1  0.4594140000000  0.5372930000000  0.6203000000000 1.0
C      1  0.4657720000000  0.4583330000000  0.3801290000000 1.0
C      1  0.4240370000000  0.5450020000000  0.4415950000000 1.0
C      1  0.4465010000000  0.4253410000000  0.5618530000000 1.0
C      1  0.5757690000000  0.4552060000000  0.4415900000000 1.0
C      1  0.5533280000000  0.5748900000000  0.5618280000000 1.0
C      1  0.5426870000000  0.4381310000000  0.4115500000000 1.0
C      1  0.5658980000000  0.5384370000000  0.5876090000000 1.0
C      1  0.4571140000000  0.5620700000000  0.4115460000000 1.0
C      1  0.4339360000000  0.4618000000000  0.5876290000000 1.0
C      1  0.6143480000000  0.4699210000000  0.5956200000000 1.0
C      1  0.5228640000000  0.6147330000000  0.4022340000000 1.0
C      1  0.3854880000000  0.5303170000000  0.5956360000000 1.0
C      1  0.4769350000000  0.3854670000000  0.4022610000000 1.0
C      1  0.5580080000000  0.4879540000000  0.5740980000000 1.0
C      1  0.5084460000000  0.5559780000000  0.4269130000000 1.0
C      1  0.4418230000000  0.5122790000000  0.5741070000000 1.0
C      1  0.4913570000000  0.4442260000000  0.4269250000000 1.0
C      1  0.5524270000000  0.4494540000000  0.5983140000000 1.0
C      1  0.5470890000000  0.5546620000000  0.4019090000000 1.0
C      1  0.4474090000000  0.5507840000000  0.5983140000000 1.0
C      1  0.4527100000000  0.4455370000000  0.4019290000000 1.0
C      1  0.5563650000000  0.4279990000000  0.5424710000000 1.0
C      1  0.5714160000000  0.5600560000000  0.4563430000000 1.0
C      1  0.4434600000000  0.5722290000000  0.5424670000000 1.0
C      1  0.4283930000000  0.4401550000000  0.4563680000000 1.0
C      1  0.5320900000000  0.4418470000000  0.5555820000000 1.0
C      1  0.5576110000000  0.5358130000000  0.4444920000000 1.0
C      1  0.4677380000000  0.5583830000000  0.5555770000000 1.0
C      1  0.4421960000000  0.4643950000000  0.4445100000000 1.0
C      1  0.4301740000000  0.5965250000000  0.4679000000000 1.0
C      1  0.3968190000000  0.4325670000000  0.5301800000000 1.0
C      1  0.5696370000000  0.4036880000000  0.4679060000000 1.0
C      1  0.6030040000000  0.5676580000000  0.5301470000000 1.0
C      1  0.5128940000000  0.5650870000000  0.5005620000000 1.0
C      1  0.4330360000000  0.5139590000000  0.5104130000000 1.0
C      1  0.4869230000000  0.4351320000000  0.5005770000000 1.0
C      1  0.5667840000000  0.4862620000000  0.5104030000000 1.0
C      1  0.4934860000000  0.5849870000000  0.4988100000000 1.0
C      1  0.4129660000000  0.4944270000000  0.5106710000000 1.0
C      1  0.5063310000000  0.4152320000000  0.4988250000000 1.0
C      1  0.5868530000000  0.5057940000000  0.5106540000000 1.0
C      1  0.3991960000000  0.5532890000000  0.5955980000000 1.0
C      1  0.4530010000000  0.3973340000000  0.4035890000000 1.0
C      1  0.6006390000000  0.4469480000000  0.5955900000000 1.0
C      1  0.5467980000000  0.6028660000000  0.4035600000000 1.0
C      1  0.4999050000000  0.5001050000000  0.4578520000000 1.0
C      1  0.4999100000000  0.5001100000000  0.5106170000000 1.0
END
