TITL C-3623283-6828-815 44560055.5786084 125000 -960.010317614613 0 0 166 (C1) n - 1
REM
REM in /home/nfs/bkarasulu/CARBON/AIRSS/Generating-Clusters/LCBOP/Higher-Symm/SD-CG/FIRE-CG
REM
REM
REM
REM
REM
REM ./C.cell (b20cbc046b6831c77cfcea5457e17084)
REM AIRSS Version 0.9.1 bugfix July 2018 build 013d7b7c2542+ Fri, 06 Jul 2018 19:26:36 +0100
REM compiler GCC version 9.2.1 20190827 (Red Hat 9.2.1-1)
REM options -cpp -mtune=generic -march=x86-64 -g -O0 -fpre-include=/usr/include/finclude/math-vector-fortran.h
REM seed 319666450 -721115306 -419483380 -664732014 591015881 -940742080 -1217025029 -676398940 -1262126408 -599378426 -1669531526 1470977757 1271100351 1868499765 1512346648 125099883 -926366867 -335148543 1556504968 -913041259 -1170657158 -337792007 -1487465325 -619881155 -124656904 -1487659689 190342287 74650208 2123022151 803659935 -2115905352 -1217353713 684333807
REM
CELL 1.54180   50.00000   50.00000   50.00000   90.00000   90.00000   90.00000
LATT -1
SFAC C  
C      1  0.5091830000000  0.4233490000000  0.4417720000000 1.0
C      1  0.5079610000000  0.4970770000000  0.4045090000000 1.0
C      1  0.5085810000000  0.5725660000000  0.4381060000000 1.0
C      1  0.5117550000000  0.5956570000000  0.5177870000000 1.0
C      1  0.5068130000000  0.5483380000000  0.5834510000000 1.0
C      1  0.5070090000000  0.4592490000000  0.5866210000000 1.0
C      1  0.5094780000000  0.4064080000000  0.5228050000000 1.0
C      1  0.5976590000000  0.4528410000000  0.5480980000000 1.0
C      1  0.5984490000000  0.4331010000000  0.4930510000000 1.0
C      1  0.5977600000000  0.4632210000000  0.4432190000000 1.0
C      1  0.5972870000000  0.5206050000000  0.4359620000000 1.0
C      1  0.5970730000000  0.5621560000000  0.4762800000000 1.0
C      1  0.5982070000000  0.5555180000000  0.5339750000000 1.0
C      1  0.5959270000000  0.5079100000000  0.5674340000000 1.0
C      1  0.5969470000000  0.4929730000000  0.4459920000000 1.0
C      1  0.5967070000000  0.5368240000000  0.4610510000000 1.0
C      1  0.5968810000000  0.5525270000000  0.5045630000000 1.0
C      1  0.5965600000000  0.5281080000000  0.5453410000000 1.0
C      1  0.5958930000000  0.4821100000000  0.5522900000000 1.0
C      1  0.5975820000000  0.4490300000000  0.5182540000000 1.0
C      1  0.5975140000000  0.4538350000000  0.4713730000000 1.0
C      1  0.4099110000000  0.5530830000000  0.4807110000000 1.0
C      1  0.4060890000000  0.5451000000000  0.5292570000000 1.0
C      1  0.4039540000000  0.5018140000000  0.5547730000000 1.0
C      1  0.4081450000000  0.4564650000000  0.5394060000000 1.0
C      1  0.4080840000000  0.4389720000000  0.4937650000000 1.0
C      1  0.4152830000000  0.4705510000000  0.4566360000000 1.0
C      1  0.4103540000000  0.5185040000000  0.4445240000000 1.0
C      1  0.4775530000000  0.5194370000000  0.4440890000000 1.0
C      1  0.4756170000000  0.5566710000000  0.4805950000000 1.0
C      1  0.4753620000000  0.5611350000000  0.5407400000000 1.0
C      1  0.4721450000000  0.4972910000000  0.5560990000000 1.0
C      1  0.4785400000000  0.4503760000000  0.5405460000000 1.0
C      1  0.4787120000000  0.4392490000000  0.4896410000000 1.0
C      1  0.4776550000000  0.4692350000000  0.4493680000000 1.0
C      1  0.5221290000000  0.4959800000000  0.5574340000000 1.0
C      1  0.5255040000000  0.4518570000000  0.5330730000000 1.0
C      1  0.5253450000000  0.4443190000000  0.4838010000000 1.0
C      1  0.5242600000000  0.4779100000000  0.4473270000000 1.0
C      1  0.5239950000000  0.5271960000000  0.4504830000000 1.0
C      1  0.5236290000000  0.5559850000000  0.4907440000000 1.0
C      1  0.5241890000000  0.5435450000000  0.5384750000000 1.0
C      1  0.4998730000000  0.5498160000000  0.5520000000000 1.0
C      1  0.4973330000000  0.4855840000000  0.5647250000000 1.0
C      1  0.5018220000000  0.4362380000000  0.5318920000000 1.0
C      1  0.5012190000000  0.4356690000000  0.4721500000000 1.0
C      1  0.4998240000000  0.4803370000000  0.4346430000000 1.0
C      1  0.4995760000000  0.5382170000000  0.4441730000000 1.0
C      1  0.4990820000000  0.5674120000000  0.4954940000000 1.0
C      1  0.4412690000000  0.5325340000000  0.5607500000000 1.0
C      1  0.4418800000000  0.4669830000000  0.5767100000000 1.0
C      1  0.4443830000000  0.4195710000000  0.5244440000000 1.0
C      1  0.4444480000000  0.4297080000000  0.4560700000000 1.0
C      1  0.4449890000000  0.4902410000000  0.4180150000000 1.0
C      1  0.4444220000000  0.5587160000000  0.4410670000000 1.0
C      1  0.4440550000000  0.5859970000000  0.5082980000000 1.0
C      1  0.3926670000000  0.5111860000000  0.4676140000000 1.0
C      1  0.3897290000000  0.5317800000000  0.4868570000000 1.0
C      1  0.3875910000000  0.5253400000000  0.5150650000000 1.0
C      1  0.3860000000000  0.4994690000000  0.5301300000000 1.0
C      1  0.3858880000000  0.4707180000000  0.5239430000000 1.0
C      1  0.3833460000000  0.4539640000000  0.5003640000000 1.0
C      1  0.4054800000000  0.4878440000000  0.4776270000000 1.0
C      1  0.4604070000000  0.4186480000000  0.4993390000000 1.0
C      1  0.4597220000000  0.4489900000000  0.4386030000000 1.0
C      1  0.4598560000000  0.5159530000000  0.4213860000000 1.0
C      1  0.4594350000000  0.5733300000000  0.4627170000000 1.0
C      1  0.4612790000000  0.5863910000000  0.5334010000000 1.0
C      1  0.4560330000000  0.5130370000000  0.5745830000000 1.0
C      1  0.4595670000000  0.4457440000000  0.5629760000000 1.0
C      1  0.5503940000000  0.5662760000000  0.4973530000000 1.0
C      1  0.5507070000000  0.5441040000000  0.5512040000000 1.0
C      1  0.5488620000000  0.4862510000000  0.5659620000000 1.0
C      1  0.5519250000000  0.4389280000000  0.5309710000000 1.0
C      1  0.5518200000000  0.4376770000000  0.4725010000000 1.0
C      1  0.5508430000000  0.4820850000000  0.4350680000000 1.0
C      1  0.5507210000000  0.5388220000000  0.4456490000000 1.0
C      1  0.5417000000000  0.5933060000000  0.5071320000000 1.0
C      1  0.5410760000000  0.5526650000000  0.5789320000000 1.0
C      1  0.5392890000000  0.4688240000000  0.5883820000000 1.0
C      1  0.5410360000000  0.4091830000000  0.5300900000000 1.0
C      1  0.5406700000000  0.4195470000000  0.4486190000000 1.0
C      1  0.5400610000000  0.4891370000000  0.4059980000000 1.0
C      1  0.5403440000000  0.5659850000000  0.4326700000000 1.0
C      1  0.5528470000000  0.4366720000000  0.4229870000000 1.0
C      1  0.5522000000000  0.5193140000000  0.4028470000000 1.0
C      1  0.5537950000000  0.5878580000000  0.4546620000000 1.0
C      1  0.5577900000000  0.5901520000000  0.5410300000000 1.0
C      1  0.5515900000000  0.5234050000000  0.5961310000000 1.0
C      1  0.5527640000000  0.4379710000000  0.5773050000000 1.0
C      1  0.5533280000000  0.4001080000000  0.5006530000000 1.0
C      1  0.5324870000000  0.4508500000000  0.4065400000000 1.0
C      1  0.5320840000000  0.5411240000000  0.4029390000000 1.0
C      1  0.5341350000000  0.6009880000000  0.4719770000000 1.0
C      1  0.5381550000000  0.5868660000000  0.5613730000000 1.0
C      1  0.5303510000000  0.5048400000000  0.6028460000000 1.0
C      1  0.5328840000000  0.4187360000000  0.5675690000000 1.0
C      1  0.5330950000000  0.3961080000000  0.4790260000000 1.0
C      1  0.4139970000000  0.5296030000000  0.5541410000000 1.0
C      1  0.4172550000000  0.4745920000000  0.5611000000000 1.0
C      1  0.4205550000000  0.4359150000000  0.5213780000000 1.0
C      1  0.4207100000000  0.4436120000000  0.4673940000000 1.0
C      1  0.4213810000000  0.4911090000000  0.4353410000000 1.0
C      1  0.4205500000000  0.5457230000000  0.4525990000000 1.0
C      1  0.4202160000000  0.5647740000000  0.5073720000000 1.0
C      1  0.4546790000000  0.4941960000000  0.5957310000000 1.0
C      1  0.4561750000000  0.4174900000000  0.5581280000000 1.0
C      1  0.4561980000000  0.4057080000000  0.4731590000000 1.0
C      1  0.4561950000000  0.4614550000000  0.4120280000000 1.0
C      1  0.4561640000000  0.5446820000000  0.4154000000000 1.0
C      1  0.4568690000000  0.5963630000000  0.4809880000000 1.0
C      1  0.4668630000000  0.6029130000000  0.5563080000000 1.0
C      1  0.4666900000000  0.4671080000000  0.5219850000000 1.0
C      1  0.4693740000000  0.4653160000000  0.4947070000000 1.0
C      1  0.4680900000000  0.4825180000000  0.4725610000000 1.0
C      1  0.4660560000000  0.5108300000000  0.4685000000000 1.0
C      1  0.4604930000000  0.5330490000000  0.4854970000000 1.0
C      1  0.4550700000000  0.5423520000000  0.5380970000000 1.0
C      1  0.4551040000000  0.4878680000000  0.5349010000000 1.0
C      1  0.4813890000000  0.4952970000000  0.6083690000000 1.0
C      1  0.4834770000000  0.4070720000000  0.5646100000000 1.0
C      1  0.4831190000000  0.3925080000000  0.4691630000000 1.0
C      1  0.4825860000000  0.4562090000000  0.3986780000000 1.0
C      1  0.4825570000000  0.5517800000000  0.4028660000000 1.0
C      1  0.4845850000000  0.6087690000000  0.4791910000000 1.0
C      1  0.4912000000000  0.5960300000000  0.5700420000000 1.0
C      1  0.4939210000000  0.5754430000000  0.5911570000000 1.0
C      1  0.4925140000000  0.4684930000000  0.6107300000000 1.0
C      1  0.4942090000000  0.3905740000000  0.5434100000000 1.0
C      1  0.4936050000000  0.3977030000000  0.4427550000000 1.0
C      1  0.4926250000000  0.4799860000000  0.3858400000000 1.0
C      1  0.4929190000000  0.5765110000000  0.4133330000000 1.0
C      1  0.4956620000000  0.6165550000000  0.5047500000000 1.0
C      1  0.5685090000000  0.5205310000000  0.5317170000000 1.0
C      1  0.5680910000000  0.4874940000000  0.5366650000000 1.0
C      1  0.5691380000000  0.4634760000000  0.5134450000000 1.0
C      1  0.5691740000000  0.4665440000000  0.4803330000000 1.0
C      1  0.5687190000000  0.4939970000000  0.4621180000000 1.0
C      1  0.5685050000000  0.5252520000000  0.4718830000000 1.0
C      1  0.5685710000000  0.5371200000000  0.5026830000000 1.0
C      1  0.5132890000000  0.5958740000000  0.5519690000000 1.0
C      1  0.5033650000000  0.5163640000000  0.6011250000000 1.0
C      1  0.5055060000000  0.4253110000000  0.5759180000000 1.0
C      1  0.5058620000000  0.3942210000000  0.4896770000000 1.0
C      1  0.5054120000000  0.4414070000000  0.4121600000000 1.0
C      1  0.5049510000000  0.5316260000000  0.3996580000000 1.0
C      1  0.5065920000000  0.5976950000000  0.4615050000000 1.0
C      1  0.5233620000000  0.4873760000000  0.4728200000000 1.0
C      1  0.5231740000000  0.5135670000000  0.4739800000000 1.0
C      1  0.5237210000000  0.5291830000000  0.4950180000000 1.0
C      1  0.5261450000000  0.5229730000000  0.5205760000000 1.0
C      1  0.5253910000000  0.4984260000000  0.5304970000000 1.0
C      1  0.5247020000000  0.4748080000000  0.5184470000000 1.0
C      1  0.5239970000000  0.4700390000000  0.4925400000000 1.0
C      1  0.5733020000000  0.5775600000000  0.4711250000000 1.0
C      1  0.5757110000000  0.5703630000000  0.5433280000000 1.0
C      1  0.5715480000000  0.5095560000000  0.5832400000000 1.0
C      1  0.5719850000000  0.4398460000000  0.5568210000000 1.0
C      1  0.5724630000000  0.4181500000000  0.4886760000000 1.0
C      1  0.5717890000000  0.4572060000000  0.4294440000000 1.0
C      1  0.5712990000000  0.5275430000000  0.4228260000000 1.0
C      1  0.4393990000000  0.5032850000000  0.5174930000000 1.0
C      1  0.4839240000000  0.5148130000000  0.5172290000000 1.0
C      1  0.4218600000000  0.4919490000000  0.4996980000000 1.0
C      1  0.4944280000000  0.4990680000000  0.5015150000000 1.0
C      1  0.4566200000000  0.5267270000000  0.5134470000000 1.0
END
