TITL C-3623287-7182-266 -16985.2637730413 125000 -788.088741801335 0 0 127 (C1) n - 1
REM
REM in /home/nfs/bkarasulu/CARBON/AIRSS/Generating-Clusters/LCBOP/Higher-Symm/SD-CG/FIRE-CG
REM
REM
REM
REM
REM
REM ./C.cell (b20cbc046b6831c77cfcea5457e17084)
REM AIRSS Version 0.9.1 bugfix July 2018 build 013d7b7c2542+ Fri, 06 Jul 2018 19:26:36 +0100
REM compiler GCC version 9.2.1 20190827 (Red Hat 9.2.1-1)
REM options -cpp -mtune=generic -march=x86-64 -g -O0 -fpre-include=/usr/include/finclude/math-vector-fortran.h
REM seed 821460723 661457470 1618543011 1091208776 635370516 -538015114 567019280 1355653064 853076980 -532679275 -1713953478 506987382 32070323 1999175297 1044899053 254233550 -2135687496 1894263292 -1563884033 -570776248 1528386723 226177648 -1707504615 536463098 -1265726011 -243646850 -635608373 1808052298 267926338 -455071750 -579542378 -918313728 -2029341935
REM
CELL 1.54180   50.00000   50.00000   50.00000   90.00000   90.00000   90.00000
LATT -1
SFAC C  
C      1  0.4134980000000  0.4963940000000  0.4310640000000 1.0
C      1  0.4178260000000  0.4344100000000  0.5022180000000 1.0
C      1  0.4188030000000  0.4329330000000  0.5590130000000 1.0
C      1  0.4060960000000  0.5522850000000  0.5912910000000 1.0
C      1  0.4122570000000  0.5545810000000  0.4976840000000 1.0
C      1  0.4205070000000  0.5700650000000  0.3863690000000 1.0
C      1  0.5877530000000  0.4743570000000  0.5995190000000 1.0
C      1  0.5890570000000  0.4345240000000  0.4822920000000 1.0
C      1  0.5780370000000  0.4272780000000  0.4144270000000 1.0
C      1  0.5874420000000  0.5298900000000  0.4572550000000 1.0
C      1  0.5854360000000  0.5959690000000  0.4833170000000 1.0
C      1  0.5841260000000  0.5309330000000  0.5580910000000 1.0
C      1  0.5453850000000  0.4254380000000  0.4719070000000 1.0
C      1  0.5536940000000  0.4586150000000  0.5719530000000 1.0
C      1  0.5451560000000  0.5200240000000  0.5791450000000 1.0
C      1  0.5463000000000  0.5807630000000  0.5033800000000 1.0
C      1  0.5530480000000  0.5563070000000  0.4442480000000 1.0
C      1  0.5458900000000  0.4598810000000  0.4218190000000 1.0
C      1  0.4595030000000  0.4080790000000  0.5274670000000 1.0
C      1  0.4490680000000  0.4653210000000  0.4438460000000 1.0
C      1  0.4593560000000  0.5298340000000  0.4324700000000 1.0
C      1  0.4472130000000  0.5749840000000  0.4766480000000 1.0
C      1  0.4462760000000  0.5546030000000  0.5677960000000 1.0
C      1  0.4539250000000  0.4625240000000  0.5673570000000 1.0
C      1  0.4924640000000  0.4533060000000  0.5316140000000 1.0
C      1  0.4799990000000  0.5007370000000  0.5539140000000 1.0
C      1  0.4806030000000  0.5442440000000  0.5276870000000 1.0
C      1  0.4850440000000  0.5475610000000  0.4738290000000 1.0
C      1  0.4923540000000  0.4992160000000  0.4497490000000 1.0
C      1  0.4753830000000  0.4525350000000  0.4806620000000 1.0
C      1  0.5064450000000  0.4514000000000  0.4794410000000 1.0
C      1  0.5201750000000  0.4920680000000  0.4485020000000 1.0
C      1  0.5132360000000  0.5434970000000  0.4690410000000 1.0
C      1  0.5083380000000  0.5481860000000  0.5191990000000 1.0
C      1  0.5087210000000  0.5045160000000  0.5538000000000 1.0
C      1  0.5208200000000  0.4589900000000  0.5363030000000 1.0
C      1  0.4815760000000  0.5013160000000  0.4752770000000 1.0
C      1  0.4577600000000  0.4602690000000  0.5022230000000 1.0
C      1  0.4765350000000  0.4760170000000  0.5179030000000 1.0
C      1  0.4656250000000  0.5004000000000  0.5299180000000 1.0
C      1  0.4649020000000  0.5244850000000  0.5141270000000 1.0
C      1  0.4664570000000  0.5250170000000  0.4832130000000 1.0
C      1  0.5254860000000  0.5048660000000  0.5301370000000 1.0
C      1  0.5305320000000  0.4788360000000  0.5193400000000 1.0
C      1  0.5193100000000  0.4759040000000  0.4920230000000 1.0
C      1  0.5318310000000  0.4964800000000  0.4737910000000 1.0
C      1  0.5284020000000  0.5236110000000  0.4839560000000 1.0
C      1  0.5249880000000  0.5266030000000  0.5122120000000 1.0
C      1  0.5704010000000  0.5080030000000  0.5690710000000 1.0
C      1  0.5712300000000  0.5707690000000  0.4885900000000 1.0
C      1  0.5719070000000  0.5525420000000  0.4666530000000 1.0
C      1  0.5702370000000  0.4471970000000  0.4344040000000 1.0
C      1  0.5697740000000  0.4383390000000  0.4611830000000 1.0
C      1  0.5753430000000  0.4803420000000  0.5735570000000 1.0
C      1  0.4426290000000  0.5254480000000  0.4620550000000 1.0
C      1  0.4280350000000  0.5515020000000  0.4732650000000 1.0
C      1  0.4182490000000  0.5617490000000  0.5681730000000 1.0
C      1  0.4326850000000  0.4552560000000  0.5455890000000 1.0
C      1  0.4339400000000  0.4533380000000  0.5162930000000 1.0
C      1  0.4306950000000  0.4953370000000  0.4539980000000 1.0
C      1  0.4233030000000  0.5736250000000  0.5149900000000 1.0
C      1  0.4415050000000  0.5610440000000  0.3988950000000 1.0
C      1  0.4244310000000  0.4838820000000  0.4088870000000 1.0
C      1  0.4279170000000  0.4111810000000  0.4920520000000 1.0
C      1  0.4354700000000  0.4210440000000  0.5776530000000 1.0
C      1  0.4248050000000  0.5388920000000  0.6068370000000 1.0
C      1  0.5672930000000  0.6167630000000  0.4814530000000 1.0
C      1  0.5690590000000  0.5541560000000  0.5605230000000 1.0
C      1  0.5690510000000  0.4621660000000  0.6159170000000 1.0
C      1  0.5781120000000  0.4207000000000  0.5036940000000 1.0
C      1  0.5558240000000  0.4202390000000  0.3994510000000 1.0
C      1  0.5785530000000  0.5203680000000  0.4325710000000 1.0
C      1  0.5553450000000  0.5348380000000  0.4229320000000 1.0
C      1  0.5336370000000  0.4367790000000  0.4072700000000 1.0
C      1  0.5500710000000  0.4148400000000  0.4993940000000 1.0
C      1  0.5451530000000  0.4571280000000  0.6007440000000 1.0
C      1  0.5430690000000  0.5490370000000  0.5724590000000 1.0
C      1  0.5411740000000  0.6074160000000  0.4885350000000 1.0
C      1  0.4505300000000  0.5392110000000  0.5937830000000 1.0
C      1  0.4602460000000  0.4356460000000  0.5795600000000 1.0
C      1  0.4536870000000  0.4022350000000  0.4996680000000 1.0
C      1  0.4489210000000  0.4698110000000  0.4146880000000 1.0
C      1  0.4615800000000  0.5525250000000  0.4160520000000 1.0
C      1  0.4478470000000  0.5855650000000  0.5045890000000 1.0
C      1  0.5084550000000  0.4897320000000  0.5999050000000 1.0
C      1  0.5119460000000  0.5835460000000  0.5490180000000 1.0
C      1  0.5115260000000  0.5900960000000  0.4538050000000 1.0
C      1  0.5187850000000  0.5029010000000  0.4049350000000 1.0
C      1  0.5027150000000  0.4217130000000  0.4419280000000 1.0
C      1  0.5286490000000  0.4165500000000  0.5474120000000 1.0
C      1  0.4891070000000  0.4966360000000  0.4038740000000 1.0
C      1  0.4849050000000  0.5844610000000  0.4431670000000 1.0
C      1  0.4813220000000  0.5869560000000  0.5454390000000 1.0
C      1  0.4809850000000  0.4999740000000  0.5981830000000 1.0
C      1  0.5003320000000  0.4150600000000  0.5578810000000 1.0
C      1  0.4767150000000  0.4171560000000  0.4551130000000 1.0
C      1  0.4627180000000  0.4435750000000  0.4568590000000 1.0
C      1  0.4853580000000  0.4225030000000  0.5317500000000 1.0
C      1  0.4676480000000  0.4865040000000  0.5755730000000 1.0
C      1  0.4723410000000  0.5585440000000  0.5536790000000 1.0
C      1  0.4716950000000  0.5712360000000  0.4645220000000 1.0
C      1  0.4785010000000  0.5097030000000  0.4276240000000 1.0
C      1  0.5385880000000  0.4437990000000  0.5526960000000 1.0
C      1  0.5198130000000  0.4323870000000  0.4629480000000 1.0
C      1  0.5316760000000  0.4841500000000  0.4237440000000 1.0
C      1  0.5248100000000  0.5627430000000  0.4483090000000 1.0
C      1  0.5199050000000  0.5761600000000  0.5194820000000 1.0
C      1  0.5222440000000  0.5041790000000  0.5789940000000 1.0
C      1  0.4790730000000  0.4047460000000  0.4837560000000 1.0
C      1  0.4873310000000  0.4268290000000  0.5814010000000 1.0
C      1  0.4777800000000  0.5297050000000  0.5954240000000 1.0
C      1  0.4730510000000  0.5936530000000  0.5172280000000 1.0
C      1  0.4859830000000  0.5668490000000  0.4199530000000 1.0
C      1  0.4745620000000  0.4710080000000  0.4013950000000 1.0
C      1  0.5288080000000  0.4094560000000  0.5174950000000 1.0
C      1  0.5069880000000  0.4310910000000  0.4148740000000 1.0
C      1  0.5287840000000  0.5305560000000  0.4100310000000 1.0
C      1  0.5142090000000  0.6034740000000  0.4791090000000 1.0
C      1  0.5180320000000  0.5624810000000  0.5694510000000 1.0
C      1  0.5177420000000  0.4627740000000  0.6052000000000 1.0
C      1  0.5008890000000  0.4100540000000  0.5065700000000 1.0
C      1  0.4988820000000  0.5941420000000  0.5026670000000 1.0
C      1  0.5118780000000  0.5529250000000  0.4203030000000 1.0
C      1  0.5014870000000  0.4400690000000  0.6018070000000 1.0
C      1  0.4879150000000  0.4461730000000  0.4005720000000 1.0
C      1  0.4926300000000  0.5485670000000  0.5766750000000 1.0
C      1  0.4931610000000  0.4890210000000  0.4970210000000 1.0
END
