TITL C-3623284-6838-1850 -168807.535901747 125000 -755.016727802577 0 0 124 (C1) n - 1
REM
REM in /home/nfs/bkarasulu/CARBON/AIRSS/Generating-Clusters/LCBOP/Higher-Symm/SD-CG/FIRE-CG
REM
REM
REM
REM
REM
REM ./C.cell (b20cbc046b6831c77cfcea5457e17084)
REM AIRSS Version 0.9.1 bugfix July 2018 build 013d7b7c2542+ Fri, 06 Jul 2018 19:26:36 +0100
REM compiler GCC version 9.2.1 20190827 (Red Hat 9.2.1-1)
REM options -cpp -mtune=generic -march=x86-64 -g -O0 -fpre-include=/usr/include/finclude/math-vector-fortran.h
REM seed -646484803 -451384723 2033754933 -1808304573 709118327 43108725 -697574879 55283666 -234118890 2082676569 1163924277 796817069 1548322275 -1867201734 1770564692 1542359323 -1266729811 875405726 -1681654839 537686349 1405366832 -253425448 662872009 -474940854 308717768 1371961098 883949622 762918684 -507205356 1978849646 1315978182 1045359493 84110716
REM
CELL 1.54180   50.00000   50.00000   50.00000   90.00000   90.00000   90.00000
LATT -1
SFAC C  
C      1  0.5808600000000  0.4599830000000  0.5420640000000 1.0
C      1  0.4155730000000  0.4587160000000  0.4595110000000 1.0
C      1  0.5162220000000  0.4930050000000  0.5290380000000 1.0
C      1  0.4793170000000  0.4841030000000  0.4694120000000 1.0
C      1  0.4972100000000  0.3866350000000  0.5145580000000 1.0
C      1  0.5083920000000  0.3877840000000  0.4894790000000 1.0
C      1  0.5693580000000  0.4576440000000  0.5687760000000 1.0
C      1  0.4242630000000  0.4569650000000  0.4315380000000 1.0
C      1  0.4767930000000  0.4460780000000  0.5104030000000 1.0
C      1  0.5206170000000  0.4520050000000  0.4884280000000 1.0
C      1  0.5760920000000  0.5248550000000  0.4752270000000 1.0
C      1  0.4258410000000  0.5226250000000  0.5248670000000 1.0
C      1  0.5182370000000  0.4244270000000  0.4524090000000 1.0
C      1  0.4852130000000  0.4234320000000  0.5489580000000 1.0
C      1  0.4221780000000  0.4528720000000  0.5373630000000 1.0
C      1  0.5798850000000  0.4552160000000  0.4647700000000 1.0
C      1  0.4584330000000  0.6069370000000  0.5171280000000 1.0
C      1  0.5482100000000  0.6124010000000  0.4884800000000 1.0
C      1  0.4679050000000  0.4713630000000  0.5184450000000 1.0
C      1  0.5273250000000  0.4785890000000  0.4827100000000 1.0
C      1  0.4170200000000  0.4466420000000  0.5093670000000 1.0
C      1  0.5836040000000  0.4505410000000  0.4926810000000 1.0
C      1  0.5460020000000  0.5321110000000  0.4765980000000 1.0
C      1  0.4554280000000  0.5277350000000  0.5182860000000 1.0
C      1  0.5728290000000  0.4454090000000  0.5187210000000 1.0
C      1  0.4257340000000  0.4430360000000  0.4817150000000 1.0
C      1  0.4296990000000  0.5288600000000  0.4453160000000 1.0
C      1  0.5660460000000  0.5298440000000  0.5535700000000 1.0
C      1  0.5178500000000  0.3979200000000  0.4655110000000 1.0
C      1  0.4873810000000  0.3958260000000  0.5388800000000 1.0
C      1  0.4155490000000  0.5487690000000  0.5094340000000 1.0
C      1  0.5861420000000  0.5505630000000  0.4938460000000 1.0
C      1  0.5236840000000  0.4395370000000  0.5140740000000 1.0
C      1  0.4755630000000  0.4364070000000  0.4836430000000 1.0
C      1  0.5741730000000  0.5036170000000  0.5596660000000 1.0
C      1  0.4187770000000  0.5030710000000  0.4410310000000 1.0
C      1  0.5791980000000  0.5640140000000  0.5204700000000 1.0
C      1  0.4259320000000  0.5616140000000  0.4838780000000 1.0
C      1  0.5304120000000  0.5428140000000  0.4054440000000 1.0
C      1  0.4727090000000  0.5425130000000  0.5932630000000 1.0
C      1  0.4724120000000  0.5320380000000  0.4694160000000 1.0
C      1  0.5251020000000  0.5494970000000  0.5180370000000 1.0
C      1  0.4798260000000  0.5385410000000  0.5323230000000 1.0
C      1  0.5205170000000  0.5363320000000  0.4612080000000 1.0
C      1  0.5423970000000  0.5941760000000  0.5075560000000 1.0
C      1  0.4679190000000  0.5901570000000  0.4978690000000 1.0
C      1  0.4448600000000  0.4817870000000  0.5053770000000 1.0
C      1  0.5506290000000  0.4884810000000  0.4960740000000 1.0
C      1  0.4474130000000  0.4081320000000  0.4551800000000 1.0
C      1  0.5502730000000  0.4092490000000  0.5417420000000 1.0
C      1  0.5343350000000  0.5614020000000  0.5709070000000 1.0
C      1  0.4665240000000  0.5588680000000  0.4310020000000 1.0
C      1  0.4627360000000  0.4395480000000  0.5617820000000 1.0
C      1  0.5409570000000  0.4403590000000  0.4399060000000 1.0
C      1  0.5324590000000  0.5844990000000  0.5548240000000 1.0
C      1  0.4700150000000  0.5776830000000  0.4529080000000 1.0
C      1  0.5368670000000  0.4904460000000  0.4143210000000 1.0
C      1  0.4681440000000  0.4917690000000  0.5836400000000 1.0
C      1  0.4986510000000  0.5803320000000  0.4622230000000 1.0
C      1  0.5060220000000  0.5846010000000  0.5411570000000 1.0
C      1  0.4809670000000  0.5567140000000  0.4069630000000 1.0
C      1  0.5216820000000  0.5560740000000  0.5951810000000 1.0
C      1  0.4991880000000  0.5373460000000  0.5099110000000 1.0
C      1  0.4998900000000  0.5271360000000  0.4810810000000 1.0
C      1  0.5386820000000  0.5624380000000  0.4270980000000 1.0
C      1  0.4642180000000  0.5620070000000  0.5718970000000 1.0
C      1  0.5418170000000  0.5309700000000  0.5051860000000 1.0
C      1  0.4568830000000  0.5209460000000  0.4898470000000 1.0
C      1  0.4349180000000  0.4868540000000  0.3939320000000 1.0
C      1  0.5540000000000  0.4867250000000  0.6051790000000 1.0
C      1  0.5485490000000  0.5173420000000  0.4080270000000 1.0
C      1  0.4553010000000  0.5173970000000  0.5912270000000 1.0
C      1  0.5548060000000  0.4115260000000  0.5681690000000 1.0
C      1  0.4400960000000  0.4111520000000  0.4295130000000 1.0
C      1  0.4154100000000  0.5483210000000  0.4604550000000 1.0
C      1  0.5858000000000  0.5470930000000  0.5426090000000 1.0
C      1  0.5040510000000  0.5477380000000  0.3960220000000 1.0
C      1  0.4981160000000  0.5470550000000  0.6044510000000 1.0
C      1  0.5665550000000  0.5547260000000  0.4307750000000 1.0
C      1  0.4363760000000  0.5541050000000  0.5684640000000 1.0
C      1  0.5102160000000  0.5192920000000  0.4381750000000 1.0
C      1  0.4913180000000  0.5199080000000  0.5534500000000 1.0
C      1  0.5651080000000  0.4849710000000  0.5794150000000 1.0
C      1  0.4261850000000  0.4843710000000  0.4205440000000 1.0
C      1  0.4560620000000  0.4931430000000  0.4820190000000 1.0
C      1  0.5384690000000  0.5045480000000  0.5165480000000 1.0
C      1  0.4331360000000  0.4346180000000  0.4159210000000 1.0
C      1  0.5597820000000  0.4347470000000  0.5830520000000 1.0
C      1  0.5707830000000  0.5263000000000  0.4256140000000 1.0
C      1  0.4325620000000  0.5258120000000  0.5743220000000 1.0
C      1  0.5164800000000  0.5795910000000  0.5122770000000 1.0
C      1  0.4959130000000  0.5855730000000  0.4911780000000 1.0
C      1  0.5770590000000  0.5003440000000  0.4933090000000 1.0
C      1  0.4203200000000  0.4975630000000  0.5085030000000 1.0
C      1  0.5722760000000  0.4796510000000  0.4480140000000 1.0
C      1  0.4305360000000  0.4782800000000  0.5534350000000 1.0
C      1  0.5484850000000  0.4695460000000  0.4307970000000 1.0
C      1  0.4556260000000  0.4692850000000  0.5697780000000 1.0
C      1  0.4819010000000  0.5662780000000  0.5482330000000 1.0
C      1  0.5199030000000  0.5647720000000  0.4499350000000 1.0
C      1  0.4413330000000  0.4652790000000  0.3787290000000 1.0
C      1  0.5472960000000  0.4646750000000  0.6195780000000 1.0
C      1  0.5489010000000  0.4296710000000  0.5223240000000 1.0
C      1  0.4498080000000  0.4276600000000  0.4752960000000 1.0
C      1  0.4363410000000  0.4313040000000  0.5513980000000 1.0
C      1  0.5669020000000  0.4327480000000  0.4514720000000 1.0
C      1  0.4506960000000  0.5780110000000  0.4774450000000 1.0
C      1  0.5584150000000  0.5842340000000  0.5285360000000 1.0
C      1  0.4925590000000  0.5006730000000  0.5721230000000 1.0
C      1  0.5106590000000  0.4975050000000  0.4225550000000 1.0
C      1  0.5505900000000  0.4396940000000  0.6093850000000 1.0
C      1  0.4398300000000  0.4401490000000  0.3889450000000 1.0
C      1  0.4985090000000  0.4373670000000  0.5272990000000 1.0
C      1  0.5013300000000  0.4395100000000  0.4706590000000 1.0
C      1  0.4072430000000  0.4867700000000  0.4626190000000 1.0
C      1  0.5883430000000  0.4879580000000  0.5393980000000 1.0
C      1  0.4010400000000  0.4959910000000  0.4882380000000 1.0
C      1  0.5954790000000  0.4974440000000  0.5141830000000 1.0
C      1  0.4579650000000  0.5352490000000  0.4446280000000 1.0
C      1  0.5400450000000  0.5413910000000  0.5521680000000 1.0
C      1  0.5779240000000  0.5095020000000  0.4478470000000 1.0
C      1  0.4253200000000  0.5084530000000  0.5528050000000 1.0
C      1  0.4901270000000  0.4864810000000  0.5278400000000 1.0
C      1  0.5042060000000  0.4956460000000  0.4776190000000 1.0
END
