TITL C-3623283-6828-1090 1.65421284846435e-06 125000 -1133.07765179091 0 0 184 (C1) n - 1
REM
REM in /home/nfs/bkarasulu/CARBON/AIRSS/Generating-Clusters/LCBOP/Higher-Symm/SD-CG/FIRE-CG
REM
REM
REM
REM
REM
REM ./C.cell (b20cbc046b6831c77cfcea5457e17084)
REM AIRSS Version 0.9.1 bugfix July 2018 build 013d7b7c2542+ Fri, 06 Jul 2018 19:26:36 +0100
REM compiler GCC version 9.2.1 20190827 (Red Hat 9.2.1-1)
REM options -cpp -mtune=generic -march=x86-64 -g -O0 -fpre-include=/usr/include/finclude/math-vector-fortran.h
REM seed -1823123337 1521132153 -139586242 838303462 2135709058 1128933192 -318291985 667912345 1778345833 458274659 318014920 741506751 700859442 1468666502 -1647236476 1842487468 -655282965 2089437618 1174222824 992068915 45875770 -2107608118 -1885392320 -1510018304 366618915 -1438254792 596390879 1470234633 -1601741916 -704192043 -780097324 1530633646 1290326016
REM
CELL 1.54180   50.00000   50.00000   50.00000   90.00000   90.00000   90.00000
LATT -1
SFAC C  
C      1  0.5039030000000  0.4847780000000  0.5877240000000 1.0
C      1  0.5023820000000  0.4113770000000  0.5114090000000 1.0
C      1  0.5022410000000  0.4609490000000  0.4181230000000 1.0
C      1  0.5023600000000  0.5658930000000  0.4359490000000 1.0
C      1  0.5031850000000  0.5806010000000  0.5416710000000 1.0
C      1  0.4963530000000  0.5154390000000  0.5887160000000 1.0
C      1  0.4956770000000  0.5907420000000  0.5127390000000 1.0
C      1  0.4948880000000  0.5414460000000  0.4173610000000 1.0
C      1  0.4940250000000  0.4357820000000  0.4354940000000 1.0
C      1  0.4948570000000  0.4200920000000  0.5409470000000 1.0
C      1  0.4825110000000  0.4784440000000  0.4903420000000 1.0
C      1  0.4848280000000  0.5016810000000  0.4748670000000 1.0
C      1  0.4868990000000  0.5236880000000  0.4925350000000 1.0
C      1  0.4856120000000  0.5135280000000  0.5189390000000 1.0
C      1  0.4827650000000  0.4856750000000  0.5173280000000 1.0
C      1  0.5434670000000  0.5233400000000  0.4887110000000 1.0
C      1  0.5444460000000  0.4984710000000  0.4740600000000 1.0
C      1  0.5412440000000  0.4771840000000  0.4927850000000 1.0
C      1  0.5366650000000  0.4886480000000  0.5180840000000 1.0
C      1  0.5389600000000  0.5165770000000  0.5160220000000 1.0
C      1  0.4112850000000  0.5093300000000  0.5665860000000 1.0
C      1  0.4113590000000  0.4394820000000  0.5353590000000 1.0
C      1  0.4106500000000  0.4513390000000  0.4486240000000 1.0
C      1  0.4103200000000  0.5274740000000  0.4373240000000 1.0
C      1  0.4064040000000  0.5716520000000  0.5095880000000 1.0
C      1  0.5967630000000  0.4869380000000  0.5734740000000 1.0
C      1  0.5925450000000  0.5608410000000  0.5314250000000 1.0
C      1  0.5885660000000  0.5518360000000  0.4551100000000 1.0
C      1  0.5878910000000  0.4664530000000  0.4400490000000 1.0
C      1  0.5915440000000  0.4317420000000  0.5090130000000 1.0
C      1  0.4391420000000  0.4397160000000  0.4095750000000 1.0
C      1  0.4370660000000  0.5646750000000  0.4156050000000 1.0
C      1  0.4382320000000  0.6003520000000  0.5357880000000 1.0
C      1  0.4390260000000  0.4952520000000  0.6058830000000 1.0
C      1  0.4385360000000  0.3973060000000  0.5290270000000 1.0
C      1  0.5606230000000  0.5593040000000  0.4127280000000 1.0
C      1  0.5586450000000  0.4338720000000  0.4158330000000 1.0
C      1  0.5605930000000  0.4015830000000  0.5357230000000 1.0
C      1  0.5613270000000  0.5040290000000  0.6057130000000 1.0
C      1  0.5617090000000  0.6016100000000  0.5279980000000 1.0
C      1  0.6136490000000  0.4908330000000  0.5507770000000 1.0
C      1  0.6057300000000  0.4562230000000  0.5086100000000 1.0
C      1  0.6012340000000  0.4807280000000  0.4602210000000 1.0
C      1  0.6015520000000  0.5311800000000  0.4690130000000 1.0
C      1  0.6064380000000  0.5377710000000  0.5227580000000 1.0
C      1  0.4004460000000  0.5075750000000  0.5408520000000 1.0
C      1  0.3922310000000  0.5476600000000  0.5062610000000 1.0
C      1  0.3997880000000  0.5187560000000  0.4617430000000 1.0
C      1  0.4006210000000  0.4668870000000  0.4694380000000 1.0
C      1  0.4012630000000  0.4599010000000  0.5193600000000 1.0
C      1  0.4745010000000  0.5022190000000  0.4491510000000 1.0
C      1  0.4765590000000  0.5483840000000  0.4850870000000 1.0
C      1  0.4759350000000  0.5285180000000  0.5401230000000 1.0
C      1  0.4737400000000  0.4702810000000  0.5383970000000 1.0
C      1  0.4730320000000  0.4538880000000  0.4820990000000 1.0
C      1  0.5325540000000  0.4984070000000  0.4487390000000 1.0
C      1  0.5316920000000  0.4522920000000  0.4850050000000 1.0
C      1  0.5300580000000  0.4727930000000  0.5398040000000 1.0
C      1  0.5318570000000  0.5317280000000  0.5382450000000 1.0
C      1  0.5331780000000  0.5483110000000  0.4812660000000 1.0
C      1  0.4523500000000  0.3929130000000  0.4067460000000 1.0
C      1  0.4486480000000  0.5556020000000  0.3690610000000 1.0
C      1  0.4522500000000  0.6401530000000  0.5113920000000 1.0
C      1  0.4504960000000  0.5312380000000  0.6366460000000 1.0
C      1  0.4527670000000  0.3771860000000  0.5711520000000 1.0
C      1  0.5491580000000  0.6062190000000  0.4057190000000 1.0
C      1  0.5473690000000  0.4455310000000  0.3700010000000 1.0
C      1  0.5485590000000  0.3604770000000  0.5126440000000 1.0
C      1  0.5461530000000  0.4691100000000  0.6360230000000 1.0
C      1  0.5507520000000  0.6206340000000  0.5715190000000 1.0
C      1  0.4394840000000  0.4245580000000  0.5732410000000 1.0
C      1  0.4368530000000  0.4084090000000  0.4509740000000 1.0
C      1  0.4365000000000  0.5164790000000  0.3964620000000 1.0
C      1  0.4366140000000  0.6022040000000  0.4840920000000 1.0
C      1  0.4370550000000  0.5449340000000  0.5911590000000 1.0
C      1  0.5635710000000  0.5729810000000  0.5706720000000 1.0
C      1  0.5612460000000  0.5931000000000  0.4516290000000 1.0
C      1  0.5618680000000  0.4825780000000  0.3993570000000 1.0
C      1  0.5615250000000  0.3989670000000  0.4844720000000 1.0
C      1  0.5622520000000  0.4548040000000  0.5916010000000 1.0
C      1  0.5711400000000  0.4119400000000  0.5096500000000 1.0
C      1  0.5696890000000  0.4613820000000  0.4189620000000 1.0
C      1  0.5700610000000  0.5671460000000  0.4401270000000 1.0
C      1  0.5724320000000  0.5776090000000  0.5425010000000 1.0
C      1  0.5732580000000  0.4824240000000  0.5887940000000 1.0
C      1  0.4274210000000  0.5903580000000  0.5098220000000 1.0
C      1  0.4280790000000  0.5361140000000  0.4172020000000 1.0
C      1  0.4286960000000  0.4333570000000  0.4367330000000 1.0
C      1  0.4298090000000  0.4208160000000  0.5454050000000 1.0
C      1  0.4290740000000  0.5164050000000  0.5872790000000 1.0
C      1  0.4310580000000  0.4879450000000  0.3951630000000 1.0
C      1  0.4303310000000  0.5938810000000  0.4569260000000 1.0
C      1  0.4311160000000  0.5683470000000  0.5748340000000 1.0
C      1  0.4339190000000  0.4466820000000  0.5912990000000 1.0
C      1  0.4308110000000  0.3994720000000  0.4781370000000 1.0
C      1  0.5674660000000  0.5111110000000  0.3991930000000 1.0
C      1  0.5660090000000  0.4063290000000  0.4568220000000 1.0
C      1  0.5671930000000  0.4313370000000  0.5754060000000 1.0
C      1  0.5688340000000  0.5504570000000  0.5880920000000 1.0
C      1  0.5667070000000  0.6036440000000  0.4780030000000 1.0
C      1  0.4689490000000  0.4857630000000  0.5610290000000 1.0
C      1  0.4677010000000  0.4374080000000  0.5038860000000 1.0
C      1  0.4675900000000  0.4768020000000  0.4401250000000 1.0
C      1  0.4687440000000  0.5487470000000  0.4583780000000 1.0
C      1  0.4692850000000  0.5543380000000  0.5321810000000 1.0
C      1  0.5297180000000  0.5156680000000  0.5606550000000 1.0
C      1  0.5289950000000  0.5641680000000  0.5036060000000 1.0
C      1  0.5273200000000  0.5242310000000  0.4406810000000 1.0
C      1  0.5277410000000  0.4516920000000  0.4578630000000 1.0
C      1  0.5283390000000  0.4464370000000  0.5321740000000 1.0
C      1  0.4049840000000  0.5773920000000  0.5762860000000 1.0
C      1  0.4093750000000  0.4457220000000  0.6040330000000 1.0
C      1  0.4048270000000  0.3908870000000  0.4823140000000 1.0
C      1  0.4056830000000  0.4808910000000  0.3867760000000 1.0
C      1  0.4044560000000  0.5988880000000  0.4485400000000 1.0
C      1  0.5925710000000  0.4205380000000  0.5776620000000 1.0
C      1  0.5945250000000  0.5489760000000  0.5982180000000 1.0
C      1  0.5912350000000  0.6159560000000  0.4812030000000 1.0
C      1  0.5935460000000  0.5179430000000  0.3928690000000 1.0
C      1  0.5913870000000  0.4009470000000  0.4471690000000 1.0
C      1  0.4480280000000  0.5814980000000  0.4373380000000 1.0
C      1  0.4490800000000  0.5839940000000  0.5578500000000 1.0
C      1  0.4508100000000  0.4694160000000  0.5979220000000 1.0
C      1  0.4487410000000  0.3976870000000  0.5012110000000 1.0
C      1  0.4492740000000  0.4660570000000  0.4012100000000 1.0
C      1  0.5472600000000  0.4178450000000  0.4376680000000 1.0
C      1  0.5488400000000  0.4171530000000  0.5577890000000 1.0
C      1  0.5502960000000  0.5298460000000  0.5969610000000 1.0
C      1  0.5494230000000  0.6031020000000  0.5012400000000 1.0
C      1  0.5492160000000  0.5335120000000  0.4037420000000 1.0
C      1  0.4425790000000  0.5731100000000  0.3888750000000 1.0
C      1  0.4459380000000  0.6278210000000  0.5347400000000 1.0
C      1  0.4449670000000  0.5050870000000  0.6319810000000 1.0
C      1  0.4455010000000  0.3747350000000  0.5451060000000 1.0
C      1  0.4467550000000  0.4166120000000  0.3947500000000 1.0
C      1  0.5522930000000  0.4268300000000  0.3890040000000 1.0
C      1  0.5548710000000  0.3736290000000  0.5354840000000 1.0
C      1  0.5532660000000  0.4948990000000  0.6315470000000 1.0
C      1  0.5565270000000  0.6238070000000  0.5452290000000 1.0
C      1  0.5554130000000  0.5817600000000  0.3958290000000 1.0
C      1  0.4749130000000  0.5736320000000  0.4449220000000 1.0
C      1  0.4758440000000  0.5744310000000  0.5519710000000 1.0
C      1  0.4767780000000  0.4728410000000  0.5857880000000 1.0
C      1  0.4750400000000  0.4097020000000  0.4996650000000 1.0
C      1  0.4751960000000  0.4718900000000  0.4125120000000 1.0
C      1  0.5206250000000  0.4270640000000  0.4452160000000 1.0
C      1  0.5218480000000  0.4265760000000  0.5516680000000 1.0
C      1  0.5233330000000  0.5275940000000  0.5859290000000 1.0
C      1  0.5225220000000  0.5919160000000  0.5002540000000 1.0
C      1  0.5217390000000  0.5294930000000  0.4131000000000 1.0
C      1  0.5223670000000  0.4737430000000  0.4386000000000 1.0
C      1  0.5224130000000  0.5501720000000  0.4549400000000 1.0
C      1  0.5232860000000  0.5581960000000  0.5325120000000 1.0
C      1  0.5234350000000  0.4865670000000  0.5636380000000 1.0
C      1  0.5224910000000  0.4347180000000  0.5053940000000 1.0
C      1  0.4751290000000  0.5279780000000  0.4373980000000 1.0
C      1  0.4739980000000  0.4506150000000  0.4538930000000 1.0
C      1  0.4747190000000  0.4424090000000  0.5328810000000 1.0
C      1  0.4762940000000  0.5147720000000  0.5650110000000 1.0
C      1  0.4762230000000  0.5675740000000  0.5059810000000 1.0
C      1  0.4512460000000  0.4009470000000  0.5841650000000 1.0
C      1  0.4488390000000  0.3892790000000  0.4334050000000 1.0
C      1  0.4471080000000  0.5288240000000  0.3729990000000 1.0
C      1  0.4491350000000  0.6276620000000  0.4875090000000 1.0
C      1  0.4480700000000  0.5498630000000  0.6170870000000 1.0
C      1  0.5526560000000  0.5962530000000  0.5831520000000 1.0
C      1  0.5505080000000  0.6111580000000  0.4323240000000 1.0
C      1  0.5506890000000  0.4719010000000  0.3752820000000 1.0
C      1  0.5503190000000  0.3729930000000  0.4886930000000 1.0
C      1  0.5490800000000  0.4504340000000  0.6166020000000 1.0
C      1  0.6174410000000  0.5181890000000  0.5414160000000 1.0
C      1  0.6170470000000  0.4681940000000  0.5327080000000 1.0
C      1  0.5995230000000  0.4761300000000  0.4884710000000 1.0
C      1  0.6087820000000  0.5077400000000  0.4541950000000 1.0
C      1  0.5999220000000  0.5259210000000  0.4971540000000 1.0
C      1  0.4084550000000  0.4873290000000  0.5223650000000 1.0
C      1  0.3887930000000  0.5304690000000  0.5285740000000 1.0
C      1  0.3884760000000  0.5374070000000  0.4800530000000 1.0
C      1  0.4078540000000  0.4941260000000  0.4738190000000 1.0
C      1  0.3916680000000  0.4539090000000  0.4932100000000 1.0
C      1  0.5777010000000  0.4953540000000  0.5263720000000 1.0
C      1  0.4386080000000  0.5186440000000  0.5015460000000 1.0
C      1  0.5904420000000  0.4994070000000  0.5025660000000 1.0
C      1  0.4208710000000  0.4983280000000  0.4990050000000 1.0
END
