TITL C-3623283-6828-682 -8.03140299670382e-07 125000 -738.383473881788 0 0 119 (C1) n - 1
REM
REM in /home/nfs/bkarasulu/CARBON/AIRSS/Generating-Clusters/LCBOP/Higher-Symm/SD-CG/FIRE-CG
REM
REM
REM
REM
REM
REM ./C.cell (b20cbc046b6831c77cfcea5457e17084)
REM AIRSS Version 0.9.1 bugfix July 2018 build 013d7b7c2542+ Fri, 06 Jul 2018 19:26:36 +0100
REM compiler GCC version 9.2.1 20190827 (Red Hat 9.2.1-1)
REM options -cpp -mtune=generic -march=x86-64 -g -O0 -fpre-include=/usr/include/finclude/math-vector-fortran.h
REM seed -1200739430 513001226 1197552300 -1286471387 1499611418 -1007425064 976803415 275282607 1645755250 1900128529 -1831259620 -1946291922 -290741640 30450268 27638277 1625902612 -2030285917 2018325895 1906880816 -458771070 -800748015 -265592979 829832560 577844190 -71019018 1770112761 1894665679 1773901979 -1856583336 -511172763 2094239742 -1439243843 -1237394620
REM
CELL 1.54180   50.00000   50.00000   50.00000   90.00000   90.00000   90.00000
LATT -1
SFAC C  
C      1  0.6134900000000  0.5093440000000  0.5161540000000 1.0
C      1  0.5617320000000  0.5725030000000  0.4838380000000 1.0
C      1  0.4964900000000  0.4332430000000  0.4843250000000 1.0
C      1  0.4947890000000  0.5042000000000  0.4702290000000 1.0
C      1  0.4335590000000  0.4137490000000  0.5314350000000 1.0
C      1  0.4701120000000  0.4389280000000  0.5531970000000 1.0
C      1  0.4432940000000  0.5382250000000  0.5633510000000 1.0
C      1  0.5515110000000  0.4027400000000  0.5505720000000 1.0
C      1  0.5570190000000  0.5595390000000  0.5353180000000 1.0
C      1  0.4268300000000  0.5191890000000  0.5482710000000 1.0
C      1  0.5124150000000  0.5232180000000  0.4321830000000 1.0
C      1  0.5624740000000  0.4777960000000  0.5401050000000 1.0
C      1  0.5075540000000  0.5688380000000  0.5438780000000 1.0
C      1  0.5556780000000  0.6071960000000  0.5192470000000 1.0
C      1  0.5146190000000  0.4236390000000  0.5746890000000 1.0
C      1  0.4099930000000  0.5327970000000  0.4186300000000 1.0
C      1  0.5440780000000  0.4470090000000  0.4767710000000 1.0
C      1  0.5158320000000  0.4537490000000  0.4816710000000 1.0
C      1  0.5269670000000  0.4754220000000  0.6270020000000 1.0
C      1  0.4658830000000  0.5091060000000  0.6029520000000 1.0
C      1  0.5084090000000  0.5632300000000  0.5154700000000 1.0
C      1  0.5851380000000  0.4927340000000  0.4438300000000 1.0
C      1  0.5096180000000  0.5811330000000  0.4939530000000 1.0
C      1  0.4267830000000  0.4350960000000  0.5146180000000 1.0
C      1  0.4144340000000  0.5477940000000  0.5077550000000 1.0
C      1  0.4824560000000  0.5525780000000  0.5865950000000 1.0
C      1  0.5512720000000  0.5156960000000  0.4894510000000 1.0
C      1  0.4836840000000  0.4312190000000  0.4578100000000 1.0
C      1  0.4805820000000  0.5004150000000  0.5472380000000 1.0
C      1  0.4655290000000  0.4605260000000  0.4101390000000 1.0
C      1  0.4562590000000  0.5379120000000  0.4642290000000 1.0
C      1  0.4936790000000  0.4574370000000  0.4133560000000 1.0
C      1  0.4215140000000  0.4834270000000  0.4155990000000 1.0
C      1  0.5783640000000  0.5140860000000  0.4247990000000 1.0
C      1  0.5806330000000  0.4349680000000  0.5255600000000 1.0
C      1  0.4252810000000  0.5701170000000  0.4968630000000 1.0
C      1  0.5092990000000  0.4039670000000  0.5272980000000 1.0
C      1  0.5127550000000  0.4752220000000  0.4005530000000 1.0
C      1  0.5036610000000  0.4891590000000  0.6292200000000 1.0
C      1  0.4546420000000  0.4305710000000  0.4575170000000 1.0
C      1  0.5276930000000  0.4980520000000  0.3969150000000 1.0
C      1  0.5567460000000  0.4627420000000  0.5900940000000 1.0
C      1  0.6121770000000  0.5023260000000  0.4898660000000 1.0
C      1  0.5710210000000  0.4676470000000  0.4423850000000 1.0
C      1  0.5755510000000  0.5378870000000  0.5286090000000 1.0
C      1  0.4085950000000  0.5066950000000  0.4131130000000 1.0
C      1  0.4665870000000  0.5931890000000  0.4725420000000 1.0
C      1  0.4867310000000  0.5836600000000  0.4531880000000 1.0
C      1  0.5082600000000  0.4623560000000  0.5350150000000 1.0
C      1  0.5667870000000  0.4711330000000  0.5669090000000 1.0
C      1  0.5141200000000  0.4827720000000  0.4825790000000 1.0
C      1  0.5418770000000  0.5495070000000  0.4104100000000 1.0
C      1  0.5550970000000  0.5588590000000  0.4345100000000 1.0
C      1  0.5698780000000  0.4599910000000  0.5189990000000 1.0
C      1  0.4162890000000  0.4849990000000  0.4797710000000 1.0
C      1  0.5571230000000  0.5805380000000  0.5126760000000 1.0
C      1  0.5312440000000  0.4333830000000  0.4331720000000 1.0
C      1  0.3989860000000  0.4731540000000  0.5208200000000 1.0
C      1  0.5286730000000  0.5318260000000  0.4834810000000 1.0
C      1  0.4442020000000  0.5865010000000  0.4864350000000 1.0
C      1  0.5238380000000  0.4080110000000  0.5521410000000 1.0
C      1  0.5079290000000  0.5420590000000  0.5931250000000 1.0
C      1  0.4606080000000  0.4860240000000  0.5622810000000 1.0
C      1  0.4756810000000  0.5307520000000  0.4043720000000 1.0
C      1  0.4453100000000  0.4842040000000  0.4778240000000 1.0
C      1  0.4221260000000  0.4725810000000  0.5388930000000 1.0
C      1  0.4739770000000  0.5243200000000  0.4809500000000 1.0
C      1  0.4137690000000  0.5220140000000  0.5206490000000 1.0
C      1  0.5714320000000  0.5309510000000  0.5009460000000 1.0
C      1  0.5433640000000  0.5734320000000  0.4588690000000 1.0
C      1  0.4623030000000  0.5483620000000  0.5207040000000 1.0
C      1  0.4420000000000  0.4595470000000  0.5209120000000 1.0
C      1  0.4590000000000  0.5567310000000  0.5469520000000 1.0
C      1  0.5331830000000  0.5559860000000  0.5537220000000 1.0
C      1  0.4049560000000  0.4977050000000  0.5046710000000 1.0
C      1  0.4861910000000  0.5136710000000  0.4242210000000 1.0
C      1  0.5298660000000  0.5235880000000  0.4101060000000 1.0
C      1  0.5455520000000  0.4992290000000  0.5334310000000 1.0
C      1  0.4887900000000  0.4433350000000  0.5318250000000 1.0
C      1  0.4521140000000  0.4172230000000  0.5509680000000 1.0
C      1  0.4946310000000  0.4233510000000  0.5116680000000 1.0
C      1  0.4782750000000  0.5579550000000  0.4071580000000 1.0
C      1  0.4796610000000  0.4961880000000  0.4458400000000 1.0
C      1  0.4829550000000  0.4866790000000  0.6099430000000 1.0
C      1  0.4093280000000  0.4556400000000  0.4761040000000 1.0
C      1  0.5216230000000  0.5332720000000  0.5698940000000 1.0
C      1  0.5058050000000  0.5145770000000  0.5522610000000 1.0
C      1  0.4570330000000  0.4785530000000  0.5048940000000 1.0
C      1  0.4709620000000  0.4996790000000  0.5196630000000 1.0
C      1  0.5333910000000  0.4588090000000  0.6049190000000 1.0
C      1  0.4554170000000  0.4831960000000  0.4506930000000 1.0
C      1  0.5430180000000  0.4893600000000  0.4892310000000 1.0
C      1  0.5397600000000  0.4132540000000  0.4164900000000 1.0
C      1  0.5783590000000  0.5409680000000  0.4364170000000 1.0
C      1  0.5225270000000  0.5150560000000  0.5288600000000 1.0
C      1  0.4829720000000  0.5662940000000  0.5601390000000 1.0
C      1  0.5142310000000  0.5806310000000  0.4650990000000 1.0
C      1  0.4599730000000  0.5332730000000  0.5881030000000 1.0
C      1  0.5581370000000  0.4652580000000  0.4940790000000 1.0
C      1  0.4859730000000  0.4621050000000  0.5938280000000 1.0
C      1  0.4334030000000  0.4919960000000  0.5552800000000 1.0
C      1  0.5507460000000  0.4478200000000  0.4490700000000 1.0
C      1  0.6000260000000  0.5243740000000  0.5348080000000 1.0
C      1  0.5152760000000  0.5242920000000  0.4600760000000 1.0
C      1  0.5810080000000  0.5506040000000  0.4827110000000 1.0
C      1  0.4023400000000  0.4477680000000  0.5035590000000 1.0
C      1  0.4494780000000  0.5551290000000  0.4433400000000 1.0
C      1  0.4693010000000  0.5249560000000  0.5077940000000 1.0
C      1  0.5998380000000  0.5086480000000  0.4649600000000 1.0
C      1  0.4251740000000  0.5516860000000  0.4299030000000 1.0
C      1  0.5172230000000  0.5364670000000  0.5093670000000 1.0
C      1  0.5929580000000  0.5376850000000  0.4608180000000 1.0
C      1  0.4451470000000  0.4726520000000  0.4259500000000 1.0
C      1  0.5106690000000  0.4463100000000  0.5921390000000 1.0
C      1  0.4724460000000  0.5693290000000  0.4324400000000 1.0
C      1  0.4288740000000  0.4387980000000  0.4623720000000 1.0
C      1  0.5023650000000  0.4392900000000  0.4346550000000 1.0
C      1  0.5732930000000  0.4129840000000  0.5389100000000 1.0
C      1  0.4684700000000  0.4604570000000  0.5718470000000 1.0
END
