TITL C-3623282-6910-444 -19.431118991796 125000 -1179.76431676838 0 0 190 (C1) n - 1
REM
REM in /home/nfs/bkarasulu/CARBON/AIRSS/Generating-Clusters/LCBOP/Higher-Symm/SD-CG/FIRE-CG
REM
REM
REM
REM
REM
REM ./C.cell (b20cbc046b6831c77cfcea5457e17084)
REM AIRSS Version 0.9.1 bugfix July 2018 build 013d7b7c2542+ Fri, 06 Jul 2018 19:26:36 +0100
REM compiler GCC version 9.2.1 20190827 (Red Hat 9.2.1-1)
REM options -cpp -mtune=generic -march=x86-64 -g -O0 -fpre-include=/usr/include/finclude/math-vector-fortran.h
REM seed -1043358851 721192636 814533264 1142557287 1180103146 1692564956 -497043615 -525889675 1036889738 -1921554267 -548667449 -1627770542 1799666365 -268363069 -1803151969 -707556774 -1381053876 224714355 -390829349 -174215034 1023182746 727665393 1491065963 1614662879 -1166405168 -767172669 -1450967129 370298808 473502520 1115282988 1478876618 -2065324889 527483743
REM
CELL 1.54180   50.00000   50.00000   50.00000   90.00000   90.00000   90.00000
LATT -1
SFAC C  
C      1  0.4401860000000  0.5697370000000  0.4575910000000 1.0
C      1  0.4428700000000  0.5040720000000  0.4888240000000 1.0
C      1  0.4596840000000  0.4373260000000  0.3788360000000 1.0
C      1  0.5320790000000  0.4240840000000  0.5041090000000 1.0
C      1  0.4085140000000  0.5255990000000  0.5120510000000 1.0
C      1  0.5960490000000  0.5247560000000  0.5689650000000 1.0
C      1  0.4599840000000  0.5504070000000  0.5000390000000 1.0
C      1  0.5003470000000  0.5250510000000  0.4661620000000 1.0
C      1  0.5554440000000  0.5404710000000  0.5394840000000 1.0
C      1  0.5068920000000  0.4890900000000  0.5507600000000 1.0
C      1  0.3872740000000  0.4657800000000  0.5326200000000 1.0
C      1  0.5490400000000  0.4521570000000  0.3899550000000 1.0
C      1  0.4542710000000  0.5039150000000  0.5333020000000 1.0
C      1  0.5795510000000  0.5156120000000  0.5916700000000 1.0
C      1  0.5219170000000  0.4726790000000  0.4441510000000 1.0
C      1  0.4934000000000  0.3800920000000  0.4183410000000 1.0
C      1  0.4019870000000  0.3995730000000  0.4967340000000 1.0
C      1  0.4164470000000  0.4679410000000  0.5740410000000 1.0
C      1  0.4489190000000  0.5213180000000  0.3870580000000 1.0
C      1  0.5482660000000  0.4953110000000  0.5659270000000 1.0
C      1  0.5170520000000  0.5152050000000  0.3727420000000 1.0
C      1  0.4060000000000  0.5348690000000  0.5618950000000 1.0
C      1  0.4455910000000  0.5493150000000  0.4769290000000 1.0
C      1  0.4429100000000  0.4866290000000  0.4369180000000 1.0
C      1  0.5606760000000  0.4530440000000  0.5534230000000 1.0
C      1  0.5527550000000  0.4752020000000  0.4538480000000 1.0
C      1  0.5861070000000  0.5430520000000  0.5482830000000 1.0
C      1  0.5452670000000  0.5195180000000  0.3713270000000 1.0
C      1  0.5252800000000  0.4606150000000  0.5919490000000 1.0
C      1  0.4383180000000  0.4119760000000  0.4173110000000 1.0
C      1  0.4505380000000  0.5149620000000  0.4437290000000 1.0
C      1  0.3845890000000  0.4385170000000  0.5269670000000 1.0
C      1  0.5712160000000  0.5731860000000  0.4984060000000 1.0
C      1  0.6027030000000  0.4898610000000  0.5354450000000 1.0
C      1  0.4670730000000  0.4894160000000  0.4900290000000 1.0
C      1  0.4791330000000  0.4838100000000  0.3817990000000 1.0
C      1  0.4500840000000  0.4381770000000  0.4571580000000 1.0
C      1  0.5700110000000  0.4564690000000  0.4110380000000 1.0
C      1  0.5420490000000  0.5251750000000  0.5661800000000 1.0
C      1  0.5836140000000  0.4270410000000  0.4507830000000 1.0
C      1  0.4761730000000  0.4567570000000  0.5206570000000 1.0
C      1  0.4421700000000  0.5777860000000  0.5404050000000 1.0
C      1  0.4468400000000  0.3802380000000  0.5075600000000 1.0
C      1  0.5012970000000  0.4053560000000  0.4200700000000 1.0
C      1  0.4321360000000  0.4985030000000  0.6189430000000 1.0
C      1  0.4594590000000  0.4224860000000  0.5645300000000 1.0
C      1  0.3803250000000  0.4800930000000  0.4836700000000 1.0
C      1  0.4169060000000  0.5337120000000  0.5883710000000 1.0
C      1  0.5478080000000  0.5021100000000  0.4151290000000 1.0
C      1  0.6319810000000  0.4877300000000  0.4596100000000 1.0
C      1  0.4943570000000  0.5135550000000  0.5567260000000 1.0
C      1  0.4489760000000  0.4175360000000  0.3934680000000 1.0
C      1  0.4966800000000  0.3901520000000  0.5062540000000 1.0
C      1  0.4947150000000  0.5774000000000  0.5093690000000 1.0
C      1  0.5113230000000  0.6186250000000  0.4840270000000 1.0
C      1  0.4847700000000  0.4264060000000  0.5530300000000 1.0
C      1  0.4072090000000  0.5543320000000  0.5119720000000 1.0
C      1  0.4106100000000  0.5709270000000  0.4585630000000 1.0
C      1  0.5110910000000  0.5597930000000  0.5550540000000 1.0
C      1  0.3986600000000  0.5627980000000  0.4333360000000 1.0
C      1  0.4922700000000  0.5099540000000  0.4206940000000 1.0
C      1  0.4729780000000  0.5072990000000  0.3974810000000 1.0
C      1  0.4301000000000  0.6166190000000  0.5136770000000 1.0
C      1  0.5653540000000  0.6378490000000  0.5136410000000 1.0
C      1  0.3815130000000  0.4850550000000  0.5114670000000 1.0
C      1  0.5809240000000  0.6326370000000  0.4899140000000 1.0
C      1  0.4934960000000  0.6433400000000  0.5202650000000 1.0
C      1  0.5092720000000  0.4128040000000  0.4916030000000 1.0
C      1  0.4049760000000  0.5495710000000  0.4096940000000 1.0
C      1  0.5014140000000  0.4956740000000  0.6149420000000 1.0
C      1  0.5568790000000  0.5566100000000  0.6361950000000 1.0
C      1  0.5024870000000  0.5393190000000  0.3803830000000 1.0
C      1  0.5395850000000  0.6287990000000  0.5214960000000 1.0
C      1  0.4431010000000  0.5434820000000  0.5893870000000 1.0
C      1  0.4657680000000  0.4322440000000  0.4808370000000 1.0
C      1  0.4792240000000  0.3306430000000  0.4075130000000 1.0
C      1  0.4489320000000  0.5979540000000  0.5207830000000 1.0
C      1  0.4921060000000  0.5587910000000  0.3964890000000 1.0
C      1  0.5469670000000  0.5808310000000  0.5950630000000 1.0
C      1  0.5696480000000  0.6424040000000  0.4658510000000 1.0
C      1  0.6118500000000  0.5042650000000  0.5565810000000 1.0
C      1  0.6151310000000  0.5677050000000  0.5095340000000 1.0
C      1  0.5771960000000  0.4885620000000  0.5234950000000 1.0
C      1  0.5298730000000  0.6075840000000  0.5040730000000 1.0
C      1  0.5242660000000  0.4370150000000  0.5279460000000 1.0
C      1  0.5521710000000  0.5305790000000  0.5947100000000 1.0
C      1  0.4595380000000  0.5432290000000  0.5671440000000 1.0
C      1  0.3872250000000  0.5108230000000  0.5229610000000 1.0
C      1  0.4373610000000  0.4286630000000  0.5232990000000 1.0
C      1  0.4390510000000  0.4147610000000  0.4451330000000 1.0
C      1  0.4171560000000  0.5605470000000  0.5393520000000 1.0
C      1  0.5261970000000  0.5254140000000  0.4523790000000 1.0
C      1  0.5574580000000  0.4232480000000  0.4925210000000 1.0
C      1  0.4295400000000  0.5356910000000  0.4028170000000 1.0
C      1  0.4571780000000  0.4651970000000  0.3814600000000 1.0
C      1  0.4947990000000  0.4327360000000  0.4761950000000 1.0
C      1  0.5779720000000  0.4310200000000  0.4237640000000 1.0
C      1  0.4443320000000  0.5383360000000  0.4267440000000 1.0
C      1  0.4317700000000  0.4730500000000  0.3933740000000 1.0
C      1  0.4560690000000  0.4656190000000  0.4506290000000 1.0
C      1  0.5155180000000  0.3938470000000  0.5574960000000 1.0
C      1  0.5525990000000  0.5277060000000  0.5090140000000 1.0
C      1  0.5571770000000  0.5499080000000  0.4884640000000 1.0
C      1  0.5817640000000  0.4268400000000  0.4789160000000 1.0
C      1  0.3941320000000  0.5097550000000  0.5518010000000 1.0
C      1  0.5248790000000  0.4899240000000  0.5262390000000 1.0
C      1  0.5033690000000  0.6014440000000  0.5753220000000 1.0
C      1  0.5401150000000  0.4339020000000  0.5515560000000 1.0
C      1  0.4804380000000  0.5178330000000  0.4462460000000 1.0
C      1  0.5227830000000  0.5111920000000  0.6125030000000 1.0
C      1  0.4219370000000  0.4794640000000  0.4193120000000 1.0
C      1  0.4910420000000  0.5789080000000  0.5621160000000 1.0
C      1  0.6050180000000  0.4336060000000  0.4931040000000 1.0
C      1  0.5217850000000  0.5938230000000  0.5957470000000 1.0
C      1  0.4420970000000  0.4107510000000  0.5450380000000 1.0
C      1  0.5624450000000  0.4876750000000  0.4773860000000 1.0
C      1  0.4833120000000  0.4462480000000  0.5996930000000 1.0
C      1  0.4672860000000  0.5195790000000  0.5532690000000 1.0
C      1  0.4871580000000  0.5510710000000  0.5042760000000 1.0
C      1  0.4965380000000  0.4425200000000  0.5334850000000 1.0
C      1  0.4128690000000  0.5148710000000  0.6090230000000 1.0
C      1  0.5237470000000  0.5147550000000  0.5095100000000 1.0
C      1  0.5768510000000  0.4606530000000  0.5771200000000 1.0
C      1  0.5141610000000  0.4560240000000  0.4180290000000 1.0
C      1  0.5712170000000  0.4881300000000  0.5847820000000 1.0
C      1  0.6064150000000  0.5543080000000  0.5315150000000 1.0
C      1  0.5027720000000  0.5291370000000  0.4946010000000 1.0
C      1  0.5405900000000  0.4233990000000  0.3964410000000 1.0
C      1  0.5455720000000  0.6403390000000  0.4540840000000 1.0
C      1  0.4507950000000  0.4803700000000  0.6082600000000 1.0
C      1  0.4866820000000  0.3550910000000  0.4126320000000 1.0
C      1  0.6165050000000  0.4963980000000  0.4398430000000 1.0
C      1  0.4264050000000  0.3887120000000  0.4884100000000 1.0
C      1  0.3853560000000  0.4777120000000  0.4572790000000 1.0
C      1  0.5681220000000  0.4814610000000  0.4275980000000 1.0
C      1  0.4732510000000  0.3784670000000  0.4935680000000 1.0
C      1  0.5887020000000  0.5162260000000  0.4019630000000 1.0
C      1  0.4332960000000  0.5117550000000  0.5143190000000 1.0
C      1  0.5981530000000  0.5825990000000  0.4919780000000 1.0
C      1  0.4014080000000  0.5673670000000  0.4864650000000 1.0
C      1  0.5131370000000  0.5333880000000  0.5639060000000 1.0
C      1  0.4573720000000  0.4396200000000  0.5069080000000 1.0
C      1  0.6259820000000  0.4500800000000  0.4929390000000 1.0
C      1  0.5710080000000  0.5931210000000  0.5500140000000 1.0
C      1  0.4572570000000  0.4390020000000  0.5871490000000 1.0
C      1  0.5314110000000  0.5655290000000  0.5361280000000 1.0
C      1  0.5164160000000  0.6378940000000  0.5371540000000 1.0
C      1  0.4753780000000  0.5992990000000  0.5092200000000 1.0
C      1  0.4734960000000  0.3734770000000  0.5457940000000 1.0
C      1  0.4395520000000  0.5228860000000  0.4692350000000 1.0
C      1  0.5080660000000  0.4867610000000  0.3775770000000 1.0
C      1  0.4802530000000  0.4753800000000  0.6107340000000 1.0
C      1  0.4490570000000  0.3842130000000  0.5357510000000 1.0
C      1  0.4772300000000  0.4753030000000  0.4680090000000 1.0
C      1  0.5947210000000  0.4437690000000  0.5899230000000 1.0
C      1  0.5231080000000  0.4808900000000  0.5731600000000 1.0
C      1  0.4703780000000  0.4838170000000  0.5180100000000 1.0
C      1  0.5219430000000  0.5826430000000  0.5152820000000 1.0
C      1  0.3982350000000  0.4801880000000  0.5560900000000 1.0
C      1  0.5216730000000  0.6300860000000  0.4608360000000 1.0
C      1  0.5518070000000  0.5562860000000  0.6086820000000 1.0
C      1  0.5938630000000  0.4980310000000  0.4240390000000 1.0
C      1  0.5167060000000  0.4272450000000  0.4131010000000 1.0
C      1  0.3880020000000  0.4167550000000  0.5117620000000 1.0
C      1  0.5632470000000  0.4111420000000  0.4089460000000 1.0
C      1  0.5688390000000  0.5028980000000  0.5006350000000 1.0
C      1  0.6362330000000  0.4708600000000  0.4797560000000 1.0
C      1  0.5653160000000  0.5903840000000  0.5759540000000 1.0
C      1  0.4874770000000  0.6239070000000  0.4999490000000 1.0
C      1  0.5215190000000  0.5034300000000  0.4301810000000 1.0
C      1  0.4393170000000  0.3916700000000  0.4620260000000 1.0
C      1  0.5675770000000  0.5856710000000  0.5244640000000 1.0
C      1  0.4547660000000  0.5643280000000  0.4330860000000 1.0
C      1  0.6115400000000  0.4276950000000  0.6016600000000 1.0
C      1  0.5095610000000  0.6254460000000  0.5616420000000 1.0
C      1  0.5614500000000  0.5563410000000  0.6618490000000 1.0
C      1  0.5101900000000  0.4363170000000  0.5909510000000 1.0
C      1  0.5022440000000  0.4602630000000  0.4652480000000 1.0
C      1  0.4389260000000  0.4609650000000  0.5897630000000 1.0
C      1  0.3971690000000  0.4769290000000  0.4329360000000 1.0
C      1  0.5240860000000  0.4182570000000  0.5709950000000 1.0
C      1  0.4654420000000  0.3789710000000  0.4658710000000 1.0
C      1  0.5533740000000  0.4805490000000  0.5394340000000 1.0
C      1  0.5989940000000  0.6106490000000  0.4879090000000 1.0
C      1  0.5611970000000  0.5168280000000  0.3940350000000 1.0
C      1  0.5462710000000  0.5426250000000  0.4628480000000 1.0
C      1  0.4643110000000  0.5692760000000  0.5569480000000 1.0
C      1  0.5243410000000  0.4677670000000  0.3920500000000 1.0
C      1  0.4987410000000  0.3838410000000  0.5359530000000 1.0
C      1  0.4768680000000  0.5703320000000  0.4160950000000 1.0
END
