TITL C-3623282-6910-1937 -4.44390947354235e-07 125000 -240.010502731685 0 0 39 (Cs) n - 1
REM
REM in /home/nfs/bkarasulu/CARBON/AIRSS/Generating-Clusters/LCBOP/Higher-Symm/SD-CG/FIRE-CG
REM
REM
REM
REM
REM
REM ./C.cell (b20cbc046b6831c77cfcea5457e17084)
REM AIRSS Version 0.9.1 bugfix July 2018 build 013d7b7c2542+ Fri, 06 Jul 2018 19:26:36 +0100
REM compiler GCC version 9.2.1 20190827 (Red Hat 9.2.1-1)
REM options -cpp -mtune=generic -march=x86-64 -g -O0 -fpre-include=/usr/include/finclude/math-vector-fortran.h
REM seed 1864632632 -1798258796 1385251681 -628958538 1581733362 1780650803 -672495156 1252464999 -1235575428 -641636594 1562061043 -1543827659 -1863797579 456298223 1654252347 1015685952 1030239082 1136813803 1599584327 -498224636 -1517304942 -896167808 -1129009520 1370142014 1114227104 -1629302152 -1703897193 -1665891171 -1351381509 -1261129146 244856267 -698502894 2143473509
REM
CELL 1.54180   50.00000   50.00000   50.00000   90.00000   90.00000   90.00000
LATT -1
SFAC C  
C      1  0.5009190000000  0.5734550000000  0.4725100000000 1.0
C      1  0.5516420000000  0.4691240000000  0.4725620000000 1.0
C      1  0.4440430000000  0.4685070000000  0.4723040000000 1.0
C      1  0.5009190000000  0.5734550000000  0.5288050000000 1.0
C      1  0.5516420000000  0.4691240000000  0.5287540000000 1.0
C      1  0.4440430000000  0.4685070000000  0.5290120000000 1.0
C      1  0.4838070000000  0.5568420000000  0.4572560000000 1.0
C      1  0.5480040000000  0.4913050000000  0.4557420000000 1.0
C      1  0.4628450000000  0.4566620000000  0.4550570000000 1.0
C      1  0.4838080000000  0.5568420000000  0.5440590000000 1.0
C      1  0.5480040000000  0.4913060000000  0.5455740000000 1.0
C      1  0.4628450000000  0.4566620000000  0.5462600000000 1.0
C      1  0.4879990000000  0.4473860000000  0.5446910000000 1.0
C      1  0.4734560000000  0.5320120000000  0.5422350000000 1.0
C      1  0.5404240000000  0.5169900000000  0.5435500000000 1.0
C      1  0.4879980000000  0.4473860000000  0.4566260000000 1.0
C      1  0.4734560000000  0.5320110000000  0.4590810000000 1.0
C      1  0.5404240000000  0.5169890000000  0.4577660000000 1.0
C      1  0.4727740000000  0.5106160000000  0.5241990000000 1.0
C      1  0.5282220000000  0.5322910000000  0.5238100000000 1.0
C      1  0.5066170000000  0.4414870000000  0.5247830000000 1.0
C      1  0.4727740000000  0.5106160000000  0.4771170000000 1.0
C      1  0.5282220000000  0.5322910000000  0.4775050000000 1.0
C      1  0.5066170000000  0.4414870000000  0.4765330000000 1.0
C      1  0.4254200000000  0.4528700000000  0.4870410000000 1.0
C      1  0.4910100000000  0.5957340000000  0.4870440000000 1.0
C      1  0.5760500000000  0.4664060000000  0.4870440000000 1.0
C      1  0.4254200000000  0.4528700000000  0.5142760000000 1.0
C      1  0.4910100000000  0.5957340000000  0.5142710000000 1.0
C      1  0.5760500000000  0.4664060000000  0.5142730000000 1.0
C      1  0.5294940000000  0.4568080000000  0.5156460000000 1.0
C      1  0.4519280000000  0.4924410000000  0.5155930000000 1.0
C      1  0.5229170000000  0.5599490000000  0.5158400000000 1.0
C      1  0.5294940000000  0.4568070000000  0.4856710000000 1.0
C      1  0.4519280000000  0.4924400000000  0.4857230000000 1.0
C      1  0.5229170000000  0.5599490000000  0.4854750000000 1.0
C      1  0.4901140000000  0.5121090000000  0.5006580000000 1.0
C      1  0.4973310000000  0.4281940000000  0.5006580000000 1.0
C      1  0.5174170000000  0.5179320000000  0.5006580000000 1.0
END
