TITL C-3623286-7563-1404 -3.89042441718101e-07 125000 -93.0831655948662 0 0 16 (C1) n - 1
REM
REM in /home/nfs/bkarasulu/CARBON/AIRSS/Generating-Clusters/LCBOP/Higher-Symm/SD-CG/FIRE-CG
REM
REM
REM
REM
REM
REM ./C.cell (b20cbc046b6831c77cfcea5457e17084)
REM AIRSS Version 0.9.1 bugfix July 2018 build 013d7b7c2542+ Fri, 06 Jul 2018 19:26:36 +0100
REM compiler GCC version 9.2.1 20190827 (Red Hat 9.2.1-1)
REM options -cpp -mtune=generic -march=x86-64 -g -O0 -fpre-include=/usr/include/finclude/math-vector-fortran.h
REM seed 1894056382 -839822561 -2055912895 322512664 728161353 216746664 1795029683 1498487581 1003616787 -1110865006 -182067046 1626351325 -1790632099 -999086461 2098087832 1187030347 -1602584650 1447666914 351223595 1690624761 1880282777 -96423803 1375289985 -1568497731 -242655721 1640648713 457219017 -1714032300 1543702365 1844587499 -287445897 2104658289 2014808015
REM
CELL 1.54180   50.00000   50.00000   50.00000   90.00000   90.00000   90.00000
LATT -1
SFAC C  
C      1  0.4621390000000  0.4725340000000  0.5058430000000 1.0
C      1  0.5440520000000  0.4895670000000  0.4809310000000 1.0
C      1  0.4699430000000  0.4983930000000  0.4979880000000 1.0
C      1  0.5381230000000  0.4814810000000  0.5057080000000 1.0
C      1  0.5021280000000  0.4554500000000  0.5263090000000 1.0
C      1  0.4925170000000  0.5475130000000  0.4803370000000 1.0
C      1  0.4906740000000  0.5258720000000  0.4617750000000 1.0
C      1  0.4765700000000  0.4530660000000  0.5177600000000 1.0
C      1  0.4898010000000  0.5417590000000  0.5068800000000 1.0
C      1  0.5094470000000  0.5132300000000  0.5588040000000 1.0
C      1  0.5044490000000  0.5029640000000  0.5339920000000 1.0
C      1  0.5352720000000  0.5023010000000  0.4591080000000 1.0
C      1  0.4857680000000  0.5150420000000  0.5160620000000 1.0
C      1  0.5175610000000  0.4791450000000  0.5246700000000 1.0
C      1  0.5144070000000  0.5164930000000  0.4499570000000 1.0
C      1  0.4716070000000  0.5064310000000  0.4706590000000 1.0
END
