TITL C-3623283-6828-304 1.55652331174449 125000 -753.543178158311 0 0 124 (C1) n - 1
REM
REM in /home/nfs/bkarasulu/CARBON/AIRSS/Generating-Clusters/LCBOP/Higher-Symm/SD-CG/FIRE-CG
REM
REM
REM
REM
REM
REM ./C.cell (b20cbc046b6831c77cfcea5457e17084)
REM AIRSS Version 0.9.1 bugfix July 2018 build 013d7b7c2542+ Fri, 06 Jul 2018 19:26:36 +0100
REM compiler GCC version 9.2.1 20190827 (Red Hat 9.2.1-1)
REM options -cpp -mtune=generic -march=x86-64 -g -O0 -fpre-include=/usr/include/finclude/math-vector-fortran.h
REM seed 969397611 501282044 -252636037 1548530714 1086856674 -340142772 -1006627398 628835691 1791769137 -2045458226 558628842 -1677962452 -1050481494 -1938807290 166964320 506221224 -497952187 -1707337789 -1904234188 61612365 -1876788400 1464362520 -868532421 -1963053856 -1835146865 -1162262184 -912808811 1227038352 1413475154 -1942498601 1541330593 279594383 -1164484383
REM
CELL 1.54180   50.00000   50.00000   50.00000   90.00000   90.00000   90.00000
LATT -1
SFAC C  
C      1  0.4143930000000  0.4389830000000  0.4905540000000 1.0
C      1  0.5258450000000  0.5342630000000  0.4009590000000 1.0
C      1  0.5907260000000  0.5106730000000  0.5458860000000 1.0
C      1  0.4616440000000  0.4286450000000  0.4833310000000 1.0
C      1  0.5935230000000  0.5623800000000  0.5140520000000 1.0
C      1  0.5184060000000  0.6130770000000  0.5144580000000 1.0
C      1  0.4637890000000  0.4679030000000  0.5909200000000 1.0
C      1  0.4075230000000  0.4444630000000  0.4344430000000 1.0
C      1  0.5850550000000  0.3974200000000  0.5233670000000 1.0
C      1  0.5429820000000  0.4286350000000  0.4366920000000 1.0
C      1  0.4992990000000  0.4140330000000  0.5655390000000 1.0
C      1  0.5870960000000  0.4666190000000  0.5123670000000 1.0
C      1  0.6028270000000  0.5122420000000  0.5185950000000 1.0
C      1  0.6068280000000  0.5304590000000  0.4478470000000 1.0
C      1  0.5322550000000  0.5036610000000  0.4474110000000 1.0
C      1  0.5247710000000  0.5579150000000  0.4175400000000 1.0
C      1  0.6037810000000  0.5370610000000  0.5039080000000 1.0
C      1  0.5721160000000  0.5617040000000  0.4413170000000 1.0
C      1  0.4642540000000  0.5359140000000  0.4439370000000 1.0
C      1  0.5458850000000  0.4796630000000  0.5347090000000 1.0
C      1  0.4286730000000  0.4928420000000  0.5666690000000 1.0
C      1  0.4947630000000  0.4406860000000  0.5610510000000 1.0
C      1  0.5131890000000  0.5414940000000  0.5705670000000 1.0
C      1  0.6029020000000  0.5413300000000  0.4744050000000 1.0
C      1  0.4945800000000  0.4230210000000  0.4407170000000 1.0
C      1  0.4672590000000  0.4827090000000  0.5067940000000 1.0
C      1  0.5366710000000  0.4538110000000  0.5951910000000 1.0
C      1  0.5510770000000  0.4475220000000  0.5733480000000 1.0
C      1  0.5132700000000  0.4582150000000  0.4082010000000 1.0
C      1  0.4516140000000  0.5347200000000  0.5852290000000 1.0
C      1  0.5466680000000  0.5577510000000  0.5451190000000 1.0
C      1  0.5249040000000  0.5367780000000  0.5038410000000 1.0
C      1  0.4408080000000  0.4656170000000  0.5718380000000 1.0
C      1  0.5896870000000  0.5419540000000  0.4292560000000 1.0
C      1  0.4754930000000  0.5726610000000  0.5586650000000 1.0
C      1  0.4186080000000  0.5127310000000  0.4329800000000 1.0
C      1  0.4472940000000  0.4137800000000  0.4396480000000 1.0
C      1  0.3692980000000  0.5469520000000  0.5410980000000 1.0
C      1  0.5500580000000  0.5039250000000  0.5826480000000 1.0
C      1  0.5465300000000  0.4866660000000  0.4289020000000 1.0
C      1  0.4645440000000  0.4920010000000  0.6067750000000 1.0
C      1  0.4973830000000  0.5183120000000  0.5799140000000 1.0
C      1  0.3678790000000  0.4198760000000  0.5058560000000 1.0
C      1  0.5472590000000  0.4289750000000  0.5279050000000 1.0
C      1  0.5461330000000  0.5143730000000  0.4695590000000 1.0
C      1  0.4285900000000  0.4975330000000  0.4788220000000 1.0
C      1  0.4936180000000  0.4526860000000  0.5348080000000 1.0
C      1  0.5844220000000  0.4408910000000  0.5001330000000 1.0
C      1  0.5180350000000  0.5103760000000  0.5137400000000 1.0
C      1  0.5734550000000  0.5072070000000  0.5674920000000 1.0
C      1  0.4715130000000  0.4886670000000  0.5520070000000 1.0
C      1  0.5040720000000  0.5684370000000  0.5625420000000 1.0
C      1  0.5729820000000  0.4210630000000  0.5172870000000 1.0
C      1  0.5072270000000  0.4698200000000  0.4902250000000 1.0
C      1  0.4590540000000  0.5616960000000  0.5794480000000 1.0
C      1  0.3955550000000  0.5445550000000  0.5436510000000 1.0
C      1  0.4391540000000  0.5577210000000  0.5252750000000 1.0
C      1  0.4273350000000  0.5237210000000  0.4903540000000 1.0
C      1  0.5622560000000  0.4975780000000  0.4857600000000 1.0
C      1  0.5295080000000  0.6045880000000  0.5374530000000 1.0
C      1  0.4969250000000  0.4074230000000  0.5119310000000 1.0
C      1  0.3909730000000  0.4293330000000  0.4983250000000 1.0
C      1  0.4941690000000  0.4956740000000  0.4985680000000 1.0
C      1  0.5849230000000  0.4675550000000  0.4581140000000 1.0
C      1  0.5141810000000  0.5839760000000  0.4761540000000 1.0
C      1  0.5374900000000  0.5393960000000  0.4794870000000 1.0
C      1  0.4330890000000  0.5223610000000  0.5657980000000 1.0
C      1  0.4989910000000  0.4625460000000  0.4645470000000 1.0
C      1  0.4760230000000  0.5910820000000  0.5113570000000 1.0
C      1  0.5774610000000  0.4425850000000  0.4716250000000 1.0
C      1  0.3762450000000  0.5290350000000  0.4039120000000 1.0
C      1  0.5712040000000  0.4746520000000  0.4344950000000 1.0
C      1  0.4414040000000  0.4426390000000  0.5526960000000 1.0
C      1  0.4452830000000  0.5666960000000  0.4745380000000 1.0
C      1  0.5322190000000  0.5053730000000  0.5380460000000 1.0
C      1  0.4237660000000  0.4234890000000  0.4315340000000 1.0
C      1  0.3968510000000  0.5212740000000  0.4178510000000 1.0
C      1  0.4880770000000  0.4687550000000  0.4173760000000 1.0
C      1  0.5436620000000  0.5634550000000  0.4389850000000 1.0
C      1  0.5206230000000  0.4983890000000  0.5879410000000 1.0
C      1  0.4610950000000  0.5634710000000  0.4508130000000 1.0
C      1  0.4697030000000  0.4205160000000  0.4558380000000 1.0
C      1  0.5039820000000  0.5543760000000  0.5085200000000 1.0
C      1  0.4743780000000  0.5298160000000  0.5329060000000 1.0
C      1  0.5351870000000  0.5319990000000  0.5523880000000 1.0
C      1  0.4785260000000  0.5791770000000  0.4348090000000 1.0
C      1  0.4620850000000  0.5763290000000  0.5323660000000 1.0
C      1  0.5900090000000  0.4902480000000  0.4756640000000 1.0
C      1  0.4158090000000  0.4930370000000  0.4533770000000 1.0
C      1  0.6038420000000  0.4878000000000  0.5018390000000 1.0
C      1  0.4803340000000  0.5394670000000  0.5073330000000 1.0
C      1  0.5313410000000  0.4815150000000  0.4050560000000 1.0
C      1  0.5030500000000  0.5048260000000  0.4460410000000 1.0
C      1  0.5312980000000  0.5634810000000  0.4650360000000 1.0
C      1  0.5282960000000  0.5798340000000  0.5502260000000 1.0
C      1  0.5101400000000  0.4511400000000  0.5114340000000 1.0
C      1  0.5823400000000  0.5780240000000  0.4940910000000 1.0
C      1  0.5008930000000  0.5981250000000  0.4978230000000 1.0
C      1  0.4848040000000  0.5227830000000  0.4577700000000 1.0
C      1  0.4235820000000  0.5412140000000  0.5448660000000 1.0
C      1  0.3434690000000  0.5492300000000  0.5383960000000 1.0
C      1  0.4403570000000  0.4486360000000  0.4857870000000 1.0
C      1  0.5610130000000  0.4810750000000  0.5107280000000 1.0
C      1  0.4901080000000  0.4580190000000  0.5837520000000 1.0
C      1  0.5539000000000  0.4282150000000  0.4628050000000 1.0
C      1  0.4352310000000  0.5507590000000  0.4966100000000 1.0
C      1  0.4911400000000  0.4790620000000  0.4432490000000 1.0
C      1  0.4522960000000  0.4258650000000  0.5330650000000 1.0
C      1  0.5004150000000  0.5730420000000  0.4198060000000 1.0
C      1  0.4726750000000  0.4709850000000  0.5316110000000 1.0
C      1  0.4441310000000  0.5234450000000  0.4294420000000 1.0
C      1  0.4046700000000  0.4685910000000  0.4454120000000 1.0
C      1  0.4823000000000  0.5204800000000  0.4856730000000 1.0
C      1  0.5229110000000  0.4241670000000  0.5089760000000 1.0
C      1  0.5257060000000  0.5077960000000  0.3935740000000 1.0
C      1  0.4723310000000  0.5180470000000  0.5976260000000 1.0
C      1  0.4826330000000  0.5131630000000  0.5535110000000 1.0
C      1  0.5845870000000  0.5654810000000  0.4682060000000 1.0
C      1  0.5471170000000  0.4523880000000  0.5458920000000 1.0
C      1  0.4453430000000  0.4767270000000  0.4899340000000 1.0
C      1  0.5362270000000  0.4186900000000  0.4828050000000 1.0
C      1  0.5140310000000  0.4707490000000  0.5936810000000 1.0
C      1  0.5174410000000  0.4340010000000  0.4253720000000 1.0
C      1  0.4694000000000  0.4175660000000  0.5096050000000 1.0
END
