TITL C-3623288-6813-1411 160617.278936584 125000 -876.289550404705 0 0 148 (C1) n - 1
REM
REM in /home/nfs/bkarasulu/CARBON/AIRSS/Generating-Clusters/LCBOP/Higher-Symm/SD-CG/FIRE-CG
REM
REM
REM
REM
REM
REM ./C.cell (b20cbc046b6831c77cfcea5457e17084)
REM AIRSS Version 0.9.1 bugfix July 2018 build 013d7b7c2542+ Fri, 06 Jul 2018 19:26:36 +0100
REM compiler GCC version 9.2.1 20190827 (Red Hat 9.2.1-1)
REM options -cpp -mtune=generic -march=x86-64 -g -O0 -fpre-include=/usr/include/finclude/math-vector-fortran.h
REM seed -757007776 669686952 258426247 -996273654 -965458108 -1715706919 1656742218 2054766932 -1994374963 222672588 -1205827086 -613831314 -638920915 -610106402 60405405 187295629 2070462950 487044519 -1749881525 -620297823 -1828613306 793713207 1001981324 -331252154 -2126650065 -1347763571 -2132557916 448136732 -1186181206 -631452733 674453312 763926347 -1754556844
REM
CELL 1.54180   50.00000   50.00000   50.00000   90.00000   90.00000   90.00000
LATT -1
SFAC C  
C      1  0.5235190000000  0.5092610000000  0.4486930000000 1.0
C      1  0.5040410000000  0.4082060000000  0.4361840000000 1.0
C      1  0.6109960000000  0.5397840000000  0.4883940000000 1.0
C      1  0.4113090000000  0.5425240000000  0.5655140000000 1.0
C      1  0.6113060000000  0.5194840000000  0.4707840000000 1.0
C      1  0.4935360000000  0.5065210000000  0.6061430000000 1.0
C      1  0.5314210000000  0.4000790000000  0.5137580000000 1.0
C      1  0.5352400000000  0.5071140000000  0.4819310000000 1.0
C      1  0.4144280000000  0.4796050000000  0.4321770000000 1.0
C      1  0.4955020000000  0.4811580000000  0.4689760000000 1.0
C      1  0.4705620000000  0.4274640000000  0.4065360000000 1.0
C      1  0.5021190000000  0.5552370000000  0.4315840000000 1.0
C      1  0.5399820000000  0.4555760000000  0.4529510000000 1.0
C      1  0.4764280000000  0.5641700000000  0.4303370000000 1.0
C      1  0.4460690000000  0.4488740000000  0.5585460000000 1.0
C      1  0.4588990000000  0.4503580000000  0.3919850000000 1.0
C      1  0.3919060000000  0.5366850000000  0.4672390000000 1.0
C      1  0.4217010000000  0.4942200000000  0.5524570000000 1.0
C      1  0.4538340000000  0.5145750000000  0.4163370000000 1.0
C      1  0.4608760000000  0.4660120000000  0.4420620000000 1.0
C      1  0.4546740000000  0.5693670000000  0.5442670000000 1.0
C      1  0.5021930000000  0.5026910000000  0.4289480000000 1.0
C      1  0.5724530000000  0.5575060000000  0.4419200000000 1.0
C      1  0.5728720000000  0.4520620000000  0.5666220000000 1.0
C      1  0.4508630000000  0.5950800000000  0.5333330000000 1.0
C      1  0.4911290000000  0.4790750000000  0.5658710000000 1.0
C      1  0.5035820000000  0.5627980000000  0.4925640000000 1.0
C      1  0.5339560000000  0.6089140000000  0.5431060000000 1.0
C      1  0.5840060000000  0.4460570000000  0.5398720000000 1.0
C      1  0.5047440000000  0.5757160000000  0.5387500000000 1.0
C      1  0.3930560000000  0.5220510000000  0.5171300000000 1.0
C      1  0.4361040000000  0.4783850000000  0.4506700000000 1.0
C      1  0.5237410000000  0.5858160000000  0.5578700000000 1.0
C      1  0.4970030000000  0.4181690000000  0.5498090000000 1.0
C      1  0.5740480000000  0.5566430000000  0.5155220000000 1.0
C      1  0.5459270000000  0.4890560000000  0.4007460000000 1.0
C      1  0.5826170000000  0.4354960000000  0.4605530000000 1.0
C      1  0.3872870000000  0.5338590000000  0.4935220000000 1.0
C      1  0.5110570000000  0.5203400000000  0.5343730000000 1.0
C      1  0.4928190000000  0.5317590000000  0.5552690000000 1.0
C      1  0.5219910000000  0.4711450000000  0.3979750000000 1.0
C      1  0.5604440000000  0.4243920000000  0.4475820000000 1.0
C      1  0.5547110000000  0.5050490000000  0.5417560000000 1.0
C      1  0.4295190000000  0.4103320000000  0.4301280000000 1.0
C      1  0.4030910000000  0.5059670000000  0.4307680000000 1.0
C      1  0.4860570000000  0.4820430000000  0.5229470000000 1.0
C      1  0.4823210000000  0.5565270000000  0.5388200000000 1.0
C      1  0.4491790000000  0.5637710000000  0.4313960000000 1.0
C      1  0.4197660000000  0.4631940000000  0.5572430000000 1.0
C      1  0.4303060000000  0.4532150000000  0.3934120000000 1.0
C      1  0.5894960000000  0.4608950000000  0.4470640000000 1.0
C      1  0.4122110000000  0.5022020000000  0.5239270000000 1.0
C      1  0.5084990000000  0.4551290000000  0.4180040000000 1.0
C      1  0.4616430000000  0.4697290000000  0.5162270000000 1.0
C      1  0.4523120000000  0.4966940000000  0.5543480000000 1.0
C      1  0.4574900000000  0.4079600000000  0.4256530000000 1.0
C      1  0.5084350000000  0.4628390000000  0.5294440000000 1.0
C      1  0.5627840000000  0.5316160000000  0.5829940000000 1.0
C      1  0.4123310000000  0.4222010000000  0.4975700000000 1.0
C      1  0.5898880000000  0.5584050000000  0.4914220000000 1.0
C      1  0.5980520000000  0.5885940000000  0.5435070000000 1.0
C      1  0.4546810000000  0.4984300000000  0.3947120000000 1.0
C      1  0.4249550000000  0.4923660000000  0.5000560000000 1.0
C      1  0.6106940000000  0.6118470000000  0.5446260000000 1.0
C      1  0.4393670000000  0.5182080000000  0.5956920000000 1.0
C      1  0.4593570000000  0.5203530000000  0.4422380000000 1.0
C      1  0.5259590000000  0.5401350000000  0.4442100000000 1.0
C      1  0.5792740000000  0.5054450000000  0.5832270000000 1.0
C      1  0.5751540000000  0.4287910000000  0.5173540000000 1.0
C      1  0.4715780000000  0.4762860000000  0.3865970000000 1.0
C      1  0.5341250000000  0.5407760000000  0.5871830000000 1.0
C      1  0.5762740000000  0.5513090000000  0.5655890000000 1.0
C      1  0.5220050000000  0.4631880000000  0.5040580000000 1.0
C      1  0.5262070000000  0.4145720000000  0.4530120000000 1.0
C      1  0.5951110000000  0.5072530000000  0.4535220000000 1.0
C      1  0.5532200000000  0.4314730000000  0.5734060000000 1.0
C      1  0.5216950000000  0.6110470000000  0.5162280000000 1.0
C      1  0.4764570000000  0.6369620000000  0.5103770000000 1.0
C      1  0.5308190000000  0.5689010000000  0.5793420000000 1.0
C      1  0.3867240000000  0.4221750000000  0.4907890000000 1.0
C      1  0.5385030000000  0.5251990000000  0.5324680000000 1.0
C      1  0.5012240000000  0.5106360000000  0.4010700000000 1.0
C      1  0.4840160000000  0.5041770000000  0.4818120000000 1.0
C      1  0.4525000000000  0.4223180000000  0.5478790000000 1.0
C      1  0.4854900000000  0.5451840000000  0.5077610000000 1.0
C      1  0.5268280000000  0.4417080000000  0.5783110000000 1.0
C      1  0.4246150000000  0.5522360000000  0.4342770000000 1.0
C      1  0.4595090000000  0.5123040000000  0.4695150000000 1.0
C      1  0.4989920000000  0.4853820000000  0.3862830000000 1.0
C      1  0.4106290000000  0.4298460000000  0.4288020000000 1.0
C      1  0.5110470000000  0.4416370000000  0.5522490000000 1.0
C      1  0.4385310000000  0.4261180000000  0.5050510000000 1.0
C      1  0.5100620000000  0.4680890000000  0.6676940000000 1.0
C      1  0.5981830000000  0.5070670000000  0.5606320000000 1.0
C      1  0.5111190000000  0.5843040000000  0.5108840000000 1.0
C      1  0.5838850000000  0.4309620000000  0.4895550000000 1.0
C      1  0.4373850000000  0.4943390000000  0.4748910000000 1.0
C      1  0.5693350000000  0.4786890000000  0.4984550000000 1.0
C      1  0.6226770000000  0.6349760000000  0.5456530000000 1.0
C      1  0.4456350000000  0.6998930000000  0.4713030000000 1.0
C      1  0.5630930000000  0.5088950000000  0.4174170000000 1.0
C      1  0.4373490000000  0.5561170000000  0.5632360000000 1.0
C      1  0.4771800000000  0.3961190000000  0.5032450000000 1.0
C      1  0.4557150000000  0.4479960000000  0.5003570000000 1.0
C      1  0.5433390000000  0.4886850000000  0.5615090000000 1.0
C      1  0.5024450000000  0.4548530000000  0.4821070000000 1.0
C      1  0.4669410000000  0.5199050000000  0.5609520000000 1.0
C      1  0.5466860000000  0.4805850000000  0.4488290000000 1.0
C      1  0.4557250000000  0.6805970000000  0.4856370000000 1.0
C      1  0.5403850000000  0.5336030000000  0.4882830000000 1.0
C      1  0.4131120000000  0.4553640000000  0.4161450000000 1.0
C      1  0.5543800000000  0.4087280000000  0.5558990000000 1.0
C      1  0.4982270000000  0.4291380000000  0.4159650000000 1.0
C      1  0.4594190000000  0.6177560000000  0.5221020000000 1.0
C      1  0.5503730000000  0.5412290000000  0.5129880000000 1.0
C      1  0.5661860000000  0.4789220000000  0.5769520000000 1.0
C      1  0.5080000000000  0.4814360000000  0.6154740000000 1.0
C      1  0.4892840000000  0.4773350000000  0.4386880000000 1.0
C      1  0.5416660000000  0.4828270000000  0.4952840000000 1.0
C      1  0.5042720000000  0.6320200000000  0.5096220000000 1.0
C      1  0.4753820000000  0.4425210000000  0.4813500000000 1.0
C      1  0.5195290000000  0.4405790000000  0.4640220000000 1.0
C      1  0.4659410000000  0.6601950000000  0.4991080000000 1.0
C      1  0.5545990000000  0.4100090000000  0.5269640000000 1.0
C      1  0.5834050000000  0.5032470000000  0.5365560000000 1.0
C      1  0.4645260000000  0.4412890000000  0.4555640000000 1.0
C      1  0.5231990000000  0.5513130000000  0.4744270000000 1.0
C      1  0.5827750000000  0.5652340000000  0.5415750000000 1.0
C      1  0.5891290000000  0.4897180000000  0.5129030000000 1.0
C      1  0.4557190000000  0.4088110000000  0.5211120000000 1.0
C      1  0.4632310000000  0.5068740000000  0.6097190000000 1.0
C      1  0.5050880000000  0.3946180000000  0.5104660000000 1.0
C      1  0.5545750000000  0.5388310000000  0.4299860000000 1.0
C      1  0.4053710000000  0.5323760000000  0.4425760000000 1.0
C      1  0.4729020000000  0.3920860000000  0.4740680000000 1.0
C      1  0.4776730000000  0.3977040000000  0.4458340000000 1.0
C      1  0.5091450000000  0.4745310000000  0.6424600000000 1.0
C      1  0.3617680000000  0.4233170000000  0.4833410000000 1.0
C      1  0.5207910000000  0.4653450000000  0.5945530000000 1.0
C      1  0.4532080000000  0.5378600000000  0.5786020000000 1.0
C      1  0.5085110000000  0.5266360000000  0.5869570000000 1.0
C      1  0.4646000000000  0.4714550000000  0.5618250000000 1.0
C      1  0.4913040000000  0.5108440000000  0.5104910000000 1.0
C      1  0.5180800000000  0.4838570000000  0.5720640000000 1.0
C      1  0.5042740000000  0.5340360000000  0.3875400000000 1.0
C      1  0.5747780000000  0.4890570000000  0.4403730000000 1.0
C      1  0.4147260000000  0.5141150000000  0.5764610000000 1.0
C      1  0.5798440000000  0.5672010000000  0.4661570000000 1.0
END
