TITL C-3623286-7563-996 -7.19665688055675e-07 125000 -575.729077143756 0 0 95 (C1) n - 1
REM
REM in /home/nfs/bkarasulu/CARBON/AIRSS/Generating-Clusters/LCBOP/Higher-Symm/SD-CG/FIRE-CG
REM
REM
REM
REM
REM
REM ./C.cell (b20cbc046b6831c77cfcea5457e17084)
REM AIRSS Version 0.9.1 bugfix July 2018 build 013d7b7c2542+ Fri, 06 Jul 2018 19:26:36 +0100
REM compiler GCC version 9.2.1 20190827 (Red Hat 9.2.1-1)
REM options -cpp -mtune=generic -march=x86-64 -g -O0 -fpre-include=/usr/include/finclude/math-vector-fortran.h
REM seed 1042511414 -1547307998 1559894190 -1181283955 -847279529 394525287 -442819858 850747992 266610595 1556900921 1107520427 -1628156487 -866842175 1450473879 -1396877844 194064081 607150065 -834216481 2108020073 759231786 -218531260 390750047 -1439778752 -1452299520 1043247647 -1640886290 -310533744 1870477250 888723329 1244006961 501215338 1645736492 -438685310
REM
CELL 1.54180   50.00000   50.00000   50.00000   90.00000   90.00000   90.00000
LATT -1
SFAC C  
C      1  0.4243740000000  0.5428130000000  0.4616200000000 1.0
C      1  0.4092020000000  0.5196390000000  0.5719000000000 1.0
C      1  0.4150220000000  0.4236450000000  0.4936710000000 1.0
C      1  0.4501550000000  0.4715430000000  0.4309520000000 1.0
C      1  0.4310950000000  0.5767960000000  0.5203520000000 1.0
C      1  0.4377940000000  0.4529140000000  0.5669060000000 1.0
C      1  0.5898810000000  0.4964430000000  0.4622620000000 1.0
C      1  0.5744240000000  0.5164870000000  0.5333190000000 1.0
C      1  0.5830700000000  0.4603270000000  0.5053120000000 1.0
C      1  0.6003580000000  0.5389450000000  0.4219280000000 1.0
C      1  0.5580660000000  0.5424850000000  0.5782260000000 1.0
C      1  0.5430690000000  0.4389840000000  0.5038120000000 1.0
C      1  0.4594190000000  0.5998420000000  0.4615760000000 1.0
C      1  0.5047120000000  0.4880350000000  0.5826940000000 1.0
C      1  0.5138050000000  0.4357440000000  0.4442390000000 1.0
C      1  0.5281360000000  0.5159760000000  0.5076010000000 1.0
C      1  0.5339950000000  0.4680280000000  0.5059420000000 1.0
C      1  0.5365160000000  0.4967000000000  0.4644510000000 1.0
C      1  0.4822370000000  0.4728010000000  0.5808300000000 1.0
C      1  0.4948650000000  0.4503660000000  0.4319530000000 1.0
C      1  0.4585110000000  0.6005210000000  0.4883760000000 1.0
C      1  0.4963690000000  0.5412470000000  0.4637840000000 1.0
C      1  0.4718440000000  0.5127600000000  0.5336350000000 1.0
C      1  0.4762050000000  0.4662160000000  0.4973150000000 1.0
C      1  0.4687940000000  0.5419990000000  0.4142910000000 1.0
C      1  0.4901180000000  0.5546140000000  0.5723660000000 1.0
C      1  0.4923990000000  0.4106810000000  0.5080580000000 1.0
C      1  0.4601030000000  0.5879730000000  0.4375330000000 1.0
C      1  0.5214530000000  0.5111440000000  0.5808100000000 1.0
C      1  0.5264420000000  0.4226160000000  0.4660280000000 1.0
C      1  0.4563700000000  0.4513930000000  0.4845720000000 1.0
C      1  0.4735630000000  0.5468900000000  0.4762410000000 1.0
C      1  0.4527210000000  0.5051200000000  0.5505160000000 1.0
C      1  0.5801530000000  0.4417110000000  0.4802680000000 1.0
C      1  0.6034180000000  0.5207410000000  0.4690200000000 1.0
C      1  0.5703020000000  0.5014990000000  0.5579160000000 1.0
C      1  0.5366100000000  0.5027450000000  0.4145560000000 1.0
C      1  0.5250760000000  0.5647880000000  0.5199460000000 1.0
C      1  0.5255290000000  0.4482500000000  0.5539830000000 1.0
C      1  0.5975690000000  0.5274030000000  0.5214380000000 1.0
C      1  0.5919080000000  0.4617050000000  0.5327240000000 1.0
C      1  0.6026600000000  0.4737200000000  0.4512880000000 1.0
C      1  0.5834750000000  0.4760960000000  0.5547830000000 1.0
C      1  0.5973460000000  0.4482410000000  0.4588350000000 1.0
C      1  0.6069240000000  0.5279180000000  0.4961110000000 1.0
C      1  0.5070060000000  0.4317830000000  0.5680550000000 1.0
C      1  0.5152790000000  0.4912330000000  0.3995900000000 1.0
C      1  0.5056010000000  0.5856900000000  0.5175100000000 1.0
C      1  0.4003980000000  0.4559710000000  0.5291870000000 1.0
C      1  0.4105390000000  0.4949900000000  0.4587200000000 1.0
C      1  0.3967640000000  0.5358300000000  0.5265510000000 1.0
C      1  0.5064670000000  0.5358350000000  0.5831310000000 1.0
C      1  0.5080240000000  0.4101430000000  0.4854540000000 1.0
C      1  0.4621060000000  0.5672390000000  0.4206290000000 1.0
C      1  0.4884770000000  0.5347290000000  0.5299120000000 1.0
C      1  0.4886390000000  0.4560480000000  0.5206080000000 1.0
C      1  0.5044700000000  0.5256500000000  0.4422420000000 1.0
C      1  0.4560920000000  0.5881720000000  0.5138190000000 1.0
C      1  0.4655500000000  0.4518540000000  0.5698120000000 1.0
C      1  0.4772780000000  0.4710340000000  0.4232660000000 1.0
C      1  0.5574080000000  0.5629660000000  0.5607520000000 1.0
C      1  0.5539760000000  0.4250550000000  0.5258200000000 1.0
C      1  0.5821390000000  0.5279020000000  0.4058200000000 1.0
C      1  0.5151010000000  0.4639720000000  0.5304620000000 1.0
C      1  0.5281820000000  0.5098590000000  0.4411860000000 1.0
C      1  0.5140770000000  0.5378610000000  0.5174740000000 1.0
C      1  0.5603070000000  0.5127470000000  0.4039000000000 1.0
C      1  0.5471350000000  0.5692310000000  0.5368110000000 1.0
C      1  0.5501080000000  0.4350110000000  0.5504800000000 1.0
C      1  0.4811850000000  0.5579920000000  0.5456850000000 1.0
C      1  0.4823220000000  0.4287310000000  0.5280920000000 1.0
C      1  0.4850040000000  0.5202470000000  0.4215530000000 1.0
C      1  0.3927090000000  0.5312250000000  0.5541620000000 1.0
C      1  0.3994580000000  0.4324390000000  0.5136450000000 1.0
C      1  0.4103370000000  0.5223190000000  0.4519570000000 1.0
C      1  0.4373700000000  0.4328940000000  0.4823350000000 1.0
C      1  0.4470990000000  0.5476820000000  0.4744790000000 1.0
C      1  0.4335950000000  0.5092000000000  0.5686160000000 1.0
C      1  0.5621990000000  0.4819500000000  0.5011320000000 1.0
C      1  0.5637330000000  0.4916610000000  0.4721440000000 1.0
C      1  0.5553510000000  0.5084840000000  0.5145160000000 1.0
C      1  0.4151170000000  0.4551320000000  0.5530680000000 1.0
C      1  0.4276050000000  0.4784320000000  0.4436120000000 1.0
C      1  0.4110160000000  0.5591830000000  0.5199270000000 1.0
C      1  0.4795470000000  0.5812590000000  0.5286800000000 1.0
C      1  0.4807900000000  0.4305460000000  0.5572790000000 1.0
C      1  0.4888080000000  0.4939850000000  0.4103160000000 1.0
C      1  0.3929080000000  0.5144360000000  0.5096280000000 1.0
C      1  0.3935060000000  0.4794700000000  0.5167470000000 1.0
C      1  0.3990490000000  0.4889660000000  0.4829350000000 1.0
C      1  0.5504730000000  0.5148270000000  0.5752170000000 1.0
C      1  0.5521910000000  0.4314440000000  0.4778490000000 1.0
C      1  0.6090460000000  0.5375460000000  0.4472360000000 1.0
C      1  0.4901940000000  0.4870470000000  0.4851770000000 1.0
C      1  0.5184020000000  0.4922780000000  0.4893800000000 1.0
END
