TITL C-3623283-6828-1804 313.244086612514 125000 -423.584273269766 0 0 71 (C1) n - 1
REM
REM in /home/nfs/bkarasulu/CARBON/AIRSS/Generating-Clusters/LCBOP/Higher-Symm/SD-CG/FIRE-CG
REM
REM
REM
REM
REM
REM ./C.cell (b20cbc046b6831c77cfcea5457e17084)
REM AIRSS Version 0.9.1 bugfix July 2018 build 013d7b7c2542+ Fri, 06 Jul 2018 19:26:36 +0100
REM compiler GCC version 9.2.1 20190827 (Red Hat 9.2.1-1)
REM options -cpp -mtune=generic -march=x86-64 -g -O0 -fpre-include=/usr/include/finclude/math-vector-fortran.h
REM seed -684998153 502679175 1791796336 294214892 -1298778826 -1569924379 934287579 1190274064 1422102810 -1847837968 1328056140 292378943 35959015 -1049687373 1009092006 -1003611496 882658020 -1787173564 -861809352 854832555 -1067282034 1203821610 -170153749 641338279 1588479324 467036334 1392231197 327361638 -2082331236 731377390 1911923124 -1401611091 -216027438
REM
CELL 1.54180   50.00000   50.00000   50.00000   90.00000   90.00000   90.00000
LATT -1
SFAC C  
C      1  0.4915980000000  0.4946880000000  0.4268210000000 1.0
C      1  0.4925790000000  0.4392810000000  0.4590560000000 1.0
C      1  0.4931810000000  0.4306980000000  0.5221850000000 1.0
C      1  0.4876090000000  0.4702740000000  0.5657890000000 1.0
C      1  0.4901520000000  0.5342520000000  0.5682640000000 1.0
C      1  0.4913100000000  0.5722550000000  0.5156250000000 1.0
C      1  0.4897310000000  0.5542650000000  0.4528010000000 1.0
C      1  0.4610970000000  0.5546660000000  0.4522100000000 1.0
C      1  0.4632300000000  0.4951730000000  0.4256510000000 1.0
C      1  0.4642560000000  0.4374760000000  0.4587700000000 1.0
C      1  0.4645430000000  0.4304360000000  0.5229820000000 1.0
C      1  0.4593860000000  0.4704530000000  0.5680030000000 1.0
C      1  0.4618470000000  0.5350980000000  0.5688430000000 1.0
C      1  0.4629600000000  0.5748040000000  0.5147790000000 1.0
C      1  0.5597280000000  0.5569780000000  0.4848860000000 1.0
C      1  0.5599990000000  0.5225040000000  0.4452240000000 1.0
C      1  0.5637040000000  0.4684120000000  0.4457450000000 1.0
C      1  0.5632920000000  0.4384920000000  0.4898470000000 1.0
C      1  0.5615000000000  0.4531140000000  0.5396370000000 1.0
C      1  0.5556900000000  0.4999100000000  0.5583790000000 1.0
C      1  0.5610310000000  0.5476280000000  0.5381790000000 1.0
C      1  0.4248670000000  0.5168640000000  0.5306090000000 1.0
C      1  0.4237120000000  0.5339640000000  0.5061720000000 1.0
C      1  0.4219070000000  0.5262590000000  0.4775310000000 1.0
C      1  0.4244240000000  0.4985260000000  0.4676010000000 1.0
C      1  0.4254040000000  0.4727610000000  0.4827790000000 1.0
C      1  0.4273280000000  0.4697510000000  0.5122380000000 1.0
C      1  0.4221120000000  0.4878990000000  0.5341950000000 1.0
C      1  0.4347360000000  0.4779300000000  0.5588070000000 1.0
C      1  0.4492460000000  0.5238210000000  0.5463570000000 1.0
C      1  0.4477890000000  0.5520840000000  0.5066280000000 1.0
C      1  0.4363840000000  0.5455550000000  0.4600290000000 1.0
C      1  0.4485940000000  0.4992480000000  0.4496800000000 1.0
C      1  0.4496810000000  0.4571400000000  0.4730020000000 1.0
C      1  0.4526860000000  0.4557870000000  0.5193260000000 1.0
C      1  0.5233350000000  0.5347920000000  0.4983800000000 1.0
C      1  0.5234590000000  0.5060550000000  0.4651750000000 1.0
C      1  0.5292340000000  0.4804470000000  0.4699770000000 1.0
C      1  0.5295490000000  0.4672060000000  0.4935730000000 1.0
C      1  0.5280220000000  0.4754570000000  0.5195450000000 1.0
C      1  0.5162730000000  0.4992930000000  0.5309410000000 1.0
C      1  0.5255950000000  0.5257140000000  0.5234600000000 1.0
C      1  0.5269760000000  0.4990340000000  0.5595490000000 1.0
C      1  0.5320450000000  0.5470860000000  0.5412810000000 1.0
C      1  0.5311430000000  0.5597170000000  0.4870700000000 1.0
C      1  0.5313310000000  0.5212790000000  0.4423350000000 1.0
C      1  0.5344450000000  0.4664890000000  0.4456600000000 1.0
C      1  0.5343350000000  0.4387900000000  0.4905190000000 1.0
C      1  0.5326870000000  0.4546180000000  0.5395350000000 1.0
C      1  0.4684150000000  0.5319420000000  0.5041120000000 1.0
C      1  0.4808490000000  0.5205310000000  0.4824280000000 1.0
C      1  0.4693050000000  0.4993060000000  0.4698560000000 1.0
C      1  0.4708880000000  0.4750480000000  0.4831660000000 1.0
C      1  0.4743530000000  0.4740520000000  0.5112190000000 1.0
C      1  0.4866730000000  0.4948630000000  0.5259750000000 1.0
C      1  0.4704170000000  0.5173260000000  0.5277760000000 1.0
C      1  0.5728460000000  0.5000000000000  0.5339680000000 1.0
C      1  0.5740740000000  0.5263520000000  0.5211690000000 1.0
C      1  0.5735550000000  0.5314920000000  0.4919500000000 1.0
C      1  0.5741780000000  0.5120770000000  0.4693990000000 1.0
C      1  0.5766890000000  0.4821970000000  0.4697970000000 1.0
C      1  0.5772510000000  0.4648230000000  0.4941340000000 1.0
C      1  0.5760050000000  0.4730860000000  0.5226330000000 1.0
C      1  0.5051690000000  0.5284360000000  0.4328090000000 1.0
C      1  0.5068270000000  0.4634330000000  0.4367710000000 1.0
C      1  0.5074670000000  0.4294330000000  0.4897170000000 1.0
C      1  0.5054540000000  0.4465340000000  0.5455250000000 1.0
C      1  0.5027540000000  0.5019080000000  0.5732340000000 1.0
C      1  0.5054260000000  0.5574660000000  0.5456120000000 1.0
C      1  0.5050210000000  0.5702950000000  0.4814150000000 1.0
C      1  0.5080390000000  0.5199220000000  0.4821560000000 1.0
END
