TITL C-3623282-6910-1907 -1.09650198176e-06 125000 -498.822464636762 0 0 80 (C5) n - 1
REM
REM in /home/nfs/bkarasulu/CARBON/AIRSS/Generating-Clusters/LCBOP/Higher-Symm/SD-CG/FIRE-CG
REM
REM
REM
REM
REM
REM ./C.cell (b20cbc046b6831c77cfcea5457e17084)
REM AIRSS Version 0.9.1 bugfix July 2018 build 013d7b7c2542+ Fri, 06 Jul 2018 19:26:36 +0100
REM compiler GCC version 9.2.1 20190827 (Red Hat 9.2.1-1)
REM options -cpp -mtune=generic -march=x86-64 -g -O0 -fpre-include=/usr/include/finclude/math-vector-fortran.h
REM seed -752213324 -1958546465 -1861762027 -1490902566 1117916417 -1087467482 826122955 -2081616119 1637946541 -178678157 -743081356 106634372 934544600 -536085424 -1005622315 -2026170551 1913647133 477777183 978423244 394079996 360329394 969511037 1788979080 -782939071 347454933 1284753693 -195209781 -1782042615 2075745323 354204033 -425354284 809903197 -1506414041
REM
CELL 1.54180   50.00000   50.00000   50.00000   90.00000   90.00000   90.00000
LATT -1
SFAC C  
C      1  0.4768210000000  0.4854910000000  0.4802820000000 1.0
C      1  0.4768210000000  0.5142700000000  0.4801080000000 1.0
C      1  0.4768210000000  0.5233280000000  0.5074240000000 1.0
C      1  0.4768210000000  0.5001480000000  0.5244810000000 1.0
C      1  0.4768210000000  0.4767630000000  0.5077060000000 1.0
C      1  0.5231790000000  0.4854910000000  0.4802820000000 1.0
C      1  0.5231790000000  0.5142700000000  0.4801080000000 1.0
C      1  0.5231790000000  0.5233280000000  0.5074240000000 1.0
C      1  0.5231790000000  0.5001480000000  0.5244810000000 1.0
C      1  0.5231790000000  0.4767630000000  0.5077060000000 1.0
C      1  0.5383640000000  0.4292450000000  0.4824850000000 1.0
C      1  0.5383640000000  0.4947930000000  0.4272950000000 1.0
C      1  0.5383640000000  0.5675370000000  0.4725810000000 1.0
C      1  0.5383640000000  0.5469470000000  0.5557590000000 1.0
C      1  0.5383640000000  0.4614780000000  0.5618800000000 1.0
C      1  0.4616360000000  0.4292450000000  0.4824850000000 1.0
C      1  0.4616360000000  0.4947930000000  0.4272950000000 1.0
C      1  0.4616360000000  0.5675370000000  0.4725810000000 1.0
C      1  0.4616360000000  0.5469470000000  0.5557590000000 1.0
C      1  0.4616360000000  0.4614780000000  0.5618800000000 1.0
C      1  0.4437800000000  0.4333220000000  0.5275750000000 1.0
C      1  0.4437800000000  0.4531700000000  0.4451060000000 1.0
C      1  0.4437800000000  0.5377360000000  0.4384990000000 1.0
C      1  0.4437800000000  0.5701520000000  0.5168840000000 1.0
C      1  0.4437800000000  0.5056200000000  0.5719360000000 1.0
C      1  0.5562200000000  0.4333210000000  0.5275750000000 1.0
C      1  0.5562200000000  0.4531700000000  0.4451060000000 1.0
C      1  0.5562200000000  0.5377360000000  0.4384990000000 1.0
C      1  0.5562200000000  0.5701520000000  0.5168840000000 1.0
C      1  0.5562200000000  0.5056200000000  0.5719360000000 1.0
C      1  0.4860680000000  0.5486150000000  0.5170290000000 1.0
C      1  0.4860680000000  0.4988270000000  0.5514980000000 1.0
C      1  0.4860680000000  0.4506600000000  0.5147980000000 1.0
C      1  0.4860680000000  0.4706790000000  0.4576470000000 1.0
C      1  0.4860680000000  0.5312190000000  0.4590260000000 1.0
C      1  0.5139320000000  0.5486150000000  0.5170290000000 1.0
C      1  0.5139320000000  0.4988270000000  0.5514980000000 1.0
C      1  0.5139320000000  0.4506600000000  0.5147980000000 1.0
C      1  0.5139320000000  0.4706790000000  0.4576470000000 1.0
C      1  0.5139320000000  0.5312190000000  0.4590260000000 1.0
C      1  0.5138530000000  0.5826540000000  0.4786360000000 1.0
C      1  0.5138530000000  0.5458600000000  0.5720070000000 1.0
C      1  0.5138530000000  0.4456890000000  0.5658660000000 1.0
C      1  0.5138530000000  0.4205740000000  0.4687010000000 1.0
C      1  0.5138530000000  0.5052230000000  0.4147900000000 1.0
C      1  0.4861470000000  0.5826540000000  0.4786360000000 1.0
C      1  0.4861470000000  0.5458600000000  0.5720070000000 1.0
C      1  0.4861470000000  0.4456890000000  0.5658670000000 1.0
C      1  0.4861470000000  0.4205740000000  0.4687010000000 1.0
C      1  0.4861470000000  0.5052230000000  0.4147900000000 1.0
C      1  0.4319430000000  0.4751730000000  0.4883930000000 1.0
C      1  0.4319430000000  0.5033670000000  0.4728010000000 1.0
C      1  0.4319430000000  0.5269080000000  0.4947970000000 1.0
C      1  0.4319430000000  0.5132630000000  0.5239830000000 1.0
C      1  0.4319430000000  0.4812890000000  0.5200250000000 1.0
C      1  0.5680570000000  0.4751730000000  0.4883930000000 1.0
C      1  0.5680570000000  0.5033670000000  0.4728010000000 1.0
C      1  0.5680570000000  0.5269080000000  0.4947970000000 1.0
C      1  0.5680570000000  0.5132630000000  0.5239830000000 1.0
C      1  0.5680570000000  0.4812890000000  0.5200250000000 1.0
C      1  0.4414190000000  0.4494950000000  0.4734880000000 1.0
C      1  0.4414200000000  0.5096080000000  0.4437750000000 1.0
C      1  0.4414200000000  0.5564430000000  0.4917630000000 1.0
C      1  0.4414200000000  0.5252760000000  0.5511340000000 1.0
C      1  0.4414200000000  0.4591790000000  0.5398400000000 1.0
C      1  0.5585800000000  0.4494950000000  0.4734880000000 1.0
C      1  0.5585800000000  0.5096070000000  0.4437750000000 1.0
C      1  0.5585810000000  0.5564420000000  0.4917630000000 1.0
C      1  0.5585810000000  0.5252760000000  0.5511340000000 1.0
C      1  0.5585800000000  0.4591790000000  0.5398400000000 1.0
C      1  0.4660340000000  0.4308400000000  0.5105020000000 1.0
C      1  0.4660340000000  0.4686400000000  0.4374700000000 1.0
C      1  0.4660340000000  0.5497790000000  0.4508520000000 1.0
C      1  0.4660340000000  0.5621250000000  0.5321550000000 1.0
C      1  0.4660340000000  0.4886170000000  0.5690210000000 1.0
C      1  0.5339660000000  0.4308400000000  0.5105020000000 1.0
C      1  0.5339660000000  0.4686400000000  0.4374700000000 1.0
C      1  0.5339660000000  0.5497780000000  0.4508520000000 1.0
C      1  0.5339660000000  0.5621250000000  0.5321550000000 1.0
C      1  0.5339660000000  0.4886170000000  0.5690210000000 1.0
END
