TITL C-3623288-6813-1972 -1.09677202703667e-06 125000 -791.323771110953 0 0 130 (C1) n - 1
REM
REM in /home/nfs/bkarasulu/CARBON/AIRSS/Generating-Clusters/LCBOP/Higher-Symm/SD-CG/FIRE-CG
REM
REM
REM
REM
REM
REM ./C.cell (b20cbc046b6831c77cfcea5457e17084)
REM AIRSS Version 0.9.1 bugfix July 2018 build 013d7b7c2542+ Fri, 06 Jul 2018 19:26:36 +0100
REM compiler GCC version 9.2.1 20190827 (Red Hat 9.2.1-1)
REM options -cpp -mtune=generic -march=x86-64 -g -O0 -fpre-include=/usr/include/finclude/math-vector-fortran.h
REM seed -487927734 445338677 -402294771 694376488 714771497 -1247387103 -1833929964 -850635871 1250886068 -834217797 1049633153 -1201737539 539924650 1658676150 2142249341 -395127668 2113967057 1072467780 -820754583 957207409 -1748254928 -526380548 -1276007962 1020971632 1465478502 731204526 -2016561166 -1657095147 -1674834975 34955305 -1161445468 -2073045046 -534813768
REM
CELL 1.54180   50.00000   50.00000   50.00000   90.00000   90.00000   90.00000
LATT -1
SFAC C  
C      1  0.4606270000000  0.4322530000000  0.5361840000000 1.0
C      1  0.5541360000000  0.5695680000000  0.4765800000000 1.0
C      1  0.4510280000000  0.4340940000000  0.4189130000000 1.0
C      1  0.5644120000000  0.5772320000000  0.5928650000000 1.0
C      1  0.5788580000000  0.4839140000000  0.4263930000000 1.0
C      1  0.4144560000000  0.5103850000000  0.5755020000000 1.0
C      1  0.4369770000000  0.4415040000000  0.4427320000000 1.0
C      1  0.5605000000000  0.5950310000000  0.5734220000000 1.0
C      1  0.5645860000000  0.5516860000000  0.6003400000000 1.0
C      1  0.4579740000000  0.4506790000000  0.3984770000000 1.0
C      1  0.5364120000000  0.4731580000000  0.4034630000000 1.0
C      1  0.4428060000000  0.5345710000000  0.6051940000000 1.0
C      1  0.4165230000000  0.4839280000000  0.4623810000000 1.0
C      1  0.6021790000000  0.5231500000000  0.5506760000000 1.0
C      1  0.4927910000000  0.4598440000000  0.4515670000000 1.0
C      1  0.4919890000000  0.5559860000000  0.5455950000000 1.0
C      1  0.4284880000000  0.4836700000000  0.4164170000000 1.0
C      1  0.5596520000000  0.5118560000000  0.5716490000000 1.0
C      1  0.5556950000000  0.5252240000000  0.5971660000000 1.0
C      1  0.4499320000000  0.4775910000000  0.3972970000000 1.0
C      1  0.5289820000000  0.4236410000000  0.4895380000000 1.0
C      1  0.4451520000000  0.5813330000000  0.5112280000000 1.0
C      1  0.5750400000000  0.5280840000000  0.5522080000000 1.0
C      1  0.4256530000000  0.4686640000000  0.4406520000000 1.0
C      1  0.5880160000000  0.4528520000000  0.5189030000000 1.0
C      1  0.4107470000000  0.5318640000000  0.4296010000000 1.0
C      1  0.4280360000000  0.5354370000000  0.5807300000000 1.0
C      1  0.5574650000000  0.4660920000000  0.4226520000000 1.0
C      1  0.5132160000000  0.5746170000000  0.4424580000000 1.0
C      1  0.5101300000000  0.4217740000000  0.5547880000000 1.0
C      1  0.5449930000000  0.4665820000000  0.4694450000000 1.0
C      1  0.4557870000000  0.5197380000000  0.5486820000000 1.0
C      1  0.4933110000000  0.5548600000000  0.4472490000000 1.0
C      1  0.5324370000000  0.4358900000000  0.5621010000000 1.0
C      1  0.5361690000000  0.3766740000000  0.5182560000000 1.0
C      1  0.4691470000000  0.6055640000000  0.4661440000000 1.0
C      1  0.5642130000000  0.5485580000000  0.5342990000000 1.0
C      1  0.4315090000000  0.4610180000000  0.4980290000000 1.0
C      1  0.5405970000000  0.6154610000000  0.5304530000000 1.0
C      1  0.4582440000000  0.4029920000000  0.4719540000000 1.0
C      1  0.5980600000000  0.4014390000000  0.4898610000000 1.0
C      1  0.4076540000000  0.5655680000000  0.4709110000000 1.0
C      1  0.5107380000000  0.5107040000000  0.3875730000000 1.0
C      1  0.4869270000000  0.5159630000000  0.6206160000000 1.0
C      1  0.5441620000000  0.4867480000000  0.5684030000000 1.0
C      1  0.4213120000000  0.5110970000000  0.4132460000000 1.0
C      1  0.5481670000000  0.4581680000000  0.5660290000000 1.0
C      1  0.4419450000000  0.5241190000000  0.3955570000000 1.0
C      1  0.5246380000000  0.5196470000000  0.5246410000000 1.0
C      1  0.4714360000000  0.4901380000000  0.4853590000000 1.0
C      1  0.5095460000000  0.3784100000000  0.5159350000000 1.0
C      1  0.4933070000000  0.6116930000000  0.4768410000000 1.0
C      1  0.5064640000000  0.5311980000000  0.5442930000000 1.0
C      1  0.4833690000000  0.4858100000000  0.4593840000000 1.0
C      1  0.5209280000000  0.6060130000000  0.4805330000000 1.0
C      1  0.4867500000000  0.3945690000000  0.5179780000000 1.0
C      1  0.4594070000000  0.5029430000000  0.3864940000000 1.0
C      1  0.5380240000000  0.5151060000000  0.6164890000000 1.0
C      1  0.4505650000000  0.5130870000000  0.5218210000000 1.0
C      1  0.5459270000000  0.4932220000000  0.4832340000000 1.0
C      1  0.5384390000000  0.5141120000000  0.4601830000000 1.0
C      1  0.4701270000000  0.4787640000000  0.5717180000000 1.0
C      1  0.4721990000000  0.5092200000000  0.5732850000000 1.0
C      1  0.5211620000000  0.5057840000000  0.4358720000000 1.0
C      1  0.4758490000000  0.5409390000000  0.4915260000000 1.0
C      1  0.5181500000000  0.4687900000000  0.5166350000000 1.0
C      1  0.3804840000000  0.5236080000000  0.4882380000000 1.0
C      1  0.6190300000000  0.4413020000000  0.4682030000000 1.0
C      1  0.5614390000000  0.5877320000000  0.5002580000000 1.0
C      1  0.4454600000000  0.4177820000000  0.5133110000000 1.0
C      1  0.4301020000000  0.6002220000000  0.5210820000000 1.0
C      1  0.5297710000000  0.4058700000000  0.4704040000000 1.0
C      1  0.4438450000000  0.4396090000000  0.5599210000000 1.0
C      1  0.5718040000000  0.5544400000000  0.4572960000000 1.0
C      1  0.4644520000000  0.3988630000000  0.5001690000000 1.0
C      1  0.5397390000000  0.6089210000000  0.5023420000000 1.0
C      1  0.4856200000000  0.5083030000000  0.3786440000000 1.0
C      1  0.5130050000000  0.5134780000000  0.6255370000000 1.0
C      1  0.5156310000000  0.4530570000000  0.4075380000000 1.0
C      1  0.4349970000000  0.5463700000000  0.6283820000000 1.0
C      1  0.5013570000000  0.5147600000000  0.5665350000000 1.0
C      1  0.4925400000000  0.5067550000000  0.4417340000000 1.0
C      1  0.5402730000000  0.5483700000000  0.4919690000000 1.0
C      1  0.4722460000000  0.4565760000000  0.5224120000000 1.0
C      1  0.4429390000000  0.5516500000000  0.4046270000000 1.0
C      1  0.5949190000000  0.4226880000000  0.5559260000000 1.0
C      1  0.5877890000000  0.4267650000000  0.5297890000000 1.0
C      1  0.4265380000000  0.5566120000000  0.4282280000000 1.0
C      1  0.5266920000000  0.4996800000000  0.4079100000000 1.0
C      1  0.4668110000000  0.5196060000000  0.6014000000000 1.0
C      1  0.5610200000000  0.3865080000000  0.5182850000000 1.0
C      1  0.4475770000000  0.5922630000000  0.4565690000000 1.0
C      1  0.5226460000000  0.5337920000000  0.4763230000000 1.0
C      1  0.4960000000000  0.4714830000000  0.5609700000000 1.0
C      1  0.6117270000000  0.4646980000000  0.4791790000000 1.0
C      1  0.3850970000000  0.4971590000000  0.4929620000000 1.0
C      1  0.4960840000000  0.4658610000000  0.5334240000000 1.0
C      1  0.4969700000000  0.5442570000000  0.4737770000000 1.0
C      1  0.5442100000000  0.5385300000000  0.5173270000000 1.0
C      1  0.4594050000000  0.4687570000000  0.5005600000000 1.0
C      1  0.3906780000000  0.5476650000000  0.4816840000000 1.0
C      1  0.6127910000000  0.4155840000000  0.4725540000000 1.0
C      1  0.4444860000000  0.4667760000000  0.5691880000000 1.0
C      1  0.5647580000000  0.5270550000000  0.4505430000000 1.0
C      1  0.4255510000000  0.5039520000000  0.5130620000000 1.0
C      1  0.5745480000000  0.4931490000000  0.4937400000000 1.0
C      1  0.5417590000000  0.4545590000000  0.4446690000000 1.0
C      1  0.4449790000000  0.5452150000000  0.5591350000000 1.0
C      1  0.4221250000000  0.4843490000000  0.5725420000000 1.0
C      1  0.5812100000000  0.5090360000000  0.4359320000000 1.0
C      1  0.4390910000000  0.4248660000000  0.4661790000000 1.0
C      1  0.5571080000000  0.5976320000000  0.5459780000000 1.0
C      1  0.4688320000000  0.5149990000000  0.4997440000000 1.0
C      1  0.5275770000000  0.4946310000000  0.5088340000000 1.0
C      1  0.5927950000000  0.4720980000000  0.4987420000000 1.0
C      1  0.4131840000000  0.4848870000000  0.4923740000000 1.0
C      1  0.4820230000000  0.5322280000000  0.4339990000000 1.0
C      1  0.5160430000000  0.4907070000000  0.5688310000000 1.0
C      1  0.5822470000000  0.4041490000000  0.5129950000000 1.0
C      1  0.4272330000000  0.5729360000000  0.4514450000000 1.0
C      1  0.5139430000000  0.4487680000000  0.4362450000000 1.0
C      1  0.4671240000000  0.5631630000000  0.5551430000000 1.0
C      1  0.4287030000000  0.4205420000000  0.5725060000000 1.0
C      1  0.5938850000000  0.5666950000000  0.4466180000000 1.0
C      1  0.4863920000000  0.4142810000000  0.5400730000000 1.0
C      1  0.5313540000000  0.5855870000000  0.4620240000000 1.0
C      1  0.5278110000000  0.4449150000000  0.5054170000000 1.0
C      1  0.4609580000000  0.5628180000000  0.5005830000000 1.0
C      1  0.4306140000000  0.4332230000000  0.4933070000000 1.0
C      1  0.5678610000000  0.5769390000000  0.5280810000000 1.0
END
