TITL C-3623283-6828-824 2.78099154873112e-06 125000 -745.508891963404 0 0 124 (C1) n - 1
REM
REM in /home/nfs/bkarasulu/CARBON/AIRSS/Generating-Clusters/LCBOP/Higher-Symm/SD-CG/FIRE-CG
REM
REM
REM
REM
REM
REM ./C.cell (b20cbc046b6831c77cfcea5457e17084)
REM AIRSS Version 0.9.1 bugfix July 2018 build 013d7b7c2542+ Fri, 06 Jul 2018 19:26:36 +0100
REM compiler GCC version 9.2.1 20190827 (Red Hat 9.2.1-1)
REM options -cpp -mtune=generic -march=x86-64 -g -O0 -fpre-include=/usr/include/finclude/math-vector-fortran.h
REM seed 1289195927 -1388972341 98968361 1541803237 -1903096296 1172340508 -1146489478 1334520127 -1334140725 816411832 -1556527531 1751110718 602962352 -1621864628 -838108720 -689148430 9203303 -1553037641 -792477185 -726030350 -108154264 100329335 2147433183 1046024092 658003056 -2026763467 1428655087 -374385702 1300441765 819803609 -1938233256 1971642 -1424511671
REM
CELL 1.54180   50.00000   50.00000   50.00000   90.00000   90.00000   90.00000
LATT -1
SFAC C  
C      1  0.5405660000000  0.5012840000000  0.5239710000000 1.0
C      1  0.5515390000000  0.5029900000000  0.4980740000000 1.0
C      1  0.5106530000000  0.5031600000000  0.4530930000000 1.0
C      1  0.4831960000000  0.5017530000000  0.4395570000000 1.0
C      1  0.4587100000000  0.5039970000000  0.4575680000000 1.0
C      1  0.4591200000000  0.4982290000000  0.5483570000000 1.0
C      1  0.4733530000000  0.4976910000000  0.5730420000000 1.0
C      1  0.4223920000000  0.4693560000000  0.5330980000000 1.0
C      1  0.4949660000000  0.4643380000000  0.6039860000000 1.0
C      1  0.5562050000000  0.4751610000000  0.5639220000000 1.0
C      1  0.5741740000000  0.4774190000000  0.4649270000000 1.0
C      1  0.5436050000000  0.4767890000000  0.4326440000000 1.0
C      1  0.4723160000000  0.4639540000000  0.4048190000000 1.0
C      1  0.4180140000000  0.4765000000000  0.4643080000000 1.0
C      1  0.4456180000000  0.5267380000000  0.4660370000000 1.0
C      1  0.4539740000000  0.5205030000000  0.5330400000000 1.0
C      1  0.4741610000000  0.5207000000000  0.5889660000000 1.0
C      1  0.5236180000000  0.5195680000000  0.5351530000000 1.0
C      1  0.5731100000000  0.5204830000000  0.4955150000000 1.0
C      1  0.5264050000000  0.5261400000000  0.4512050000000 1.0
C      1  0.4819140000000  0.5220480000000  0.4182380000000 1.0
C      1  0.5579410000000  0.5769320000000  0.4723830000000 1.0
C      1  0.5160140000000  0.5777490000000  0.4371710000000 1.0
C      1  0.4629030000000  0.5818160000000  0.4475950000000 1.0
C      1  0.4395050000000  0.5787920000000  0.4982310000000 1.0
C      1  0.4615240000000  0.5742440000000  0.5466170000000 1.0
C      1  0.5148350000000  0.5794890000000  0.5597580000000 1.0
C      1  0.5555550000000  0.5739280000000  0.5268660000000 1.0
C      1  0.4429060000000  0.5640480000000  0.4368980000000 1.0
C      1  0.4239510000000  0.5563900000000  0.5061660000000 1.0
C      1  0.4490510000000  0.5579290000000  0.5671110000000 1.0
C      1  0.5202210000000  0.5546460000000  0.5726580000000 1.0
C      1  0.5761790000000  0.5549510000000  0.5317660000000 1.0
C      1  0.5696780000000  0.5552280000000  0.4579140000000 1.0
C      1  0.5148890000000  0.5603770000000  0.4143210000000 1.0
C      1  0.5320630000000  0.5455930000000  0.5967720000000 1.0
C      1  0.5857580000000  0.5433190000000  0.5558160000000 1.0
C      1  0.5962720000000  0.5452060000000  0.4556100000000 1.0
C      1  0.5357900000000  0.5483950000000  0.3989650000000 1.0
C      1  0.4367100000000  0.5498170000000  0.4124220000000 1.0
C      1  0.3971150000000  0.5489700000000  0.5016410000000 1.0
C      1  0.4233590000000  0.5445730000000  0.5675070000000 1.0
C      1  0.4017040000000  0.4957130000000  0.5757670000000 1.0
C      1  0.5439500000000  0.4965140000000  0.6139280000000 1.0
C      1  0.6053140000000  0.4965660000000  0.5723420000000 1.0
C      1  0.6218060000000  0.4982940000000  0.4550040000000 1.0
C      1  0.5434720000000  0.4985800000000  0.3814630000000 1.0
C      1  0.4245120000000  0.4977520000000  0.4036020000000 1.0
C      1  0.3775410000000  0.5002900000000  0.5015230000000 1.0
C      1  0.5285740000000  0.4110120000000  0.5217180000000 1.0
C      1  0.5342840000000  0.4103900000000  0.4920900000000 1.0
C      1  0.5153560000000  0.4093560000000  0.4696260000000 1.0
C      1  0.4854820000000  0.4089430000000  0.4697450000000 1.0
C      1  0.4699320000000  0.4157220000000  0.4941670000000 1.0
C      1  0.4746180000000  0.4115850000000  0.5229790000000 1.0
C      1  0.5024550000000  0.4115560000000  0.5357320000000 1.0
C      1  0.4631710000000  0.4503710000000  0.5456120000000 1.0
C      1  0.4903790000000  0.4539370000000  0.5563480000000 1.0
C      1  0.5449000000000  0.4544140000000  0.5236620000000 1.0
C      1  0.5485030000000  0.4544310000000  0.4960020000000 1.0
C      1  0.5116350000000  0.4531100000000  0.4576990000000 1.0
C      1  0.4826610000000  0.4529000000000  0.4516590000000 1.0
C      1  0.4616330000000  0.4586010000000  0.4721160000000 1.0
C      1  0.4268780000000  0.4704540000000  0.4049390000000 1.0
C      1  0.3843950000000  0.4746130000000  0.4970330000000 1.0
C      1  0.3996390000000  0.4686250000000  0.5718020000000 1.0
C      1  0.5403740000000  0.4696190000000  0.6128740000000 1.0
C      1  0.6009470000000  0.4697220000000  0.5734690000000 1.0
C      1  0.6184040000000  0.4713770000000  0.4583200000000 1.0
C      1  0.5430510000000  0.4719050000000  0.3868830000000 1.0
C      1  0.5941980000000  0.4573770000000  0.4640180000000 1.0
C      1  0.5424210000000  0.4579990000000  0.4115720000000 1.0
C      1  0.4472580000000  0.4501610000000  0.4077140000000 1.0
C      1  0.4050790000000  0.4606630000000  0.4839210000000 1.0
C      1  0.4101830000000  0.4508140000000  0.5516260000000 1.0
C      1  0.5202720000000  0.4513270000000  0.6045390000000 1.0
C      1  0.5768250000000  0.4557830000000  0.5682170000000 1.0
C      1  0.5463940000000  0.4781230000000  0.5382180000000 1.0
C      1  0.5484010000000  0.4796500000000  0.4798810000000 1.0
C      1  0.5270360000000  0.4787050000000  0.4582150000000 1.0
C      1  0.4820540000000  0.4734130000000  0.4292470000000 1.0
C      1  0.4456050000000  0.4803710000000  0.4647530000000 1.0
C      1  0.4492990000000  0.4738340000000  0.5386720000000 1.0
C      1  0.4861400000000  0.4732730000000  0.5790120000000 1.0
C      1  0.5360630000000  0.4319370000000  0.4224210000000 1.0
C      1  0.4525690000000  0.4264390000000  0.4244520000000 1.0
C      1  0.4221160000000  0.4388360000000  0.4918030000000 1.0
C      1  0.4248500000000  0.4252810000000  0.5491440000000 1.0
C      1  0.5200350000000  0.4289550000000  0.5859810000000 1.0
C      1  0.5689020000000  0.4303020000000  0.5566260000000 1.0
C      1  0.5829650000000  0.4318680000000  0.4719890000000 1.0
C      1  0.5240790000000  0.4284100000000  0.4483830000000 1.0
C      1  0.4737770000000  0.4234910000000  0.4449260000000 1.0
C      1  0.4506150000000  0.4370360000000  0.4879880000000 1.0
C      1  0.4530470000000  0.4239700000000  0.5401810000000 1.0
C      1  0.5041240000000  0.4272230000000  0.5617730000000 1.0
C      1  0.5486890000000  0.4284050000000  0.5360210000000 1.0
C      1  0.5573820000000  0.4289210000000  0.4852380000000 1.0
C      1  0.5320680000000  0.5835300000000  0.4842050000000 1.0
C      1  0.5095080000000  0.5841670000000  0.4649700000000 1.0
C      1  0.4806510000000  0.5854150000000  0.4709630000000 1.0
C      1  0.4679360000000  0.5844330000000  0.4978810000000 1.0
C      1  0.4798290000000  0.5824780000000  0.5248800000000 1.0
C      1  0.5081170000000  0.5842710000000  0.5316730000000 1.0
C      1  0.5311080000000  0.5824480000000  0.5136400000000 1.0
C      1  0.3818670000000  0.5267760000000  0.5013740000000 1.0
C      1  0.4094440000000  0.5215800000000  0.5723140000000 1.0
C      1  0.5399930000000  0.5227610000000  0.6090150000000 1.0
C      1  0.5975130000000  0.5218980000000  0.5673080000000 1.0
C      1  0.6129060000000  0.5238520000000  0.4541420000000 1.0
C      1  0.5427680000000  0.5249500000000  0.3872770000000 1.0
C      1  0.4290830000000  0.5246380000000  0.4044940000000 1.0
C      1  0.5145060000000  0.5334110000000  0.5553970000000 1.0
C      1  0.5842220000000  0.5406710000000  0.5088770000000 1.0
C      1  0.5500800000000  0.5375810000000  0.4483800000000 1.0
C      1  0.4907170000000  0.5461940000000  0.4111080000000 1.0
C      1  0.4324140000000  0.5482140000000  0.4577700000000 1.0
C      1  0.4391590000000  0.5358970000000  0.5177200000000 1.0
C      1  0.4665900000000  0.5463540000000  0.5862320000000 1.0
C      1  0.4894050000000  0.5228370000000  0.4953370000000 1.0
C      1  0.5045880000000  0.4640690000000  0.5324290000000 1.0
C      1  0.4969580000000  0.4748020000000  0.5095870000000 1.0
C      1  0.5023070000000  0.5450860000000  0.4939960000000 1.0
C      1  0.4878190000000  0.4968150000000  0.4985730000000 1.0
END
