TITL C-3623282-6910-663 -208286.125700504 125000 -1139.67229931402 0 0 199 (C1) n - 1
REM
REM in /home/nfs/bkarasulu/CARBON/AIRSS/Generating-Clusters/LCBOP/Higher-Symm/SD-CG/FIRE-CG
REM
REM
REM
REM
REM
REM ./C.cell (b20cbc046b6831c77cfcea5457e17084)
REM AIRSS Version 0.9.1 bugfix July 2018 build 013d7b7c2542+ Fri, 06 Jul 2018 19:26:36 +0100
REM compiler GCC version 9.2.1 20190827 (Red Hat 9.2.1-1)
REM options -cpp -mtune=generic -march=x86-64 -g -O0 -fpre-include=/usr/include/finclude/math-vector-fortran.h
REM seed 1868455493 1646261897 -2115284620 180146108 -2038937478 -1275449222 -2109865199 785896803 1858129566 -1199204073 245409984 -1673526831 -965392156 1367649480 -691148620 -528446534 -1175838578 716080344 1432260303 -1240946684 1308359457 -1944561322 916321684 249899691 -1327726973 3769362 -1206269459 743032300 -590304204 -798222570 -268014491 1740115057 -1034035999
REM
CELL 1.54180   50.00000   50.00000   50.00000   90.00000   90.00000   90.00000
LATT -1
SFAC C  
C      1  0.4792610000000  0.5067090000000  0.5601230000000 1.0
C      1  0.4729940000000  0.5630790000000  0.5249290000000 1.0
C      1  0.4819050000000  0.5620910000000  0.4485710000000 1.0
C      1  0.4855270000000  0.4976110000000  0.4451950000000 1.0
C      1  0.4901440000000  0.4315430000000  0.4722560000000 1.0
C      1  0.4860410000000  0.4465580000000  0.5399730000000 1.0
C      1  0.5076700000000  0.5081090000000  0.5657130000000 1.0
C      1  0.5012010000000  0.5617340000000  0.5261130000000 1.0
C      1  0.5083920000000  0.5560640000000  0.4544830000000 1.0
C      1  0.5129440000000  0.4929680000000  0.4363570000000 1.0
C      1  0.5179420000000  0.4353720000000  0.4737840000000 1.0
C      1  0.5141120000000  0.4466970000000  0.5415100000000 1.0
C      1  0.4101680000000  0.5057180000000  0.5644710000000 1.0
C      1  0.4014300000000  0.5600340000000  0.5318970000000 1.0
C      1  0.4058770000000  0.5538640000000  0.4553590000000 1.0
C      1  0.4076290000000  0.4991970000000  0.4284720000000 1.0
C      1  0.4128500000000  0.4401240000000  0.4746040000000 1.0
C      1  0.4142610000000  0.4473960000000  0.5344170000000 1.0
C      1  0.6062000000000  0.5063620000000  0.5612490000000 1.0
C      1  0.6057970000000  0.5539960000000  0.5174490000000 1.0
C      1  0.6072730000000  0.5445710000000  0.4592350000000 1.0
C      1  0.5866450000000  0.4936120000000  0.4383310000000 1.0
C      1  0.5879210000000  0.4437980000000  0.4735690000000 1.0
C      1  0.5921090000000  0.4464700000000  0.5335970000000 1.0
C      1  0.5880900000000  0.4395900000000  0.5622800000000 1.0
C      1  0.5906750000000  0.5252040000000  0.5783440000000 1.0
C      1  0.5861630000000  0.5754040000000  0.5118030000000 1.0
C      1  0.5872370000000  0.5551180000000  0.4409750000000 1.0
C      1  0.5841520000000  0.4727360000000  0.4186440000000 1.0
C      1  0.5876480000000  0.4153700000000  0.4789540000000 1.0
C      1  0.4149530000000  0.4403150000000  0.5625210000000 1.0
C      1  0.4113870000000  0.5263250000000  0.5853460000000 1.0
C      1  0.4067640000000  0.5881540000000  0.5227460000000 1.0
C      1  0.4107150000000  0.5595860000000  0.4275980000000 1.0
C      1  0.4075180000000  0.4773450000000  0.4083200000000 1.0
C      1  0.4123890000000  0.4122270000000  0.4834910000000 1.0
C      1  0.4640290000000  0.5194920000000  0.4355510000000 1.0
C      1  0.4686280000000  0.4498900000000  0.4655730000000 1.0
C      1  0.4684200000000  0.4437450000000  0.5158090000000 1.0
C      1  0.4604820000000  0.4827290000000  0.5613290000000 1.0
C      1  0.4551800000000  0.5486170000000  0.5442520000000 1.0
C      1  0.4597230000000  0.5594940000000  0.4682700000000 1.0
C      1  0.5391400000000  0.5179680000000  0.4452670000000 1.0
C      1  0.5360180000000  0.4590090000000  0.4671840000000 1.0
C      1  0.5398740000000  0.4422230000000  0.5183250000000 1.0
C      1  0.5353790000000  0.4831700000000  0.5626750000000 1.0
C      1  0.5200230000000  0.5508970000000  0.5431020000000 1.0
C      1  0.5163350000000  0.5492300000000  0.4811760000000 1.0
C      1  0.5432640000000  0.5109760000000  0.6113250000000 1.0
C      1  0.5421040000000  0.5995130000000  0.5403930000000 1.0
C      1  0.5430460000000  0.5883020000000  0.4319290000000 1.0
C      1  0.5408940000000  0.4838440000000  0.3901700000000 1.0
C      1  0.5421240000000  0.3944120000000  0.4555660000000 1.0
C      1  0.5427450000000  0.4074800000000  0.5676630000000 1.0
C      1  0.4580010000000  0.5117920000000  0.6137500000000 1.0
C      1  0.4562900000000  0.6037390000000  0.5438420000000 1.0
C      1  0.4560130000000  0.5935500000000  0.4262970000000 1.0
C      1  0.4577220000000  0.4868370000000  0.3867430000000 1.0
C      1  0.4578810000000  0.3944210000000  0.4566930000000 1.0
C      1  0.4582810000000  0.4070400000000  0.5686580000000 1.0
C      1  0.4320670000000  0.4652890000000  0.3975210000000 1.0
C      1  0.4353130000000  0.3945810000000  0.4848300000000 1.0
C      1  0.4349130000000  0.4317550000000  0.5814240000000 1.0
C      1  0.4327640000000  0.5349900000000  0.6023620000000 1.0
C      1  0.4305300000000  0.6045950000000  0.5194140000000 1.0
C      1  0.4331130000000  0.5694220000000  0.4128710000000 1.0
C      1  0.5622010000000  0.4621700000000  0.4033240000000 1.0
C      1  0.5671830000000  0.3954970000000  0.4801150000000 1.0
C      1  0.5656990000000  0.4319640000000  0.5792840000000 1.0
C      1  0.5668940000000  0.5338250000000  0.5924340000000 1.0
C      1  0.5636130000000  0.5939120000000  0.5118430000000 1.0
C      1  0.5668760000000  0.5645810000000  0.4234180000000 1.0
C      1  0.4418800000000  0.4760810000000  0.4921280000000 1.0
C      1  0.4358970000000  0.4865710000000  0.5162790000000 1.0
C      1  0.4325250000000  0.5135980000000  0.5179090000000 1.0
C      1  0.4262000000000  0.5280920000000  0.4962880000000 1.0
C      1  0.4347550000000  0.5164720000000  0.4735030000000 1.0
C      1  0.4347860000000  0.4891530000000  0.4699520000000 1.0
C      1  0.5636550000000  0.4823810000000  0.5027270000000 1.0
C      1  0.5684480000000  0.4869860000000  0.5290470000000 1.0
C      1  0.5658620000000  0.5130400000000  0.5392700000000 1.0
C      1  0.5614590000000  0.5343790000000  0.5220420000000 1.0
C      1  0.5602600000000  0.5298600000000  0.4942940000000 1.0
C      1  0.5612120000000  0.5033140000000  0.4858310000000 1.0
C      1  0.5443610000000  0.5422980000000  0.4764500000000 1.0
C      1  0.5434400000000  0.4973250000000  0.4669070000000 1.0
C      1  0.5407620000000  0.4650460000000  0.4984850000000 1.0
C      1  0.5546550000000  0.4695390000000  0.5441860000000 1.0
C      1  0.5510770000000  0.5093170000000  0.5630070000000 1.0
C      1  0.5462710000000  0.5539620000000  0.5338990000000 1.0
C      1  0.4553480000000  0.5301430000000  0.4626260000000 1.0
C      1  0.4434220000000  0.4808090000000  0.4449070000000 1.0
C      1  0.4678250000000  0.4638320000000  0.4927560000000 1.0
C      1  0.4520990000000  0.4762150000000  0.5342550000000 1.0
C      1  0.4540450000000  0.5241930000000  0.5291170000000 1.0
C      1  0.4236470000000  0.5557060000000  0.4954420000000 1.0
C      1  0.5224330000000  0.5402680000000  0.4355020000000 1.0
C      1  0.5216990000000  0.4676890000000  0.4406190000000 1.0
C      1  0.5251010000000  0.4231360000000  0.4995990000000 1.0
C      1  0.5189650000000  0.4601460000000  0.5668240000000 1.0
C      1  0.5166710000000  0.5339440000000  0.5649440000000 1.0
C      1  0.5124890000000  0.5695930000000  0.5009530000000 1.0
C      1  0.4769900000000  0.5437850000000  0.4259390000000 1.0
C      1  0.4708200000000  0.4701840000000  0.4432420000000 1.0
C      1  0.4822790000000  0.4216270000000  0.4994020000000 1.0
C      1  0.4764510000000  0.4582450000000  0.5652870000000 1.0
C      1  0.4708520000000  0.5362130000000  0.5675170000000 1.0
C      1  0.4682160000000  0.5710640000000  0.4967760000000 1.0
C      1  0.4852910000000  0.5286470000000  0.6118430000000 1.0
C      1  0.4832230000000  0.6087940000000  0.5259230000000 1.0
C      1  0.4859130000000  0.5843960000000  0.4094920000000 1.0
C      1  0.4838390000000  0.4718200000000  0.3950670000000 1.0
C      1  0.4849270000000  0.3852250000000  0.4711480000000 1.0
C      1  0.4849880000000  0.4155790000000  0.5826000000000 1.0
C      1  0.5166840000000  0.5274130000000  0.6114040000000 1.0
C      1  0.5145670000000  0.6080950000000  0.5262510000000 1.0
C      1  0.5170750000000  0.5812390000000  0.4140800000000 1.0
C      1  0.5132910000000  0.4693070000000  0.3944010000000 1.0
C      1  0.5158930000000  0.3860450000000  0.4715260000000 1.0
C      1  0.5159080000000  0.4155140000000  0.5821920000000 1.0
C      1  0.4255760000000  0.5547930000000  0.5474750000000 1.0
C      1  0.4281120000000  0.5663000000000  0.4700410000000 1.0
C      1  0.4373150000000  0.5041790000000  0.4291000000000 1.0
C      1  0.4387350000000  0.4415950000000  0.4628700000000 1.0
C      1  0.4378680000000  0.4372460000000  0.5214020000000 1.0
C      1  0.4327480000000  0.4892450000000  0.5715980000000 1.0
C      1  0.6241530000000  0.5604840000000  0.5373790000000 1.0
C      1  0.6305240000000  0.5596240000000  0.4609210000000 1.0
C      1  0.5664770000000  0.5142910000000  0.4333140000000 1.0
C      1  0.5637520000000  0.4507360000000  0.4601580000000 1.0
C      1  0.5686690000000  0.4339300000000  0.5211900000000 1.0
C      1  0.6171490000000  0.4854070000000  0.5754530000000 1.0
C      1  0.4772600000000  0.4433400000000  0.5891170000000 1.0
C      1  0.4759280000000  0.5492690000000  0.5922760000000 1.0
C      1  0.4725720000000  0.6000970000000  0.4985470000000 1.0
C      1  0.4766970000000  0.5574350000000  0.4008420000000 1.0
C      1  0.4736930000000  0.4557600000000  0.4176930000000 1.0
C      1  0.4776980000000  0.3938190000000  0.4990130000000 1.0
C      1  0.5230490000000  0.4434150000000  0.5890170000000 1.0
C      1  0.5234740000000  0.5459520000000  0.5894850000000 1.0
C      1  0.5201880000000  0.5963420000000  0.4995070000000 1.0
C      1  0.5238120000000  0.5522400000000  0.4094200000000 1.0
C      1  0.5211970000000  0.4518760000000  0.4173310000000 1.0
C      1  0.5244880000000  0.3948200000000  0.4987230000000 1.0
C      1  0.5147700000000  0.4754260000000  0.6276220000000 1.0
C      1  0.5147820000000  0.5979320000000  0.5810740000000 1.0
C      1  0.5133340000000  0.6192170000000  0.4550570000000 1.0
C      1  0.5145400000000  0.5192830000000  0.3698330000000 1.0
C      1  0.5127240000000  0.3996120000000  0.4169530000000 1.0
C      1  0.5139640000000  0.3753290000000  0.5455610000000 1.0
C      1  0.4876480000000  0.4754740000000  0.6278580000000 1.0
C      1  0.4877520000000  0.5993330000000  0.5819610000000 1.0
C      1  0.4863150000000  0.6212290000000  0.4536830000000 1.0
C      1  0.4875430000000  0.5201790000000  0.3680750000000 1.0
C      1  0.4857710000000  0.4008540000000  0.4167930000000 1.0
C      1  0.4868640000000  0.3755010000000  0.5456250000000 1.0
C      1  0.5491160000000  0.3875570000000  0.5094430000000 1.0
C      1  0.5496130000000  0.4505960000000  0.5982810000000 1.0
C      1  0.5493740000000  0.5584290000000  0.5868090000000 1.0
C      1  0.5462770000000  0.6000250000000  0.4869740000000 1.0
C      1  0.5488480000000  0.5441330000000  0.4002290000000 1.0
C      1  0.5461690000000  0.4380150000000  0.4136980000000 1.0
C      1  0.4518130000000  0.3886230000000  0.5099840000000 1.0
C      1  0.4515110000000  0.4497930000000  0.6003800000000 1.0
C      1  0.4521310000000  0.5640240000000  0.5949860000000 1.0
C      1  0.4490690000000  0.6104970000000  0.4883400000000 1.0
C      1  0.4515640000000  0.5492690000000  0.3911830000000 1.0
C      1  0.4513620000000  0.4395700000000  0.4126490000000 1.0
C      1  0.6084050000000  0.5257260000000  0.5068960000000 1.0
C      1  0.6065900000000  0.5208030000000  0.4770320000000 1.0
C      1  0.6013570000000  0.4934220000000  0.4653130000000 1.0
C      1  0.6026780000000  0.4680040000000  0.4838870000000 1.0
C      1  0.6064020000000  0.4706910000000  0.5155210000000 1.0
C      1  0.6099260000000  0.5017450000000  0.5272150000000 1.0
C      1  0.3867520000000  0.5320130000000  0.5134760000000 1.0
C      1  0.3878420000000  0.5296350000000  0.4764330000000 1.0
C      1  0.3927200000000  0.4977310000000  0.4615680000000 1.0
C      1  0.3960300000000  0.4694390000000  0.4834650000000 1.0
C      1  0.3952470000000  0.4719950000000  0.5180090000000 1.0
C      1  0.3931810000000  0.5030350000000  0.5333750000000 1.0
C      1  0.4615330000000  0.4814830000000  0.6165040000000 1.0
C      1  0.4611230000000  0.5924540000000  0.5726040000000 1.0
C      1  0.4595310000000  0.6099840000000  0.4523320000000 1.0
C      1  0.4613100000000  0.5158610000000  0.3795810000000 1.0
C      1  0.4609880000000  0.4085260000000  0.4294330000000 1.0
C      1  0.4613150000000  0.3894120000000  0.5447780000000 1.0
C      1  0.5403550000000  0.4814240000000  0.6150160000000 1.0
C      1  0.5394870000000  0.5885150000000  0.5689600000000 1.0
C      1  0.5384100000000  0.6038260000000  0.4573170000000 1.0
C      1  0.5388750000000  0.5132290000000  0.3843130000000 1.0
C      1  0.5379530000000  0.4075340000000  0.4287780000000 1.0
C      1  0.5395820000000  0.3889270000000  0.5444380000000 1.0
C      1  0.4919840000000  0.4801520000000  0.4908240000000 1.0
C      1  0.5158040000000  0.4783540000000  0.5053430000000 1.0
C      1  0.4995700000000  0.5258570000000  0.4889330000000 1.0
C      1  0.5005790000000  0.5189290000000  0.5163000000000 1.0
C      1  0.4905470000000  0.5034720000000  0.4744360000000 1.0
C      1  0.5204560000000  0.5006870000000  0.5208850000000 1.0
C      1  0.4784080000000  0.5117900000000  0.5305150000000 1.0
END
