TITL C-3623285-6872-1604 585.629737292643 125000 -758.38360775702 0 0 127 (C1) n - 1
REM
REM in /home/nfs/bkarasulu/CARBON/AIRSS/Generating-Clusters/LCBOP/Higher-Symm/SD-CG/FIRE-CG
REM
REM
REM
REM
REM
REM ./C.cell (b20cbc046b6831c77cfcea5457e17084)
REM AIRSS Version 0.9.1 bugfix July 2018 build 013d7b7c2542+ Fri, 06 Jul 2018 19:26:36 +0100
REM compiler GCC version 9.2.1 20190827 (Red Hat 9.2.1-1)
REM options -cpp -mtune=generic -march=x86-64 -g -O0 -fpre-include=/usr/include/finclude/math-vector-fortran.h
REM seed -1207966052 536272989 -1444520048 1492431025 -1040600485 288238056 -1698932867 195445436 864305320 1608011525 -1656705739 -1637169179 1458718019 545254812 1754924634 196560487 769595091 1327218174 561788245 -212429788 -160075918 -43175548 791285871 222870809 -354988141 1851514805 -990055019 894426655 890872266 -1077118834 2102199469 -420903306 1681621365
REM
CELL 1.54180   50.00000   50.00000   50.00000   90.00000   90.00000   90.00000
LATT -1
SFAC C  
C      1  0.5157690000000  0.3309560000000  0.4646910000000 1.0
C      1  0.5608930000000  0.6142980000000  0.5233200000000 1.0
C      1  0.5224900000000  0.6594260000000  0.4525110000000 1.0
C      1  0.5622060000000  0.3873380000000  0.5202400000000 1.0
C      1  0.5393590000000  0.3831090000000  0.5084360000000 1.0
C      1  0.5203470000000  0.6424380000000  0.4721580000000 1.0
C      1  0.5396530000000  0.6173480000000  0.5085300000000 1.0
C      1  0.5159080000000  0.3520780000000  0.4799570000000 1.0
C      1  0.4975840000000  0.4857540000000  0.4025520000000 1.0
C      1  0.4968010000000  0.5119680000000  0.6034390000000 1.0
C      1  0.4950690000000  0.5123420000000  0.4032210000000 1.0
C      1  0.4944500000000  0.4852950000000  0.6021180000000 1.0
C      1  0.5543750000000  0.5294080000000  0.5761780000000 1.0
C      1  0.5536110000000  0.4720430000000  0.4288110000000 1.0
C      1  0.5526520000000  0.4707850000000  0.5758860000000 1.0
C      1  0.5518010000000  0.5289100000000  0.4281900000000 1.0
C      1  0.5057970000000  0.5152140000000  0.4544120000000 1.0
C      1  0.5076720000000  0.4841380000000  0.5523330000000 1.0
C      1  0.5061820000000  0.4848810000000  0.4540550000000 1.0
C      1  0.5103710000000  0.5143670000000  0.5541730000000 1.0
C      1  0.5908840000000  0.5133240000000  0.5501820000000 1.0
C      1  0.5906970000000  0.4878550000000  0.4539180000000 1.0
C      1  0.5904210000000  0.4861590000000  0.5507830000000 1.0
C      1  0.5901780000000  0.5149990000000  0.4530640000000 1.0
C      1  0.4656070000000  0.5428640000000  0.5616090000000 1.0
C      1  0.4622730000000  0.4484950000000  0.4264110000000 1.0
C      1  0.4592280000000  0.4487970000000  0.5700100000000 1.0
C      1  0.4569050000000  0.5484110000000  0.4274800000000 1.0
C      1  0.4454670000000  0.5228780000000  0.4205950000000 1.0
C      1  0.4504700000000  0.4745740000000  0.5778050000000 1.0
C      1  0.4568620000000  0.4752670000000  0.4199820000000 1.0
C      1  0.4662150000000  0.5152420000000  0.5531170000000 1.0
C      1  0.5099940000000  0.5669170000000  0.4199550000000 1.0
C      1  0.5116640000000  0.4305540000000  0.5813460000000 1.0
C      1  0.5144580000000  0.4316060000000  0.4226970000000 1.0
C      1  0.5111170000000  0.5664090000000  0.5837670000000 1.0
C      1  0.4857440000000  0.4349300000000  0.4148980000000 1.0
C      1  0.4821180000000  0.5564670000000  0.5821520000000 1.0
C      1  0.4807300000000  0.5609110000000  0.4144640000000 1.0
C      1  0.4816480000000  0.4355160000000  0.5843460000000 1.0
C      1  0.5269920000000  0.5429700000000  0.4206780000000 1.0
C      1  0.5281650000000  0.4549560000000  0.5836660000000 1.0
C      1  0.5299230000000  0.4564230000000  0.4220970000000 1.0
C      1  0.5298760000000  0.5438220000000  0.5850430000000 1.0
C      1  0.4545340000000  0.5590880000000  0.5401200000000 1.0
C      1  0.4522500000000  0.4415730000000  0.4527980000000 1.0
C      1  0.4522960000000  0.4417660000000  0.5420970000000 1.0
C      1  0.4499380000000  0.5574430000000  0.4547360000000 1.0
C      1  0.5693850000000  0.4666610000000  0.5520540000000 1.0
C      1  0.5686530000000  0.5339000000000  0.4516320000000 1.0
C      1  0.5704310000000  0.5334370000000  0.5517100000000 1.0
C      1  0.5698260000000  0.4683300000000  0.4526750000000 1.0
C      1  0.5098540000000  0.5395500000000  0.4720180000000 1.0
C      1  0.5106920000000  0.4611000000000  0.5329420000000 1.0
C      1  0.5096460000000  0.4619440000000  0.4725920000000 1.0
C      1  0.5130180000000  0.5435050000000  0.5340340000000 1.0
C      1  0.4715880000000  0.4260550000000  0.4669670000000 1.0
C      1  0.4743190000000  0.5780790000000  0.5319470000000 1.0
C      1  0.4701770000000  0.5738280000000  0.4665750000000 1.0
C      1  0.4727580000000  0.4252700000000  0.5310730000000 1.0
C      1  0.5610640000000  0.4552590000000  0.5270180000000 1.0
C      1  0.5608380000000  0.5461510000000  0.4764600000000 1.0
C      1  0.5626190000000  0.5461280000000  0.5266000000000 1.0
C      1  0.5608670000000  0.4563330000000  0.4772280000000 1.0
C      1  0.4992600000000  0.4343130000000  0.5359840000000 1.0
C      1  0.4972050000000  0.5650850000000  0.4651660000000 1.0
C      1  0.5011890000000  0.5698820000000  0.5382270000000 1.0
C      1  0.4984750000000  0.4355070000000  0.4669230000000 1.0
C      1  0.4089170000000  0.5285340000000  0.4616210000000 1.0
C      1  0.4158150000000  0.4749170000000  0.5354640000000 1.0
C      1  0.4129260000000  0.4761490000000  0.4532890000000 1.0
C      1  0.4175970000000  0.5257860000000  0.5361340000000 1.0
C      1  0.4274580000000  0.5480570000000  0.4716900000000 1.0
C      1  0.4313400000000  0.4536880000000  0.5241210000000 1.0
C      1  0.4291970000000  0.4543900000000  0.4674260000000 1.0
C      1  0.4317870000000  0.5479590000000  0.5247920000000 1.0
C      1  0.5349570000000  0.5447610000000  0.5168100000000 1.0
C      1  0.5335110000000  0.4598040000000  0.4878150000000 1.0
C      1  0.5338800000000  0.4593520000000  0.5167990000000 1.0
C      1  0.5336320000000  0.5437170000000  0.4875730000000 1.0
C      1  0.5087250000000  0.4753980000000  0.4261770000000 1.0
C      1  0.5108650000000  0.5227330000000  0.5817520000000 1.0
C      1  0.5066040000000  0.5235670000000  0.4261960000000 1.0
C      1  0.5073470000000  0.4743670000000  0.5797840000000 1.0
C      1  0.4654820000000  0.5997880000000  0.4761180000000 1.0
C      1  0.4670550000000  0.4001480000000  0.5199300000000 1.0
C      1  0.4660010000000  0.4003830000000  0.4765620000000 1.0
C      1  0.4686600000000  0.6024000000000  0.5193150000000 1.0
C      1  0.5117330000000  0.5798670000000  0.4452590000000 1.0
C      1  0.5136370000000  0.4187690000000  0.5552980000000 1.0
C      1  0.5150380000000  0.4204000000000  0.4488680000000 1.0
C      1  0.5133270000000  0.5829540000000  0.5605340000000 1.0
C      1  0.5536960000000  0.5003850000000  0.4195660000000 1.0
C      1  0.5544690000000  0.4998260000000  0.5845790000000 1.0
C      1  0.5157320000000  0.3751260000000  0.4958150000000 1.0
C      1  0.5176050000000  0.6233620000000  0.4924340000000 1.0
C      1  0.4219000000000  0.4999060000000  0.5474970000000 1.0
C      1  0.4074670000000  0.5047010000000  0.4442360000000 1.0
C      1  0.4237730000000  0.4153890000000  0.4967190000000 1.0
C      1  0.4238760000000  0.5874120000000  0.4994060000000 1.0
C      1  0.4473830000000  0.6020540000000  0.4986990000000 1.0
C      1  0.4467160000000  0.3998340000000  0.4982880000000 1.0
C      1  0.4926850000000  0.3895900000000  0.4987160000000 1.0
C      1  0.4936060000000  0.6108030000000  0.4963290000000 1.0
C      1  0.4249630000000  0.5590370000000  0.4987940000000 1.0
C      1  0.4257250000000  0.4440850000000  0.4961700000000 1.0
C      1  0.5770460000000  0.5513270000000  0.5010630000000 1.0
C      1  0.5759230000000  0.4496760000000  0.5019620000000 1.0
C      1  0.4562190000000  0.4970010000000  0.5096070000000 1.0
C      1  0.4541650000000  0.4997140000000  0.4624430000000 1.0
C      1  0.4757930000000  0.5074720000000  0.5260670000000 1.0
C      1  0.4565200000000  0.4996480000000  0.4341870000000 1.0
C      1  0.4456620000000  0.4983520000000  0.5636550000000 1.0
C      1  0.4176200000000  0.5152470000000  0.4188990000000 1.0
C      1  0.4127170000000  0.4979700000000  0.4924580000000 1.0
C      1  0.6328360000000  0.5002110000000  0.5018670000000 1.0
C      1  0.5007590000000  0.5067280000000  0.5125280000000 1.0
C      1  0.6063290000000  0.5004580000000  0.5019720000000 1.0
C      1  0.5796830000000  0.5007680000000  0.5022000000000 1.0
C      1  0.3604200000000  0.4957080000000  0.5016560000000 1.0
C      1  0.4405280000000  0.4984070000000  0.4871790000000 1.0
C      1  0.3347420000000  0.4947420000000  0.5060440000000 1.0
C      1  0.5530160000000  0.5014110000000  0.5033020000000 1.0
C      1  0.5263120000000  0.5024280000000  0.5056750000000 1.0
C      1  0.6854050000000  0.4997060000000  0.5016330000000 1.0
C      1  0.3865530000000  0.4967460000000  0.4973750000000 1.0
C      1  0.6593360000000  0.4999570000000  0.5017500000000 1.0
END
