TITL C-3623282-6910-1476 202.546884602467 125000 -298.888313960014 0 0 53 (C1) n - 1
REM
REM in /home/nfs/bkarasulu/CARBON/AIRSS/Generating-Clusters/LCBOP/Higher-Symm/SD-CG/FIRE-CG
REM
REM
REM
REM
REM
REM ./C.cell (b20cbc046b6831c77cfcea5457e17084)
REM AIRSS Version 0.9.1 bugfix July 2018 build 013d7b7c2542+ Fri, 06 Jul 2018 19:26:36 +0100
REM compiler GCC version 9.2.1 20190827 (Red Hat 9.2.1-1)
REM options -cpp -mtune=generic -march=x86-64 -g -O0 -fpre-include=/usr/include/finclude/math-vector-fortran.h
REM seed 100946931 -1795128538 1605751917 -415450188 308330839 -1157956152 -1296277725 2074517096 108338784 -1574614462 660427620 1879083422 -687479249 -2091720151 -2061643633 -2026296523 512378114 -45518026 1987537559 1845342285 -777949804 -1111838771 -976194422 -64440453 1357699319 -1775941938 -524716391 283134216 -894647040 1339957159 -278586774 664466816 -770581682
REM
CELL 1.54180   50.00000   50.00000   50.00000   90.00000   90.00000   90.00000
LATT -1
SFAC C  
C      1  0.5861640000000  0.4172790000000  0.5475470000000 1.0
C      1  0.5417560000000  0.5390980000000  0.5429870000000 1.0
C      1  0.5389340000000  0.5699230000000  0.5080030000000 1.0
C      1  0.5452720000000  0.5521440000000  0.4647930000000 1.0
C      1  0.5539050000000  0.5049620000000  0.4552260000000 1.0
C      1  0.5614230000000  0.4725860000000  0.4104820000000 1.0
C      1  0.5417390000000  0.4434130000000  0.5302900000000 1.0
C      1  0.6076120000000  0.4054450000000  0.5564660000000 1.0
C      1  0.5510700000000  0.5640210000000  0.5329220000000 1.0
C      1  0.5518280000000  0.5725620000000  0.4831100000000 1.0
C      1  0.5623880000000  0.5336060000000  0.4521430000000 1.0
C      1  0.5588610000000  0.4885180000000  0.4314830000000 1.0
C      1  0.5633790000000  0.4568370000000  0.3898000000000 1.0
C      1  0.5643520000000  0.4294880000000  0.5387680000000 1.0
C      1  0.5380290000000  0.4928310000000  0.5364640000000 1.0
C      1  0.5564910000000  0.5146040000000  0.5399510000000 1.0
C      1  0.5798390000000  0.5133320000000  0.5239720000000 1.0
C      1  0.5829480000000  0.5045750000000  0.4985030000000 1.0
C      1  0.5643060000000  0.4925090000000  0.4809700000000 1.0
C      1  0.5435980000000  0.4770960000000  0.4934420000000 1.0
C      1  0.5439220000000  0.4699190000000  0.5208420000000 1.0
C      1  0.4568490000000  0.4665220000000  0.4763710000000 1.0
C      1  0.4529300000000  0.4620790000000  0.5115340000000 1.0
C      1  0.4489750000000  0.4878630000000  0.5357120000000 1.0
C      1  0.4475400000000  0.5233190000000  0.5291390000000 1.0
C      1  0.4496790000000  0.5388870000000  0.4978180000000 1.0
C      1  0.4537360000000  0.5270830000000  0.4697210000000 1.0
C      1  0.4569000000000  0.4984430000000  0.4586810000000 1.0
C      1  0.4767020000000  0.4972910000000  0.4380990000000 1.0
C      1  0.4787970000000  0.4522130000000  0.4670740000000 1.0
C      1  0.4661350000000  0.4397530000000  0.5213170000000 1.0
C      1  0.4671900000000  0.4847150000000  0.5565710000000 1.0
C      1  0.4623960000000  0.5380160000000  0.5480100000000 1.0
C      1  0.4620920000000  0.5642230000000  0.5009480000000 1.0
C      1  0.4691460000000  0.5456550000000  0.4537990000000 1.0
C      1  0.5185050000000  0.5389060000000  0.4717190000000 1.0
C      1  0.5224250000000  0.5083730000000  0.4623360000000 1.0
C      1  0.5162590000000  0.4851740000000  0.4831000000000 1.0
C      1  0.5163330000000  0.4314470000000  0.5310730000000 1.0
C      1  0.5097400000000  0.5032880000000  0.5320900000000 1.0
C      1  0.5125500000000  0.5349310000000  0.5326390000000 1.0
C      1  0.5132660000000  0.5522130000000  0.5050790000000 1.0
C      1  0.4899240000000  0.4297610000000  0.5281110000000 1.0
C      1  0.4929650000000  0.4923100000000  0.5545010000000 1.0
C      1  0.4888530000000  0.5438690000000  0.5493670000000 1.0
C      1  0.4885080000000  0.5687850000000  0.5031550000000 1.0
C      1  0.4955600000000  0.5504910000000  0.4563180000000 1.0
C      1  0.5033040000000  0.5023990000000  0.4392130000000 1.0
C      1  0.5041160000000  0.4609560000000  0.4700090000000 1.0
C      1  0.4347720000000  0.4982540000000  0.4960440000000 1.0
C      1  0.4700620000000  0.5004240000000  0.4999650000000 1.0
C      1  0.4088470000000  0.4962820000000  0.4934570000000 1.0
C      1  0.4977540000000  0.4961290000000  0.5048570000000 1.0
END
