TITL C-3623284-6838-2050 -8.99672092058221e-07 125000 -1064.0930772514 0 0 172 (C1) n - 1
REM
REM in /home/nfs/bkarasulu/CARBON/AIRSS/Generating-Clusters/LCBOP/Higher-Symm/SD-CG/FIRE-CG
REM
REM
REM
REM
REM
REM ./C.cell (b20cbc046b6831c77cfcea5457e17084)
REM AIRSS Version 0.9.1 bugfix July 2018 build 013d7b7c2542+ Fri, 06 Jul 2018 19:26:36 +0100
REM compiler GCC version 9.2.1 20190827 (Red Hat 9.2.1-1)
REM options -cpp -mtune=generic -march=x86-64 -g -O0 -fpre-include=/usr/include/finclude/math-vector-fortran.h
REM seed 1124842385 -1335417379 1649395068 -1199059534 -1689168895 -221136862 -1112915212 -672917906 1872548850 -863609733 -1521858022 1881128343 979148130 -1654554991 -662291712 -1492114087 18971682 -399008996 -1836728887 684685783 -1161092914 -1006286857 1247545401 -747203132 -1060681369 -1792308091 942176198 536793785 -526746074 2032836423 -1455611126 1879779705 754383628
REM
CELL 1.54180   50.00000   50.00000   50.00000   90.00000   90.00000   90.00000
LATT -1
SFAC C  
C      1  0.4919810000000  0.4143810000000  0.5781900000000 1.0
C      1  0.5602730000000  0.4463200000000  0.5812990000000 1.0
C      1  0.5845790000000  0.5153960000000  0.5791020000000 1.0
C      1  0.5448600000000  0.5760510000000  0.5817360000000 1.0
C      1  0.4719480000000  0.5761070000000  0.5824000000000 1.0
C      1  0.4188440000000  0.5263440000000  0.5832880000000 1.0
C      1  0.4260180000000  0.4508110000000  0.5754320000000 1.0
C      1  0.4873960000000  0.6295910000000  0.4241570000000 1.0
C      1  0.3917710000000  0.5700150000000  0.4268060000000 1.0
C      1  0.3763390000000  0.4568200000000  0.4253970000000 1.0
C      1  0.4578800000000  0.3760760000000  0.4260300000000 1.0
C      1  0.5697560000000  0.3890890000000  0.4269150000000 1.0
C      1  0.6310100000000  0.4831900000000  0.4244720000000 1.0
C      1  0.5958710000000  0.5908860000000  0.4213640000000 1.0
C      1  0.4639310000000  0.5608140000000  0.4288260000000 1.0
C      1  0.4272710000000  0.5084410000000  0.4249420000000 1.0
C      1  0.4481530000000  0.4479410000000  0.4253250000000 1.0
C      1  0.5080340000000  0.4274800000000  0.4274780000000 1.0
C      1  0.5619950000000  0.4603540000000  0.4262770000000 1.0
C      1  0.5710950000000  0.5230160000000  0.4229450000000 1.0
C      1  0.5268470000000  0.5691570000000  0.4235640000000 1.0
C      1  0.5165960000000  0.4745050000000  0.4809550000000 1.0
C      1  0.5350530000000  0.4981970000000  0.4820000000000 1.0
C      1  0.5337760000000  0.5279080000000  0.4837100000000 1.0
C      1  0.5081640000000  0.5413240000000  0.4860340000000 1.0
C      1  0.4627050000000  0.5152670000000  0.4868200000000 1.0
C      1  0.4614390000000  0.4864690000000  0.4847860000000 1.0
C      1  0.4867120000000  0.4706160000000  0.4825780000000 1.0
C      1  0.4682250000000  0.4285930000000  0.5167260000000 1.0
C      1  0.5380050000000  0.4301000000000  0.5183650000000 1.0
C      1  0.5806320000000  0.4858860000000  0.5187240000000 1.0
C      1  0.5636700000000  0.5554020000000  0.5174690000000 1.0
C      1  0.4984750000000  0.5838260000000  0.5189650000000 1.0
C      1  0.4356770000000  0.5509550000000  0.5206480000000 1.0
C      1  0.4212900000000  0.4821590000000  0.5195520000000 1.0
C      1  0.4486350000000  0.4387500000000  0.5618280000000 1.0
C      1  0.5169660000000  0.4210880000000  0.5645730000000 1.0
C      1  0.5698920000000  0.4678830000000  0.5647500000000 1.0
C      1  0.5767700000000  0.5378290000000  0.5623790000000 1.0
C      1  0.5213750000000  0.5830310000000  0.5647320000000 1.0
C      1  0.4529740000000  0.5608410000000  0.5669730000000 1.0
C      1  0.4148900000000  0.5026340000000  0.5656860000000 1.0
C      1  0.4433250000000  0.4693470000000  0.4071110000000 1.0
C      1  0.4885870000000  0.4360540000000  0.4084200000000 1.0
C      1  0.5422790000000  0.4501900000000  0.4083720000000 1.0
C      1  0.5653310000000  0.5010800000000  0.4057170000000 1.0
C      1  0.5395380000000  0.5514380000000  0.4050800000000 1.0
C      1  0.4847280000000  0.5614550000000  0.4095510000000 1.0
C      1  0.4418250000000  0.5262890000000  0.4082730000000 1.0
C      1  0.5530320000000  0.5499690000000  0.5728660000000 1.0
C      1  0.4988180000000  0.5690660000000  0.5760870000000 1.0
C      1  0.4469410000000  0.5341880000000  0.5771060000000 1.0
C      1  0.4276510000000  0.4796130000000  0.5773700000000 1.0
C      1  0.4744750000000  0.4381560000000  0.5749070000000 1.0
C      1  0.5319420000000  0.4413040000000  0.5793880000000 1.0
C      1  0.5647310000000  0.4939560000000  0.5753250000000 1.0
C      1  0.4960990000000  0.4682130000000  0.5336500000000 1.0
C      1  0.5244740000000  0.4775850000000  0.5327100000000 1.0
C      1  0.5357020000000  0.5058510000000  0.5321400000000 1.0
C      1  0.5205480000000  0.5319220000000  0.5328100000000 1.0
C      1  0.4905730000000  0.5358740000000  0.5346420000000 1.0
C      1  0.4681460000000  0.5145090000000  0.5355260000000 1.0
C      1  0.4708740000000  0.4847060000000  0.5345170000000 1.0
C      1  0.5671060000000  0.5492780000000  0.4142270000000 1.0
C      1  0.5029750000000  0.5825180000000  0.4177630000000 1.0
C      1  0.4384490000000  0.5525250000000  0.4209450000000 1.0
C      1  0.4194080000000  0.4831170000000  0.4162060000000 1.0
C      1  0.4632540000000  0.4255480000000  0.4181960000000 1.0
C      1  0.5347130000000  0.4243990000000  0.4198020000000 1.0
C      1  0.5805870000000  0.4788380000000  0.4167490000000 1.0
C      1  0.4536620000000  0.5657720000000  0.5379410000000 1.0
C      1  0.4191960000000  0.5053480000000  0.5368590000000 1.0
C      1  0.4485240000000  0.4418090000000  0.5331650000000 1.0
C      1  0.5155470000000  0.4234300000000  0.5354670000000 1.0
C      1  0.5704480000000  0.4648810000000  0.5358900000000 1.0
C      1  0.5757400000000  0.5343980000000  0.5334560000000 1.0
C      1  0.5225940000000  0.5808980000000  0.5354180000000 1.0
C      1  0.5830450000000  0.5753370000000  0.4680350000000 1.0
C      1  0.4939310000000  0.6086670000000  0.4671890000000 1.0
C      1  0.4129400000000  0.5634150000000  0.4695890000000 1.0
C      1  0.3944510000000  0.4699370000000  0.4711190000000 1.0
C      1  0.4611860000000  0.4000370000000  0.4676480000000 1.0
C      1  0.5540280000000  0.4067690000000  0.4687670000000 1.0
C      1  0.6091410000000  0.4825590000000  0.4701110000000 1.0
C      1  0.4851880000000  0.6369760000000  0.4686950000000 1.0
C      1  0.3855960000000  0.5746750000000  0.4713440000000 1.0
C      1  0.3701570000000  0.4560120000000  0.4707900000000 1.0
C      1  0.4573960000000  0.3708690000000  0.4709410000000 1.0
C      1  0.5743060000000  0.3854330000000  0.4717310000000 1.0
C      1  0.6373070000000  0.4842040000000  0.4698890000000 1.0
C      1  0.5997260000000  0.5978240000000  0.4664960000000 1.0
C      1  0.5556740000000  0.4933380000000  0.4613560000000 1.0
C      1  0.5459070000000  0.5398140000000  0.4603300000000 1.0
C      1  0.5002560000000  0.5562450000000  0.4629630000000 1.0
C      1  0.4530400000000  0.5293240000000  0.4640350000000 1.0
C      1  0.4444190000000  0.4815160000000  0.4619310000000 1.0
C      1  0.4803570000000  0.4503960000000  0.4622010000000 1.0
C      1  0.5275890000000  0.4551150000000  0.4624580000000 1.0
C      1  0.5445470000000  0.5753230000000  0.6107720000000 1.0
C      1  0.4703070000000  0.5815950000000  0.6103200000000 1.0
C      1  0.4189170000000  0.5299090000000  0.6126740000000 1.0
C      1  0.4157860000000  0.4398980000000  0.5997670000000 1.0
C      1  0.4882520000000  0.4065640000000  0.6058940000000 1.0
C      1  0.5691880000000  0.4445960000000  0.6084530000000 1.0
C      1  0.5881660000000  0.5168200000000  0.6076700000000 1.0
C      1  0.5382010000000  0.5028240000000  0.6177830000000 1.0
C      1  0.5234740000000  0.5294900000000  0.6286830000000 1.0
C      1  0.4960240000000  0.5384020000000  0.6171980000000 1.0
C      1  0.4692320000000  0.5241970000000  0.6179280000000 1.0
C      1  0.4495710000000  0.4673420000000  0.6192810000000 1.0
C      1  0.4735660000000  0.4521830000000  0.6192570000000 1.0
C      1  0.5313010000000  0.4727910000000  0.6190430000000 1.0
C      1  0.4556620000000  0.3578480000000  0.4466220000000 1.0
C      1  0.5828780000000  0.3758570000000  0.4472610000000 1.0
C      1  0.6489910000000  0.4846210000000  0.4450980000000 1.0
C      1  0.6065280000000  0.6062210000000  0.4413570000000 1.0
C      1  0.4816210000000  0.6481470000000  0.4437030000000 1.0
C      1  0.3741370000000  0.5780430000000  0.4464320000000 1.0
C      1  0.3604930000000  0.4488570000000  0.4462190000000 1.0
C      1  0.4169980000000  0.5606440000000  0.4384870000000 1.0
C      1  0.3993240000000  0.4708730000000  0.4322390000000 1.0
C      1  0.4612600000000  0.4032570000000  0.4364310000000 1.0
C      1  0.5510100000000  0.4088550000000  0.4376860000000 1.0
C      1  0.6041390000000  0.4814510000000  0.4321200000000 1.0
C      1  0.5801490000000  0.5694060000000  0.4295580000000 1.0
C      1  0.4955790000000  0.6039180000000  0.4359060000000 1.0
C      1  0.5649430000000  0.5089570000000  0.5258830000000 1.0
C      1  0.5362500000000  0.5570490000000  0.5267650000000 1.0
C      1  0.4804550000000  0.5632050000000  0.5282690000000 1.0
C      1  0.4399520000000  0.5238600000000  0.5297460000000 1.0
C      1  0.4462950000000  0.4694540000000  0.5266290000000 1.0
C      1  0.4931520000000  0.4391930000000  0.5268150000000 1.0
C      1  0.5448450000000  0.4568490000000  0.5264560000000 1.0
C      1  0.5221250000000  0.5276530000000  0.3971470000000 1.0
C      1  0.4920610000000  0.5339170000000  0.3987170000000 1.0
C      1  0.4683710000000  0.5144860000000  0.3985770000000 1.0
C      1  0.4689470000000  0.4833380000000  0.3981410000000 1.0
C      1  0.4935320000000  0.4644050000000  0.3981820000000 1.0
C      1  0.5233470000000  0.4717770000000  0.3978710000000 1.0
C      1  0.5361390000000  0.4998920000000  0.3970410000000 1.0
C      1  0.5446020000000  0.4184050000000  0.4931530000000 1.0
C      1  0.5941810000000  0.4828440000000  0.4938890000000 1.0
C      1  0.5736500000000  0.5650520000000  0.4925080000000 1.0
C      1  0.4972110000000  0.5958250000000  0.4927960000000 1.0
C      1  0.4256610000000  0.5582340000000  0.4948290000000 1.0
C      1  0.4073380000000  0.4774640000000  0.4950170000000 1.0
C      1  0.4639890000000  0.4150320000000  0.4919410000000 1.0
C      1  0.4257960000000  0.4514760000000  0.6225870000000 1.0
C      1  0.4786140000000  0.4241760000000  0.6251370000000 1.0
C      1  0.5534470000000  0.4562930000000  0.6276660000000 1.0
C      1  0.5684560000000  0.5088570000000  0.6251800000000 1.0
C      1  0.5396780000000  0.5546080000000  0.6284600000000 1.0
C      1  0.4865720000000  0.5666450000000  0.6267180000000 1.0
C      1  0.4423030000000  0.5310840000000  0.6285890000000 1.0
C      1  0.4717210000000  0.5510530000000  0.4544820000000 1.0
C      1  0.4374120000000  0.5079390000000  0.4510860000000 1.0
C      1  0.4543270000000  0.4569600000000  0.4511330000000 1.0
C      1  0.5051230000000  0.4397520000000  0.4525330000000 1.0
C      1  0.5518790000000  0.4663070000000  0.4518150000000 1.0
C      1  0.5624240000000  0.5187370000000  0.4493600000000 1.0
C      1  0.5266050000000  0.5587280000000  0.4495430000000 1.0
C      1  0.5311220000000  0.5312600000000  0.5788860000000 1.0
C      1  0.5060490000000  0.5431890000000  0.5874180000000 1.0
C      1  0.4615400000000  0.5124470000000  0.5926960000000 1.0
C      1  0.4479480000000  0.4869650000000  0.5969360000000 1.0
C      1  0.4878100000000  0.4570020000000  0.5943210000000 1.0
C      1  0.5161240000000  0.4596660000000  0.5967580000000 1.0
C      1  0.5400920000000  0.5056270000000  0.5869730000000 1.0
C      1  0.5025920000000  0.4977400000000  0.4347050000000 1.0
C      1  0.4965120000000  0.5081670000000  0.4574480000000 1.0
C      1  0.4911390000000  0.5183940000000  0.4857360000000 1.0
C      1  0.4997850000000  0.5029740000000  0.5082980000000 1.0
END
