TITL C-3623286-7563-914 -3.65219306809623 125000 -627.934837703778 0 0 104 (C1) n - 1
REM
REM in /home/nfs/bkarasulu/CARBON/AIRSS/Generating-Clusters/LCBOP/Higher-Symm/SD-CG/FIRE-CG
REM
REM
REM
REM
REM
REM ./C.cell (b20cbc046b6831c77cfcea5457e17084)
REM AIRSS Version 0.9.1 bugfix July 2018 build 013d7b7c2542+ Fri, 06 Jul 2018 19:26:36 +0100
REM compiler GCC version 9.2.1 20190827 (Red Hat 9.2.1-1)
REM options -cpp -mtune=generic -march=x86-64 -g -O0 -fpre-include=/usr/include/finclude/math-vector-fortran.h
REM seed 1913813709 268723365 -99328307 1295340581 1763981904 -149355563 1550584101 -855313114 1249980659 -1427993478 -1242189497 -268243714 -245844649 -738259381 357212395 -1255159834 293344433 -1627914835 -1550772372 -1259712861 1287004961 -162566817 -101266929 -287101390 -133966231 746292279 -1156945756 -239616226 1080921847 -1919545313 1328623447 -574340850 2039547936
REM
CELL 1.54180   50.00000   50.00000   50.00000   90.00000   90.00000   90.00000
LATT -1
SFAC C  
C      1  0.5354450000000  0.5172080000000  0.4842370000000 1.0
C      1  0.4935360000000  0.4576700000000  0.4901460000000 1.0
C      1  0.4657500000000  0.5282810000000  0.4882920000000 1.0
C      1  0.4717310000000  0.5111670000000  0.5504870000000 1.0
C      1  0.5170440000000  0.5206450000000  0.5485990000000 1.0
C      1  0.4972660000000  0.4719700000000  0.5403940000000 1.0
C      1  0.4412200000000  0.4877390000000  0.3919570000000 1.0
C      1  0.5188780000000  0.5504450000000  0.3941700000000 1.0
C      1  0.5475290000000  0.4389790000000  0.4033320000000 1.0
C      1  0.4696770000000  0.5810610000000  0.5187640000000 1.0
C      1  0.5741270000000  0.4867040000000  0.5158700000000 1.0
C      1  0.4436860000000  0.4358990000000  0.5190210000000 1.0
C      1  0.5210300000000  0.4139720000000  0.5293770000000 1.0
C      1  0.4117060000000  0.5265030000000  0.5275450000000 1.0
C      1  0.5625600000000  0.5653620000000  0.5260520000000 1.0
C      1  0.4268560000000  0.5689520000000  0.5169870000000 1.0
C      1  0.5881920000000  0.5294190000000  0.5130970000000 1.0
C      1  0.4769160000000  0.4054350000000  0.5179930000000 1.0
C      1  0.4538290000000  0.5061910000000  0.5316560000000 1.0
C      1  0.5240150000000  0.5396150000000  0.5315020000000 1.0
C      1  0.5183320000000  0.4604170000000  0.5306880000000 1.0
C      1  0.4563310000000  0.4170750000000  0.5004180000000 1.0
C      1  0.4477450000000  0.5810100000000  0.4997860000000 1.0
C      1  0.5900010000000  0.5040440000000  0.4986120000000 1.0
C      1  0.5645210000000  0.4621250000000  0.4424430000000 1.0
C      1  0.4474710000000  0.4641610000000  0.4355690000000 1.0
C      1  0.5010260000000  0.5606730000000  0.4381970000000 1.0
C      1  0.4536310000000  0.4367550000000  0.5470990000000 1.0
C      1  0.4655000000000  0.5718640000000  0.5465510000000 1.0
C      1  0.5703190000000  0.4959510000000  0.5436020000000 1.0
C      1  0.4772110000000  0.4186560000000  0.5459520000000 1.0
C      1  0.4374770000000  0.5612830000000  0.5454290000000 1.0
C      1  0.5779800000000  0.5248030000000  0.5421710000000 1.0
C      1  0.5566100000000  0.5269370000000  0.4663860000000 1.0
C      1  0.5018010000000  0.4364810000000  0.4721450000000 1.0
C      1  0.4437910000000  0.5358170000000  0.4695860000000 1.0
C      1  0.5162770000000  0.5824650000000  0.5128480000000 1.0
C      1  0.5527420000000  0.4458340000000  0.5030700000000 1.0
C      1  0.4211060000000  0.4782320000000  0.5123130000000 1.0
C      1  0.4631960000000  0.5115210000000  0.4299980000000 1.0
C      1  0.5302560000000  0.5159370000000  0.4270360000000 1.0
C      1  0.5154900000000  0.4625610000000  0.4311750000000 1.0
C      1  0.4649690000000  0.4427190000000  0.4459170000000 1.0
C      1  0.4721370000000  0.5621870000000  0.4461510000000 1.0
C      1  0.5727620000000  0.4892150000000  0.4479990000000 1.0
C      1  0.4118200000000  0.5465680000000  0.5069410000000 1.0
C      1  0.5756370000000  0.5538640000000  0.5025850000000 1.0
C      1  0.5040850000000  0.4027350000000  0.5088780000000 1.0
C      1  0.5059150000000  0.4206040000000  0.5546350000000 1.0
C      1  0.4234780000000  0.5356650000000  0.5538690000000 1.0
C      1  0.5656800000000  0.5501250000000  0.5519680000000 1.0
C      1  0.5163230000000  0.5420530000000  0.4205720000000 1.0
C      1  0.5426290000000  0.4543510000000  0.4255350000000 1.0
C      1  0.4505260000000  0.4877570000000  0.4176990000000 1.0
C      1  0.5607690000000  0.5534560000000  0.4772950000000 1.0
C      1  0.5087110000000  0.4112050000000  0.4822780000000 1.0
C      1  0.4179680000000  0.5400760000000  0.4801240000000 1.0
C      1  0.5908150000000  0.4954560000000  0.4708500000000 1.0
C      1  0.4560530000000  0.4249580000000  0.4706790000000 1.0
C      1  0.4581590000000  0.5790290000000  0.4701710000000 1.0
C      1  0.5674770000000  0.4324970000000  0.4835020000000 1.0
C      1  0.4377350000000  0.4931330000000  0.4712740000000 1.0
C      1  0.5328180000000  0.5630400000000  0.4749950000000 1.0
C      1  0.5336600000000  0.4381510000000  0.5216350000000 1.0
C      1  0.4270260000000  0.5032280000000  0.5224670000000 1.0
C      1  0.5344650000000  0.5650720000000  0.5238590000000 1.0
C      1  0.5534910000000  0.4742210000000  0.5017640000000 1.0
C      1  0.4426260000000  0.4610770000000  0.5076020000000 1.0
C      1  0.4918430000000  0.5707560000000  0.5062090000000 1.0
C      1  0.4895620000000  0.5697080000000  0.5634840000000 1.0
C      1  0.5571040000000  0.4783090000000  0.5622910000000 1.0
C      1  0.4442660000000  0.4592730000000  0.5636730000000 1.0
C      1  0.5431980000000  0.5578630000000  0.5702430000000 1.0
C      1  0.5217610000000  0.4381520000000  0.5718400000000 1.0
C      1  0.4280200000000  0.5116720000000  0.5710780000000 1.0
C      1  0.5161750000000  0.5660330000000  0.5714260000000 1.0
C      1  0.5410110000000  0.4581430000000  0.5720490000000 1.0
C      1  0.4345860000000  0.4842670000000  0.5715400000000 1.0
C      1  0.5189850000000  0.5762230000000  0.4543460000000 1.0
C      1  0.5743040000000  0.4414140000000  0.4590780000000 1.0
C      1  0.4288500000000  0.4735240000000  0.4551100000000 1.0
C      1  0.4951310000000  0.4451910000000  0.4448890000000 1.0
C      1  0.4555680000000  0.5371090000000  0.4428140000000 1.0
C      1  0.5552690000000  0.5120580000000  0.4419600000000 1.0
C      1  0.5167980000000  0.5390710000000  0.4848650000000 1.0
C      1  0.5090730000000  0.4802820000000  0.4813880000000 1.0
C      1  0.4655040000000  0.4977070000000  0.4836800000000 1.0
C      1  0.4679280000000  0.4704310000000  0.4978650000000 1.0
C      1  0.4900450000000  0.5443520000000  0.4937820000000 1.0
C      1  0.5331640000000  0.4901670000000  0.4899820000000 1.0
C      1  0.4956680000000  0.5126190000000  0.5644110000000 1.0
C      1  0.5167310000000  0.4583110000000  0.7128390000000 1.0
C      1  0.5048740000000  0.4883100000000  0.6406410000000 1.0
C      1  0.5128220000000  0.4682020000000  0.6890360000000 1.0
C      1  0.5104740000000  0.4920300000000  0.4224240000000 1.0
C      1  0.4958430000000  0.4847670000000  0.3149100000000 1.0
C      1  0.4881550000000  0.5014950000000  0.4397880000000 1.0
C      1  0.4990150000000  0.4868230000000  0.3407050000000 1.0
C      1  0.5088470000000  0.4782580000000  0.6648360000000 1.0
C      1  0.4979870000000  0.5066450000000  0.5914440000000 1.0
C      1  0.5043450000000  0.4911200000000  0.3932310000000 1.0
C      1  0.5010570000000  0.4981530000000  0.6163380000000 1.0
C      1  0.5020620000000  0.4889120000000  0.3669490000000 1.0
C      1  0.4902650000000  0.4958780000000  0.4669000000000 1.0
END
