TITL C-3623289-7120-1726 -1.65830058751861e-07 125000 -1213.10659940508 0 0 194 (C1) n - 1
REM
REM in /home/nfs/bkarasulu/CARBON/AIRSS/Generating-Clusters/LCBOP/Higher-Symm/SD-CG/FIRE-CG
REM
REM
REM
REM
REM
REM ./C.cell (b20cbc046b6831c77cfcea5457e17084)
REM AIRSS Version 0.9.1 bugfix July 2018 build 013d7b7c2542+ Fri, 06 Jul 2018 19:26:36 +0100
REM compiler GCC version 9.2.1 20190827 (Red Hat 9.2.1-1)
REM options -cpp -mtune=generic -march=x86-64 -g -O0 -fpre-include=/usr/include/finclude/math-vector-fortran.h
REM seed -1292202985 1385683460 558352849 1316572158 2092426335 796752507 -2050011971 1458445400 -2000981770 -1072765036 958884614 -41733974 -1630604068 624060193 1966261727 1790057359 -1743591400 1005276680 -1495603717 -1209398990 -275273801 -1100238517 -923875580 -539013895 -908330667 -1682611369 -377999243 -1677062451 -851650370 -771247024 1403146552 -1241176055 -1137639409
REM
CELL 1.54180   50.00000   50.00000   50.00000   90.00000   90.00000   90.00000
LATT -1
SFAC C  
C      1  0.5286840000000  0.4705110000000  0.5649120000000 1.0
C      1  0.5279560000000  0.5291110000000  0.4385290000000 1.0
C      1  0.4746890000000  0.4696760000000  0.5655660000000 1.0
C      1  0.4730050000000  0.5311030000000  0.4337060000000 1.0
C      1  0.5230240000000  0.5340810000000  0.5553960000000 1.0
C      1  0.5216610000000  0.4644090000000  0.4393300000000 1.0
C      1  0.4731830000000  0.5338180000000  0.5748300000000 1.0
C      1  0.4716470000000  0.4657640000000  0.4224930000000 1.0
C      1  0.5376900000000  0.5099650000000  0.4196420000000 1.0
C      1  0.5394640000000  0.4906520000000  0.5823080000000 1.0
C      1  0.4580320000000  0.5131800000000  0.4175230000000 1.0
C      1  0.4594050000000  0.4873320000000  0.5816080000000 1.0
C      1  0.5429060000000  0.4836130000000  0.4300920000000 1.0
C      1  0.5438890000000  0.5161080000000  0.5685690000000 1.0
C      1  0.4594650000000  0.4867280000000  0.4059460000000 1.0
C      1  0.4608120000000  0.5141050000000  0.5922220000000 1.0
C      1  0.4918840000000  0.4722060000000  0.6323820000000 1.0
C      1  0.4903460000000  0.5311410000000  0.3693020000000 1.0
C      1  0.5169150000000  0.4722560000000  0.6224070000000 1.0
C      1  0.5148590000000  0.5310640000000  0.3805040000000 1.0
C      1  0.4863220000000  0.5347970000000  0.6290390000000 1.0
C      1  0.4860950000000  0.4682960000000  0.3685660000000 1.0
C      1  0.5132890000000  0.5345520000000  0.6300280000000 1.0
C      1  0.5130720000000  0.4693760000000  0.3681770000000 1.0
C      1  0.5279490000000  0.3453300000000  0.4577720000000 1.0
C      1  0.5312100000000  0.6496180000000  0.5424440000000 1.0
C      1  0.4726890000000  0.3435190000000  0.4590570000000 1.0
C      1  0.4762540000000  0.6559510000000  0.5414500000000 1.0
C      1  0.5286650000000  0.6489290000000  0.4646420000000 1.0
C      1  0.5276740000000  0.3467300000000  0.5352330000000 1.0
C      1  0.4733800000000  0.6533490000000  0.4640600000000 1.0
C      1  0.4721970000000  0.3459820000000  0.5363480000000 1.0
C      1  0.4351100000000  0.4081380000000  0.4193990000000 1.0
C      1  0.4358170000000  0.5911460000000  0.5789370000000 1.0
C      1  0.5597210000000  0.4111450000000  0.4164940000000 1.0
C      1  0.5594450000000  0.5835190000000  0.5858080000000 1.0
C      1  0.4368490000000  0.5869700000000  0.4222360000000 1.0
C      1  0.4386720000000  0.4137470000000  0.5782200000000 1.0
C      1  0.5601740000000  0.5844410000000  0.4187980000000 1.0
C      1  0.5627470000000  0.4128120000000  0.5774530000000 1.0
C      1  0.4658470000000  0.5172520000000  0.5214740000000 1.0
C      1  0.4654250000000  0.4819190000000  0.4770320000000 1.0
C      1  0.5346680000000  0.5186290000000  0.5098390000000 1.0
C      1  0.5358480000000  0.4829820000000  0.4789020000000 1.0
C      1  0.4671500000000  0.4904300000000  0.5267640000000 1.0
C      1  0.4648380000000  0.5087740000000  0.4721610000000 1.0
C      1  0.5367240000000  0.4926870000000  0.5255240000000 1.0
C      1  0.5268600000000  0.5090840000000  0.4826300000000 1.0
C      1  0.4031430000000  0.4670330000000  0.5398090000000 1.0
C      1  0.4013670000000  0.5330250000000  0.4607960000000 1.0
C      1  0.5987510000000  0.4648240000000  0.5390970000000 1.0
C      1  0.5960650000000  0.5385400000000  0.4656380000000 1.0
C      1  0.4021390000000  0.5364570000000  0.5340030000000 1.0
C      1  0.4024320000000  0.4627690000000  0.4663610000000 1.0
C      1  0.5943360000000  0.5311820000000  0.5405630000000 1.0
C      1  0.5968590000000  0.4646040000000  0.4643660000000 1.0
C      1  0.4702100000000  0.5133080000000  0.3667730000000 1.0
C      1  0.4712520000000  0.4896170000000  0.6328620000000 1.0
C      1  0.5314030000000  0.5110420000000  0.3917140000000 1.0
C      1  0.5331750000000  0.4918740000000  0.6100700000000 1.0
C      1  0.4672950000000  0.4872880000000  0.3780810000000 1.0
C      1  0.4681670000000  0.5149180000000  0.6201310000000 1.0
C      1  0.5317820000000  0.4866380000000  0.3770360000000 1.0
C      1  0.5326720000000  0.5173190000000  0.6227330000000 1.0
C      1  0.5556260000000  0.5554460000000  0.4858770000000 1.0
C      1  0.5568640000000  0.4742360000000  0.5182250000000 1.0
C      1  0.4441090000000  0.5253580000000  0.4817710000000 1.0
C      1  0.4461760000000  0.4733040000000  0.5181650000000 1.0
C      1  0.5579850000000  0.4718270000000  0.4903460000000 1.0
C      1  0.5578100000000  0.5375730000000  0.5084430000000 1.0
C      1  0.4434940000000  0.4711740000000  0.4900190000000 1.0
C      1  0.4427710000000  0.5272390000000  0.5099880000000 1.0
C      1  0.5358450000000  0.6526550000000  0.4900200000000 1.0
C      1  0.5340560000000  0.3415770000000  0.5099060000000 1.0
C      1  0.4684930000000  0.6595500000000  0.4894890000000 1.0
C      1  0.4661080000000  0.3399940000000  0.5111360000000 1.0
C      1  0.5342820000000  0.3411330000000  0.4832910000000 1.0
C      1  0.5369710000000  0.6528790000000  0.5166320000000 1.0
C      1  0.4664230000000  0.3390720000000  0.4845400000000 1.0
C      1  0.4697460000000  0.6606280000000  0.5160600000000 1.0
C      1  0.5166050000000  0.6400250000000  0.5645380000000 1.0
C      1  0.5139620000000  0.3567220000000  0.4361710000000 1.0
C      1  0.4876330000000  0.6422320000000  0.5632330000000 1.0
C      1  0.4850030000000  0.3561890000000  0.4371630000000 1.0
C      1  0.5146810000000  0.3593490000000  0.5567580000000 1.0
C      1  0.5147620000000  0.6384600000000  0.4425040000000 1.0
C      1  0.4856160000000  0.3592120000000  0.5572190000000 1.0
C      1  0.4857040000000  0.6399290000000  0.4426290000000 1.0
C      1  0.4815890000000  0.4261180000000  0.4567530000000 1.0
C      1  0.4824450000000  0.5730720000000  0.5407030000000 1.0
C      1  0.5106340000000  0.4210320000000  0.4564100000000 1.0
C      1  0.5115440000000  0.5779070000000  0.5390630000000 1.0
C      1  0.4863230000000  0.5686290000000  0.4633890000000 1.0
C      1  0.4865640000000  0.4329350000000  0.5351520000000 1.0
C      1  0.5150290000000  0.5682540000000  0.4633390000000 1.0
C      1  0.5154850000000  0.4337550000000  0.5341960000000 1.0
C      1  0.4713970000000  0.3774010000000  0.5738730000000 1.0
C      1  0.4703310000000  0.6228200000000  0.4258010000000 1.0
C      1  0.5292650000000  0.3773390000000  0.5732820000000 1.0
C      1  0.5282670000000  0.6210510000000  0.4244620000000 1.0
C      1  0.4710770000000  0.6251400000000  0.5788580000000 1.0
C      1  0.4695550000000  0.3734830000000  0.4207000000000 1.0
C      1  0.5289570000000  0.6220360000000  0.5829840000000 1.0
C      1  0.5276090000000  0.3740910000000  0.4181530000000 1.0
C      1  0.4158430000000  0.4312520000000  0.5754190000000 1.0
C      1  0.4139920000000  0.5695330000000  0.4256180000000 1.0
C      1  0.5860720000000  0.4293650000000  0.5746120000000 1.0
C      1  0.5808940000000  0.5653150000000  0.4235700000000 1.0
C      1  0.4144370000000  0.5735630000000  0.5708620000000 1.0
C      1  0.4144090000000  0.4261790000000  0.4284400000000 1.0
C      1  0.5798470000000  0.5637290000000  0.5802830000000 1.0
C      1  0.5802880000000  0.4298150000000  0.4255190000000 1.0
C      1  0.5314670000000  0.4196310000000  0.4129650000000 1.0
C      1  0.5308950000000  0.5761810000000  0.5839740000000 1.0
C      1  0.4623290000000  0.4185950000000  0.4138610000000 1.0
C      1  0.4627710000000  0.5800950000000  0.5837980000000 1.0
C      1  0.5321000000000  0.5753460000000  0.4187250000000 1.0
C      1  0.5349130000000  0.4230300000000  0.5778310000000 1.0
C      1  0.4647910000000  0.5774110000000  0.4201310000000 1.0
C      1  0.4667860000000  0.4230600000000  0.5788070000000 1.0
C      1  0.4014470000000  0.4466210000000  0.4418500000000 1.0
C      1  0.4009590000000  0.5530220000000  0.5581660000000 1.0
C      1  0.5948480000000  0.4495100000000  0.4388820000000 1.0
C      1  0.5932420000000  0.5428790000000  0.5676120000000 1.0
C      1  0.3979380000000  0.5494250000000  0.4365260000000 1.0
C      1  0.3997750000000  0.4512870000000  0.5644730000000 1.0
C      1  0.5937540000000  0.5451940000000  0.4373260000000 1.0
C      1  0.6023450000000  0.4488210000000  0.5633150000000 1.0
C      1  0.5125910000000  0.5187060000000  0.4604680000000 1.0
C      1  0.5159020000000  0.4837480000000  0.5425690000000 1.0
C      1  0.4849270000000  0.5182700000000  0.4559480000000 1.0
C      1  0.4878820000000  0.4827510000000  0.5436440000000 1.0
C      1  0.5164300000000  0.4638640000000  0.4701270000000 1.0
C      1  0.5152010000000  0.5336550000000  0.5251810000000 1.0
C      1  0.4874240000000  0.4649480000000  0.4783860000000 1.0
C      1  0.4871370000000  0.5346850000000  0.5182990000000 1.0
C      1  0.5755070000000  0.4528920000000  0.4794740000000 1.0
C      1  0.5767260000000  0.5484660000000  0.5265780000000 1.0
C      1  0.4251070000000  0.4523240000000  0.4800810000000 1.0
C      1  0.4252120000000  0.5464660000000  0.5206180000000 1.0
C      1  0.5822350000000  0.5612440000000  0.4777090000000 1.0
C      1  0.5731490000000  0.4551630000000  0.5305100000000 1.0
C      1  0.4265950000000  0.5433670000000  0.4697620000000 1.0
C      1  0.4281690000000  0.4561520000000  0.5308000000000 1.0
C      1  0.5230320000000  0.4353020000000  0.4341880000000 1.0
C      1  0.5247780000000  0.5633790000000  0.5600610000000 1.0
C      1  0.4695960000000  0.4385780000000  0.4324350000000 1.0
C      1  0.4703300000000  0.5607370000000  0.5649070000000 1.0
C      1  0.5265590000000  0.5571300000000  0.4391210000000 1.0
C      1  0.5282480000000  0.4427230000000  0.5591180000000 1.0
C      1  0.4732430000000  0.5587930000000  0.4390210000000 1.0
C      1  0.4743590000000  0.4420850000000  0.5599720000000 1.0
C      1  0.5226850000000  0.4347000000000  0.4796850000000 1.0
C      1  0.5218240000000  0.5712400000000  0.5141700000000 1.0
C      1  0.4772440000000  0.4375860000000  0.4828400000000 1.0
C      1  0.4770910000000  0.5618420000000  0.5147760000000 1.0
C      1  0.5307320000000  0.5691230000000  0.4873250000000 1.0
C      1  0.5255270000000  0.4296830000000  0.5076190000000 1.0
C      1  0.4747680000000  0.5721750000000  0.4888430000000 1.0
C      1  0.4749730000000  0.4286300000000  0.5095350000000 1.0
C      1  0.4233640000000  0.4275590000000  0.4937770000000 1.0
C      1  0.4237970000000  0.5714810000000  0.5073120000000 1.0
C      1  0.5773500000000  0.4278450000000  0.4924270000000 1.0
C      1  0.5878590000000  0.5745100000000  0.5214360000000 1.0
C      1  0.4254530000000  0.5699100000000  0.4802350000000 1.0
C      1  0.4261620000000  0.4294360000000  0.5207520000000 1.0
C      1  0.5945750000000  0.5794940000000  0.4954550000000 1.0
C      1  0.5741020000000  0.4288290000000  0.5194110000000 1.0
C      1  0.6056580000000  0.5121490000000  0.5219980000000 1.0
C      1  0.6065210000000  0.4874400000000  0.4812390000000 1.0
C      1  0.3910580000000  0.5141750000000  0.5189350000000 1.0
C      1  0.3913390000000  0.4851520000000  0.4813640000000 1.0
C      1  0.6085270000000  0.4849580000000  0.5202580000000 1.0
C      1  0.6035280000000  0.5152110000000  0.4828970000000 1.0
C      1  0.3920440000000  0.4865460000000  0.5205140000000 1.0
C      1  0.3909110000000  0.5128140000000  0.4797850000000 1.0
C      1  0.4843380000000  0.5987930000000  0.4156000000000 1.0
C      1  0.4863450000000  0.4014680000000  0.5824390000000 1.0
C      1  0.5127870000000  0.5974250000000  0.4154060000000 1.0
C      1  0.5148230000000  0.4017480000000  0.5817330000000 1.0
C      1  0.4831870000000  0.3974070000000  0.4095950000000 1.0
C      1  0.4836980000000  0.6003600000000  0.5891160000000 1.0
C      1  0.5121970000000  0.3974580000000  0.4080240000000 1.0
C      1  0.5123280000000  0.5983670000000  0.5902720000000 1.0
C      1  0.4423590000000  0.6195810000000  0.5765940000000 1.0
C      1  0.4410510000000  0.3797300000000  0.4225490000000 1.0
C      1  0.5569130000000  0.6128030000000  0.5851020000000 1.0
C      1  0.5558580000000  0.3821700000000  0.4187540000000 1.0
C      1  0.4430380000000  0.3848550000000  0.5750750000000 1.0
C      1  0.4417710000000  0.6157520000000  0.4258650000000 1.0
C      1  0.5576890000000  0.3840800000000  0.5745210000000 1.0
C      1  0.5563960000000  0.6132280000000  0.4223060000000 1.0
C      1  0.4987980000000  0.5245490000000  0.5691040000000 1.0
C      1  0.4976920000000  0.4752620000000  0.4267870000000 1.0
END
