TITL C-3623284-6838-701 -8.23368027620562e-07 125000 -1184.82556972746 0 0 190 (C5) n - 1
REM
REM in /home/nfs/bkarasulu/CARBON/AIRSS/Generating-Clusters/LCBOP/Higher-Symm/SD-CG/FIRE-CG
REM
REM
REM
REM
REM
REM ./C.cell (b20cbc046b6831c77cfcea5457e17084)
REM AIRSS Version 0.9.1 bugfix July 2018 build 013d7b7c2542+ Fri, 06 Jul 2018 19:26:36 +0100
REM compiler GCC version 9.2.1 20190827 (Red Hat 9.2.1-1)
REM options -cpp -mtune=generic -march=x86-64 -g -O0 -fpre-include=/usr/include/finclude/math-vector-fortran.h
REM seed 1033177474 18210842 803556189 532882811 1169098584 -1303245735 358375492 -1218859435 -1421934750 1620176424 -1110836820 -965124992 1734013875 -738996038 -1750850181 -374517003 -193642644 -1500963203 -1990374484 -741664607 383290921 -496743123 273464465 -2012060921 -800159916 -1759068301 431987914 -1024543765 -456858776 -1873139473 -1230277732 -1677233228 1096315754
REM
CELL 1.54180   50.00000   50.00000   50.00000   90.00000   90.00000   90.00000
LATT -1
SFAC C  
C      1  0.5009520000000  0.4752750000000  0.4376800000000 1.0
C      1  0.4767880000000  0.4914530000000  0.4376770000000 1.0
C      1  0.4847060000000  0.5194340000000  0.4376750000000 1.0
C      1  0.5137640000000  0.5205500000000  0.4376760000000 1.0
C      1  0.5238050000000  0.4932580000000  0.4376790000000 1.0
C      1  0.4743980000000  0.4542890000000  0.4977110000000 1.0
C      1  0.4486160000000  0.5102230000000  0.4977040000000 1.0
C      1  0.4938450000000  0.5520290000000  0.4977030000000 1.0
C      1  0.5475800000000  0.5219320000000  0.4977080000000 1.0
C      1  0.5355620000000  0.4615260000000  0.4977130000000 1.0
C      1  0.4503280000000  0.4821370000000  0.4410360000000 1.0
C      1  0.4676690000000  0.5417190000000  0.4410310000000 1.0
C      1  0.5296940000000  0.5436390000000  0.4410340000000 1.0
C      1  0.5506870000000  0.4852440000000  0.4410410000000 1.0
C      1  0.5016360000000  0.4472330000000  0.4410420000000 1.0
C      1  0.5725340000000  0.5200550000000  0.5990230000000 1.0
C      1  0.5414760000000  0.4372150000000  0.5990300000000 1.0
C      1  0.4530920000000  0.4411550000000  0.5990250000000 1.0
C      1  0.4295270000000  0.5264300000000  0.5990160000000 1.0
C      1  0.5033460000000  0.5751930000000  0.5990150000000 1.0
C      1  0.4614580000000  0.5999410000000  0.5245300000000 1.0
C      1  0.5831370000000  0.5675400000000  0.5245390000000 1.0
C      1  0.5899210000000  0.4418040000000  0.5245510000000 1.0
C      1  0.4724360000000  0.3964960000000  0.5245500000000 1.0
C      1  0.3930420000000  0.4942310000000  0.5245360000000 1.0
C      1  0.5553870000000  0.4373840000000  0.4177810000000 1.0
C      1  0.4575740000000  0.4279730000000  0.4177770000000 1.0
C      1  0.4183980000000  0.5180900000000  0.4177670000000 1.0
C      1  0.4919990000000  0.5831970000000  0.4177640000000 1.0
C      1  0.5766630000000  0.5333170000000  0.4177730000000 1.0
C      1  0.5217480000000  0.5717980000000  0.3823000000000 1.0
C      1  0.5750190000000  0.5015010000000  0.3823090000000 1.0
C      1  0.5246250000000  0.4291140000000  0.3823130000000 1.0
C      1  0.4402080000000  0.4546730000000  0.3823070000000 1.0
C      1  0.4384300000000  0.5428570000000  0.3822980000000 1.0
C      1  0.5180620000000  0.5490170000000  0.3690010000000 1.0
C      1  0.5522160000000  0.4979670000000  0.3690080000000 1.0
C      1  0.5142180000000  0.4497090000000  0.3690110000000 1.0
C      1  0.4565810000000  0.4709340000000  0.3690060000000 1.0
C      1  0.4589560000000  0.5323100000000  0.3690000000000 1.0
C      1  0.5223060000000  0.5099860000000  0.5017980000000 1.0
C      1  0.5163900000000  0.4818710000000  0.5018000000000 1.0
C      1  0.4878230000000  0.4788100000000  0.5017990000000 1.0
C      1  0.4760840000000  0.5050330000000  0.5017960000000 1.0
C      1  0.4973960000000  0.5243000000000  0.5017950000000 1.0
C      1  0.5302190000000  0.6339500000000  0.5415040000000 1.0
C      1  0.6367270000000  0.5126530000000  0.5415210000000 1.0
C      1  0.5542800000000  0.3738760000000  0.5415300000000 1.0
C      1  0.3968170000000  0.4094030000000  0.5415190000000 1.0
C      1  0.3819470000000  0.5701380000000  0.5415030000000 1.0
C      1  0.6163740000000  0.4781380000000  0.4374320000000 1.0
C      1  0.5151770000000  0.3825650000000  0.4374360000000 1.0
C      1  0.3930110000000  0.4492750000000  0.4374240000000 1.0
C      1  0.4187040000000  0.5860770000000  0.4374120000000 1.0
C      1  0.5567500000000  0.6039150000000  0.4374170000000 1.0
C      1  0.5237860000000  0.5074940000000  0.6183580000000 1.0
C      1  0.5144630000000  0.4796960000000  0.6183600000000 1.0
C      1  0.4851440000000  0.4799730000000  0.6183580000000 1.0
C      1  0.4763470000000  0.5079420000000  0.6183550000000 1.0
C      1  0.5002300000000  0.5249510000000  0.6183550000000 1.0
C      1  0.4513200000000  0.4955510000000  0.5514540000000 1.0
C      1  0.4807190000000  0.5449240000000  0.5514510000000 1.0
C      1  0.5367600000000  0.5322210000000  0.5514550000000 1.0
C      1  0.5419970000000  0.4749960000000  0.5514610000000 1.0
C      1  0.4891910000000  0.4523330000000  0.5514600000000 1.0
C      1  0.3959680000000  0.4691510000000  0.5632420000000 1.0
C      1  0.4385060000000  0.5894080000000  0.5632330000000 1.0
C      1  0.5660220000000  0.5861150000000  0.5632400000000 1.0
C      1  0.6022940000000  0.4638220000000  0.5632530000000 1.0
C      1  0.4971950000000  0.3915340000000  0.5632550000000 1.0
C      1  0.3854180000000  0.4330140000000  0.5300960000000 1.0
C      1  0.4008810000000  0.5882750000000  0.5300820000000 1.0
C      1  0.5533210000000  0.6215470000000  0.5300860000000 1.0
C      1  0.6320710000000  0.4868490000000  0.5301030000000 1.0
C      1  0.5283010000000  0.3703290000000  0.5301090000000 1.0
C      1  0.4102130000000  0.4409750000000  0.4186800000000 1.0
C      1  0.4161280000000  0.5671510000000  0.4186680000000 1.0
C      1  0.5379570000000  0.6005160000000  0.4186710000000 1.0
C      1  0.6073360000000  0.4949610000000  0.4186850000000 1.0
C      1  0.5283860000000  0.3963590000000  0.4186900000000 1.0
C      1  0.4259340000000  0.4347110000000  0.5004110000000 1.0
C      1  0.4150190000000  0.5502660000000  0.5003990000000 1.0
C      1  0.5215450000000  0.5963550000000  0.5004000000000 1.0
C      1  0.5982970000000  0.5092850000000  0.5004120000000 1.0
C      1  0.5392060000000  0.4093830000000  0.5004190000000 1.0
C      1  0.4256860000000  0.5965850000000  0.4610350000000 1.0
C      1  0.5688980000000  0.6005230000000  0.4610420000000 1.0
C      1  0.6168980000000  0.4655360000000  0.4610570000000 1.0
C      1  0.5033520000000  0.3781720000000  0.4610600000000 1.0
C      1  0.3851760000000  0.4591650000000  0.4610460000000 1.0
C      1  0.4459300000000  0.5398460000000  0.4591670000000 1.0
C      1  0.5211920000000  0.5637360000000  0.4591680000000 1.0
C      1  0.5671700000000  0.4995400000000  0.4591770000000 1.0
C      1  0.5203240000000  0.4359740000000  0.4591810000000 1.0
C      1  0.4453930000000  0.4608850000000  0.4591750000000 1.0
C      1  0.4794180000000  0.4863450000000  0.3653670000000 1.0
C      1  0.4806700000000  0.5153530000000  0.3653640000000 1.0
C      1  0.5086450000000  0.5231260000000  0.3653650000000 1.0
C      1  0.5246820000000  0.4989220000000  0.3653680000000 1.0
C      1  0.5066190000000  0.4761900000000  0.3653690000000 1.0
C      1  0.4320540000000  0.4864940000000  0.4968540000000 1.0
C      1  0.4661590000000  0.5604470000000  0.4968490000000 1.0
C      1  0.5470320000000  0.5508640000000  0.4968540000000 1.0
C      1  0.5629080000000  0.4709880000000  0.4968620000000 1.0
C      1  0.4918480000000  0.4312050000000  0.4968620000000 1.0
C      1  0.5863810000000  0.4406720000000  0.5531010000000 1.0
C      1  0.4702620000000  0.3995140000000  0.5530990000000 1.0
C      1  0.3952360000000  0.4972310000000  0.5530860000000 1.0
C      1  0.4649860000000  0.5987810000000  0.5530800000000 1.0
C      1  0.5831200000000  0.5638260000000  0.5530890000000 1.0
C      1  0.5697480000000  0.5019150000000  0.4895410000000 1.0
C      1  0.5233760000000  0.4342570000000  0.4895460000000 1.0
C      1  0.4447000000000  0.4574530000000  0.4895390000000 1.0
C      1  0.4424480000000  0.5394460000000  0.4895310000000 1.0
C      1  0.5197320000000  0.5669250000000  0.4895330000000 1.0
C      1  0.6103480000000  0.4651570000000  0.4882440000000 1.0
C      1  0.5009640000000  0.3842860000000  0.4882470000000 1.0
C      1  0.3902480000000  0.4633260000000  0.4882340000000 1.0
C      1  0.4312070000000  0.5930470000000  0.4882230000000 1.0
C      1  0.5672360000000  0.5941790000000  0.4882300000000 1.0
C      1  0.6274450000000  0.4667730000000  0.5497660000000 1.0
C      1  0.5077760000000  0.3685260000000  0.5497690000000 1.0
C      1  0.3773570000000  0.4519780000000  0.5497550000000 1.0
C      1  0.4164230000000  0.6018020000000  0.5497420000000 1.0
C      1  0.5709860000000  0.6109450000000  0.5497490000000 1.0
C      1  0.6201950000000  0.5521580000000  0.4933110000000 1.0
C      1  0.5867480000000  0.4018050000000  0.4933240000000 1.0
C      1  0.4334180000000  0.3871530000000  0.4933170000000 1.0
C      1  0.3721020000000  0.5284510000000  0.4933010000000 1.0
C      1  0.4875370000000  0.6304300000000  0.4932970000000 1.0
C      1  0.5119420000000  0.5894540000000  0.5760620000000 1.0
C      1  0.5887570000000  0.5162870000000  0.5760730000000 1.0
C      1  0.5429080000000  0.4206220000000  0.5760800000000 1.0
C      1  0.4377570000000  0.4346650000000  0.5760730000000 1.0
C      1  0.4186190000000  0.5390090000000  0.5760620000000 1.0
C      1  0.4837570000000  0.4039580000000  0.5002030000000 1.0
C      1  0.4036390000000  0.4857690000000  0.5001910000000 1.0
C      1  0.4566890000000  0.5872470000000  0.5001840000000 1.0
C      1  0.5695930000000  0.5681520000000  0.5001920000000 1.0
C      1  0.5863220000000  0.4548730000000  0.5002030000000 1.0
C      1  0.4935830000000  0.4768810000000  0.5624730000000 1.0
C      1  0.4760220000000  0.4989600000000  0.5624700000000 1.0
C      1  0.4915940000000  0.5224850000000  0.5624680000000 1.0
C      1  0.5187790000000  0.5149440000000  0.5624700000000 1.0
C      1  0.5200080000000  0.4867600000000  0.5624730000000 1.0
C      1  0.3985240000000  0.5256820000000  0.5592310000000 1.0
C      1  0.4930600000000  0.6044460000000  0.5592280000000 1.0
C      1  0.5971820000000  0.5388770000000  0.5592400000000 1.0
C      1  0.5669980000000  0.4195890000000  0.5592500000000 1.0
C      1  0.4442210000000  0.4114340000000  0.5592440000000 1.0
C      1  0.5666080000000  0.3991460000000  0.5382990000000 1.0
C      1  0.4246610000000  0.4054870000000  0.5382910000000 1.0
C      1  0.3868270000000  0.5424460000000  0.5382760000000 1.0
C      1  0.5053920000000  0.6207520000000  0.5382740000000 1.0
C      1  0.6165030000000  0.5321870000000  0.5382880000000 1.0
C      1  0.6089610000000  0.5338150000000  0.5102800000000 1.0
C      1  0.5658300000000  0.4068210000000  0.5102900000000 1.0
C      1  0.4317230000000  0.4085990000000  0.5102830000000 1.0
C      1  0.3919720000000  0.5366910000000  0.5102690000000 1.0
C      1  0.5015110000000  0.6140790000000  0.5102670000000 1.0
C      1  0.5551490000000  0.5443700000000  0.4290810000000 1.0
C      1  0.5592490000000  0.4612600000000  0.4290890000000 1.0
C      1  0.4814740000000  0.4316780000000  0.4290880000000 1.0
C      1  0.4293060000000  0.4965060000000  0.4290800000000 1.0
C      1  0.4748400000000  0.5661530000000  0.4290750000000 1.0
C      1  0.5303650000000  0.4572070000000  0.6130260000000 1.0
C      1  0.4686700000000  0.4578990000000  0.6130230000000 1.0
C      1  0.4502640000000  0.5167890000000  0.6130160000000 1.0
C      1  0.5005840000000  0.5524910000000  0.6130150000000 1.0
C      1  0.5500890000000  0.5156680000000  0.6130210000000 1.0
C      1  0.4223610000000  0.5431210000000  0.4053670000000 1.0
C      1  0.5170300000000  0.5871630000000  0.4053670000000 1.0
C      1  0.5881710000000  0.5107360000000  0.4053780000000 1.0
C      1  0.5374690000000  0.4194600000000  0.4053840000000 1.0
C      1  0.4349920000000  0.4394750000000  0.4053770000000 1.0
C      1  0.5170210000000  0.4131230000000  0.5648860000000 1.0
C      1  0.4226270000000  0.4569660000000  0.5648770000000 1.0
C      1  0.4351550000000  0.5602900000000  0.5648680000000 1.0
C      1  0.5372920000000  0.5803030000000  0.5648710000000 1.0
C      1  0.5878890000000  0.4893490000000  0.5648820000000 1.0
C      1  0.5657700000000  0.4858720000000  0.5479000000000 1.0
C      1  0.5068820000000  0.4330840000000  0.5479030000000 1.0
C      1  0.4384790000000  0.4727780000000  0.5478950000000 1.0
C      1  0.4550930000000  0.5500980000000  0.5478890000000 1.0
C      1  0.5337640000000  0.5581910000000  0.5478920000000 1.0
C      1  0.6173780000000  0.4873020000000  0.5047980000000 1.0
C      1  0.5241950000000  0.3844430000000  0.5048040000000 1.0
C      1  0.3975750000000  0.4412800000000  0.5047920000000 1.0
C      1  0.4125030000000  0.5792670000000  0.5047790000000 1.0
C      1  0.5483480000000  0.6077100000000  0.5047830000000 1.0
END
