TITL C-3623288-6813-119 -0.0657138089884449 125000 -654.701356954864 0 0 109 (C1) n - 1
REM
REM in /home/nfs/bkarasulu/CARBON/AIRSS/Generating-Clusters/LCBOP/Higher-Symm/SD-CG/FIRE-CG
REM
REM
REM
REM
REM
REM ./C.cell (b20cbc046b6831c77cfcea5457e17084)
REM AIRSS Version 0.9.1 bugfix July 2018 build 013d7b7c2542+ Fri, 06 Jul 2018 19:26:36 +0100
REM compiler GCC version 9.2.1 20190827 (Red Hat 9.2.1-1)
REM options -cpp -mtune=generic -march=x86-64 -g -O0 -fpre-include=/usr/include/finclude/math-vector-fortran.h
REM seed 1602299882 -444878424 1841021160 -786916069 23711237 381626130 -782392724 255294116 -1922325430 1160369254 1689793786 -1709327513 282920890 -564793929 -634459380 107342800 380049745 209859765 220851649 163111955 1984452805 -1957183638 -1919617200 136650674 -683305811 -778965272 2013378398 -1501787084 1196514376 -566025941 1335455771 2105635685 -184696174
REM
CELL 1.54180   50.00000   50.00000   50.00000   90.00000   90.00000   90.00000
LATT -1
SFAC C  
C      1  0.6138600000000  0.6191120000000  0.5800200000000 1.0
C      1  0.5407580000000  0.4803440000000  0.4222300000000 1.0
C      1  0.5266670000000  0.4554880000000  0.4237020000000 1.0
C      1  0.4621400000000  0.4558450000000  0.4459730000000 1.0
C      1  0.4775180000000  0.4952050000000  0.5652270000000 1.0
C      1  0.5376870000000  0.4956330000000  0.3981670000000 1.0
C      1  0.4828270000000  0.5273430000000  0.4323890000000 1.0
C      1  0.5584090000000  0.5249530000000  0.5530540000000 1.0
C      1  0.4056350000000  0.4369760000000  0.4440080000000 1.0
C      1  0.4595030000000  0.5024840000000  0.5235550000000 1.0
C      1  0.5737650000000  0.5271980000000  0.5757330000000 1.0
C      1  0.4747740000000  0.5793020000000  0.4420200000000 1.0
C      1  0.4352380000000  0.5643750000000  0.5753690000000 1.0
C      1  0.4128590000000  0.4769600000000  0.4164900000000 1.0
C      1  0.4109960000000  0.4633310000000  0.5465880000000 1.0
C      1  0.5135670000000  0.5206170000000  0.6233590000000 1.0
C      1  0.4148620000000  0.5134990000000  0.5388780000000 1.0
C      1  0.4549090000000  0.4293130000000  0.4550740000000 1.0
C      1  0.5193340000000  0.4417830000000  0.3995060000000 1.0
C      1  0.5112320000000  0.5726040000000  0.5031000000000 1.0
C      1  0.5671690000000  0.5384150000000  0.5294190000000 1.0
C      1  0.4288470000000  0.4355350000000  0.4901250000000 1.0
C      1  0.4439580000000  0.4192370000000  0.5530620000000 1.0
C      1  0.5269760000000  0.4547220000000  0.3754880000000 1.0
C      1  0.5810690000000  0.5802690000000  0.4653070000000 1.0
C      1  0.4346480000000  0.4924800000000  0.4246370000000 1.0
C      1  0.5490490000000  0.4721800000000  0.5066640000000 1.0
C      1  0.4573980000000  0.4740670000000  0.5124860000000 1.0
C      1  0.4949980000000  0.5726590000000  0.4584330000000 1.0
C      1  0.5753560000000  0.4776940000000  0.4985110000000 1.0
C      1  0.5369460000000  0.4209770000000  0.4545520000000 1.0
C      1  0.5698100000000  0.5600430000000  0.4522530000000 1.0
C      1  0.5058900000000  0.5569280000000  0.4797530000000 1.0
C      1  0.5035520000000  0.5280620000000  0.4766970000000 1.0
C      1  0.5319010000000  0.5736380000000  0.5227030000000 1.0
C      1  0.4003490000000  0.4547980000000  0.4247570000000 1.0
C      1  0.5069340000000  0.4387640000000  0.5599660000000 1.0
C      1  0.4579440000000  0.5032210000000  0.4659250000000 1.0
C      1  0.4139060000000  0.4907580000000  0.5569490000000 1.0
C      1  0.6565640000000  0.5318240000000  0.4747280000000 1.0
C      1  0.4444430000000  0.5745860000000  0.5133350000000 1.0
C      1  0.4641100000000  0.5923760000000  0.5113570000000 1.0
C      1  0.5460710000000  0.5120440000000  0.4599330000000 1.0
C      1  0.5586180000000  0.5646100000000  0.5220130000000 1.0
C      1  0.4518570000000  0.4827820000000  0.4459410000000 1.0
C      1  0.5799630000000  0.4788030000000  0.4517540000000 1.0
C      1  0.5014400000000  0.5402270000000  0.5743860000000 1.0
C      1  0.4818500000000  0.5185890000000  0.4599120000000 1.0
C      1  0.4641470000000  0.4103470000000  0.4774380000000 1.0
C      1  0.5050300000000  0.4179330000000  0.3994920000000 1.0
C      1  0.4327710000000  0.4600180000000  0.5039930000000 1.0
C      1  0.4295560000000  0.4862260000000  0.5806670000000 1.0
C      1  0.5450360000000  0.4451160000000  0.5146180000000 1.0
C      1  0.4908240000000  0.3961590000000  0.4013130000000 1.0
C      1  0.4457550000000  0.4624940000000  0.5765350000000 1.0
C      1  0.5075140000000  0.5305900000000  0.6000560000000 1.0
C      1  0.5314710000000  0.4217950000000  0.5120250000000 1.0
C      1  0.4382480000000  0.5488820000000  0.5147970000000 1.0
C      1  0.4261590000000  0.4326880000000  0.4620510000000 1.0
C      1  0.4937590000000  0.4156030000000  0.5704270000000 1.0
C      1  0.5363130000000  0.4801290000000  0.3746260000000 1.0
C      1  0.4582360000000  0.5382350000000  0.4222710000000 1.0
C      1  0.4710220000000  0.4682210000000  0.5657200000000 1.0
C      1  0.5090710000000  0.5241920000000  0.5515680000000 1.0
C      1  0.4887150000000  0.5655060000000  0.5726470000000 1.0
C      1  0.4862270000000  0.4632340000000  0.5171450000000 1.0
C      1  0.5892020000000  0.5280670000000  0.5154910000000 1.0
C      1  0.6126100000000  0.5268390000000  0.5031140000000 1.0
C      1  0.5251210000000  0.5203130000000  0.4010080000000 1.0
C      1  0.5304780000000  0.4537070000000  0.5675280000000 1.0
C      1  0.4568850000000  0.5660260000000  0.4266280000000 1.0
C      1  0.4447430000000  0.4135080000000  0.4997780000000 1.0
C      1  0.4090890000000  0.4637340000000  0.5188930000000 1.0
C      1  0.5053150000000  0.5865570000000  0.5646370000000 1.0
C      1  0.4669000000000  0.4107570000000  0.5683260000000 1.0
C      1  0.5059850000000  0.4205030000000  0.5002000000000 1.0
C      1  0.5923920000000  0.4741170000000  0.4764710000000 1.0
C      1  0.5262130000000  0.5103740000000  0.4806950000000 1.0
C      1  0.4301060000000  0.4439670000000  0.5598770000000 1.0
C      1  0.5054080000000  0.5294470000000  0.4163070000000 1.0
C      1  0.5553570000000  0.4900550000000  0.4443100000000 1.0
C      1  0.4868980000000  0.4538110000000  0.5465150000000 1.0
C      1  0.5337430000000  0.4818360000000  0.5618860000000 1.0
C      1  0.4905140000000  0.5916400000000  0.5077990000000 1.0
C      1  0.5227300000000  0.4438530000000  0.4491220000000 1.0
C      1  0.4374600000000  0.5121840000000  0.4845990000000 1.0
C      1  0.6350630000000  0.5293880000000  0.4892660000000 1.0
C      1  0.5246220000000  0.5876980000000  0.5462130000000 1.0
C      1  0.5506860000000  0.4406910000000  0.5808330000000 1.0
C      1  0.5060430000000  0.4554680000000  0.4688970000000 1.0
C      1  0.5848660000000  0.5896700000000  0.4899110000000 1.0
C      1  0.5273790000000  0.4915340000000  0.5028430000000 1.0
C      1  0.4425540000000  0.4081340000000  0.5270390000000 1.0
C      1  0.3998270000000  0.5363770000000  0.5476260000000 1.0
C      1  0.5917140000000  0.5974520000000  0.5375600000000 1.0
C      1  0.5343310000000  0.5097600000000  0.5544130000000 1.0
C      1  0.4388780000000  0.5190260000000  0.4158820000000 1.0
C      1  0.5039820000000  0.4890550000000  0.5194140000000 1.0
C      1  0.4899250000000  0.4021910000000  0.4860680000000 1.0
C      1  0.4130240000000  0.5539070000000  0.5651510000000 1.0
C      1  0.5787510000000  0.5843530000000  0.5166690000000 1.0
C      1  0.6029810000000  0.6084910000000  0.5588440000000 1.0
C      1  0.6182680000000  0.4660100000000  0.4787940000000 1.0
C      1  0.4867800000000  0.5071400000000  0.5390810000000 1.0
C      1  0.4358810000000  0.5189630000000  0.5152510000000 1.0
C      1  0.4614140000000  0.5684180000000  0.5774300000000 1.0
C      1  0.5566210000000  0.5370780000000  0.4530040000000 1.0
C      1  0.3742000000000  0.5406100000000  0.5392470000000 1.0
C      1  0.4970540000000  0.4472760000000  0.4945040000000 1.0
END
