TITL C-3623286-7563-980 0.000150360754934418 125000 -732.238351035462 0 0 122 (C1) n - 1
REM
REM in /home/nfs/bkarasulu/CARBON/AIRSS/Generating-Clusters/LCBOP/Higher-Symm/SD-CG/FIRE-CG
REM
REM
REM
REM
REM
REM ./C.cell (b20cbc046b6831c77cfcea5457e17084)
REM AIRSS Version 0.9.1 bugfix July 2018 build 013d7b7c2542+ Fri, 06 Jul 2018 19:26:36 +0100
REM compiler GCC version 9.2.1 20190827 (Red Hat 9.2.1-1)
REM options -cpp -mtune=generic -march=x86-64 -g -O0 -fpre-include=/usr/include/finclude/math-vector-fortran.h
REM seed 158188783 -656648757 798572988 -1643980 -661788335 1041991685 1737478738 1281385828 -446420873 2001423610 -1798804294 -364947791 -6326997 -1109475068 204775333 996754315 -485669391 -1290527798 -489029958 -1771548092 1520452094 -1479008659 2091503569 -1611521078 -2045075902 665985753 -1906069026 -14871716 436571032 -1636453484 -1752091063 1777750398 -535712996
REM
CELL 1.54180   50.00000   50.00000   50.00000   90.00000   90.00000   90.00000
LATT -1
SFAC C  
C      1  0.6058630000000  0.4539080000000  0.5654450000000 1.0
C      1  0.3923010000000  0.5396080000000  0.5627520000000 1.0
C      1  0.4204730000000  0.4657620000000  0.4192510000000 1.0
C      1  0.6095000000000  0.5467590000000  0.4316780000000 1.0
C      1  0.5472990000000  0.4338270000000  0.5294180000000 1.0
C      1  0.4536650000000  0.5598480000000  0.5248220000000 1.0
C      1  0.4519370000000  0.4271000000000  0.4740230000000 1.0
C      1  0.5518590000000  0.5733450000000  0.4704590000000 1.0
C      1  0.5377530000000  0.6141850000000  0.5302400000000 1.0
C      1  0.4755750000000  0.3848750000000  0.5303200000000 1.0
C      1  0.4777950000000  0.6043920000000  0.4726080000000 1.0
C      1  0.5178280000000  0.3987120000000  0.4761170000000 1.0
C      1  0.4239780000000  0.5182180000000  0.5239990000000 1.0
C      1  0.5745920000000  0.4768230000000  0.5268530000000 1.0
C      1  0.5789580000000  0.5299680000000  0.4735270000000 1.0
C      1  0.4383850000000  0.4744910000000  0.4696590000000 1.0
C      1  0.4821690000000  0.5672190000000  0.4383850000000 1.0
C      1  0.5010400000000  0.4402660000000  0.4548010000000 1.0
C      1  0.5161020000000  0.5745570000000  0.5484880000000 1.0
C      1  0.4822660000000  0.4203850000000  0.5669120000000 1.0
C      1  0.4813900000000  0.4422010000000  0.4340160000000 1.0
C      1  0.5104130000000  0.5628690000000  0.4321990000000 1.0
C      1  0.5101800000000  0.4307050000000  0.5712740000000 1.0
C      1  0.4960340000000  0.5575580000000  0.5615240000000 1.0
C      1  0.5956390000000  0.5382120000000  0.4525690000000 1.0
C      1  0.4326250000000  0.4699680000000  0.4424530000000 1.0
C      1  0.4076490000000  0.5284650000000  0.5442620000000 1.0
C      1  0.5914210000000  0.4650550000000  0.5462410000000 1.0
C      1  0.5122420000000  0.4544960000000  0.5886650000000 1.0
C      1  0.5013960000000  0.5376550000000  0.5820050000000 1.0
C      1  0.4835040000000  0.4655230000000  0.4164580000000 1.0
C      1  0.5152770000000  0.5409950000000  0.4131380000000 1.0
C      1  0.4587730000000  0.4267210000000  0.4451510000000 1.0
C      1  0.5324490000000  0.5739030000000  0.4484930000000 1.0
C      1  0.5320660000000  0.4268870000000  0.5528710000000 1.0
C      1  0.4700560000000  0.5598220000000  0.5485100000000 1.0
C      1  0.4919950000000  0.4919130000000  0.4260480000000 1.0
C      1  0.5011560000000  0.5157210000000  0.4126600000000 1.0
C      1  0.5059100000000  0.4817890000000  0.5815260000000 1.0
C      1  0.5020960000000  0.5088080000000  0.5796120000000 1.0
C      1  0.4691840000000  0.4449640000000  0.5586450000000 1.0
C      1  0.5085670000000  0.5742620000000  0.5210020000000 1.0
C      1  0.4914710000000  0.4536380000000  0.4781150000000 1.0
C      1  0.4693620000000  0.5424540000000  0.4471990000000 1.0
C      1  0.5853700000000  0.5010990000000  0.5145920000000 1.0
C      1  0.4168240000000  0.4932420000000  0.5113630000000 1.0
C      1  0.4207560000000  0.4933060000000  0.4827480000000 1.0
C      1  0.5845930000000  0.5047600000000  0.4862120000000 1.0
C      1  0.5144210000000  0.4985010000000  0.5011680000000 1.0
C      1  0.4844710000000  0.5040280000000  0.5078830000000 1.0
C      1  0.4687750000000  0.4882990000000  0.5250260000000 1.0
C      1  0.5324940000000  0.5174830000000  0.5151490000000 1.0
C      1  0.4693390000000  0.6007870000000  0.4983920000000 1.0
C      1  0.5311380000000  0.3962910000000  0.4999170000000 1.0
C      1  0.5440890000000  0.6134970000000  0.5034210000000 1.0
C      1  0.4693100000000  0.3886850000000  0.5038850000000 1.0
C      1  0.4155740000000  0.5448100000000  0.4288120000000 1.0
C      1  0.5419480000000  0.4953450000000  0.4578240000000 1.0
C      1  0.5391860000000  0.5140070000000  0.5419400000000 1.0
C      1  0.4613140000000  0.4958870000000  0.5508520000000 1.0
C      1  0.4600380000000  0.4636430000000  0.5137310000000 1.0
C      1  0.5376160000000  0.5405880000000  0.5005710000000 1.0
C      1  0.5254020000000  0.4712310000000  0.5088330000000 1.0
C      1  0.4662880000000  0.5230390000000  0.4962530000000 1.0
C      1  0.6009080000000  0.4589390000000  0.4769760000000 1.0
C      1  0.3983950000000  0.5372830000000  0.4835530000000 1.0
C      1  0.3962650000000  0.4486720000000  0.5075620000000 1.0
C      1  0.6110310000000  0.5430860000000  0.5134790000000 1.0
C      1  0.4751600000000  0.5371980000000  0.4741600000000 1.0
C      1  0.5074550000000  0.4508900000000  0.5009930000000 1.0
C      1  0.5155450000000  0.5581010000000  0.5001820000000 1.0
C      1  0.4714460000000  0.4447960000000  0.5306490000000 1.0
C      1  0.5576310000000  0.4520330000000  0.4439460000000 1.0
C      1  0.4241960000000  0.5694280000000  0.4353850000000 1.0
C      1  0.4238800000000  0.4336470000000  0.5570980000000 1.0
C      1  0.5763480000000  0.5569440000000  0.5574550000000 1.0
C      1  0.4070010000000  0.5623230000000  0.4882000000000 1.0
C      1  0.5916870000000  0.4346210000000  0.4841090000000 1.0
C      1  0.6014360000000  0.5678800000000  0.5082730000000 1.0
C      1  0.4048250000000  0.4230250000000  0.5066420000000 1.0
C      1  0.5654670000000  0.5771030000000  0.5409990000000 1.0
C      1  0.4372750000000  0.4120210000000  0.5434420000000 1.0
C      1  0.4389460000000  0.5819180000000  0.4560560000000 1.0
C      1  0.5493720000000  0.4303420000000  0.4598240000000 1.0
C      1  0.4780400000000  0.4623310000000  0.3896790000000 1.0
C      1  0.5348880000000  0.5449140000000  0.3941640000000 1.0
C      1  0.5211880000000  0.4500840000000  0.6144120000000 1.0
C      1  0.5064780000000  0.5476350000000  0.6072780000000 1.0
C      1  0.5509490000000  0.4155870000000  0.5070940000000 1.0
C      1  0.4496410000000  0.5813740000000  0.5054850000000 1.0
C      1  0.4492950000000  0.4068170000000  0.4946570000000 1.0
C      1  0.5594250000000  0.5919290000000  0.4924990000000 1.0
C      1  0.5861050000000  0.4817850000000  0.4697390000000 1.0
C      1  0.4082830000000  0.5151750000000  0.4686430000000 1.0
C      1  0.4072500000000  0.4691860000000  0.5240840000000 1.0
C      1  0.5979010000000  0.5228460000000  0.5288140000000 1.0
C      1  0.4493200000000  0.4999620000000  0.5737050000000 1.0
C      1  0.5491190000000  0.5065070000000  0.5649000000000 1.0
C      1  0.5172640000000  0.4985100000000  0.4706830000000 1.0
C      1  0.4951050000000  0.4945550000000  0.4539340000000 1.0
C      1  0.5887550000000  0.5332700000000  0.5534650000000 1.0
C      1  0.4148020000000  0.4583080000000  0.5494880000000 1.0
C      1  0.4111350000000  0.5212810000000  0.4412020000000 1.0
C      1  0.5633230000000  0.4780000000000  0.4530200000000 1.0
C      1  0.4466620000000  0.5335810000000  0.5145790000000 1.0
C      1  0.5495170000000  0.4625110000000  0.5219830000000 1.0
C      1  0.5568950000000  0.5462670000000  0.4806680000000 1.0
C      1  0.4592200000000  0.4563270000000  0.4838910000000 1.0
C      1  0.4647430000000  0.4009350000000  0.5516410000000 1.0
C      1  0.5405950000000  0.5905830000000  0.5469860000000 1.0
C      1  0.5221110000000  0.4213250000000  0.4590980000000 1.0
C      1  0.4671410000000  0.5887600000000  0.4512550000000 1.0
C      1  0.6196000000000  0.4427210000000  0.5845680000000 1.0
C      1  0.3774730000000  0.5507620000000  0.5810630000000 1.0
C      1  0.4079800000000  0.4617750000000  0.3967230000000 1.0
C      1  0.6225910000000  0.5554210000000  0.4108660000000 1.0
C      1  0.5767110000000  0.5805580000000  0.5137500000000 1.0
C      1  0.4289530000000  0.4106370000000  0.5148600000000 1.0
C      1  0.4303610000000  0.5774940000000  0.4838350000000 1.0
C      1  0.5653860000000  0.4246130000000  0.4836860000000 1.0
C      1  0.4955370000000  0.4348190000000  0.5203020000000 1.0
C      1  0.4968510000000  0.5532440000000  0.4811720000000 1.0
END
