TITL C-3623287-7182-1705 2138.80314633368 125000 -1063.07802981412 0 0 172 (C1) n - 1
REM
REM in /home/nfs/bkarasulu/CARBON/AIRSS/Generating-Clusters/LCBOP/Higher-Symm/SD-CG/FIRE-CG
REM
REM
REM
REM
REM
REM ./C.cell (b20cbc046b6831c77cfcea5457e17084)
REM AIRSS Version 0.9.1 bugfix July 2018 build 013d7b7c2542+ Fri, 06 Jul 2018 19:26:36 +0100
REM compiler GCC version 9.2.1 20190827 (Red Hat 9.2.1-1)
REM options -cpp -mtune=generic -march=x86-64 -g -O0 -fpre-include=/usr/include/finclude/math-vector-fortran.h
REM seed -1910505941 2131233945 195411862 1239150940 -2014559711 -701296711 1996060133 -580875237 2017928556 -1697106857 -1056010109 1333880776 1757552883 611119261 -1877497883 -902384858 -1267712483 18611404 -637183825 1481020226 1382589415 1902425361 1574675441 207230426 830303430 -1606545129 1437319540 -1484472189 -816262059 -2004050192 -1188656370 499660994 -358763844
REM
CELL 1.54180   50.00000   50.00000   50.00000   90.00000   90.00000   90.00000
LATT -1
SFAC C  
C      1  0.5704960000000  0.5729950000000  0.5615330000000 1.0
C      1  0.4360830000000  0.5764690000000  0.4552720000000 1.0
C      1  0.4134170000000  0.5848700000000  0.4695780000000 1.0
C      1  0.5734510000000  0.5879050000000  0.5371540000000 1.0
C      1  0.5220320000000  0.3901120000000  0.5739210000000 1.0
C      1  0.4805950000000  0.3871970000000  0.4457340000000 1.0
C      1  0.5416950000000  0.4640960000000  0.3979080000000 1.0
C      1  0.4487090000000  0.4700230000000  0.5916320000000 1.0
C      1  0.5106160000000  0.4222930000000  0.5410430000000 1.0
C      1  0.4943380000000  0.4175420000000  0.4773050000000 1.0
C      1  0.4294850000000  0.4736040000000  0.5659460000000 1.0
C      1  0.5649650000000  0.4698020000000  0.4180560000000 1.0
C      1  0.5431650000000  0.5098730000000  0.6053740000000 1.0
C      1  0.4456810000000  0.4970250000000  0.3819130000000 1.0
C      1  0.4206880000000  0.5036240000000  0.3877130000000 1.0
C      1  0.5550860000000  0.4880460000000  0.5890390000000 1.0
C      1  0.5487280000000  0.5921190000000  0.5229730000000 1.0
C      1  0.4671820000000  0.6048760000000  0.5079510000000 1.0
C      1  0.4730630000000  0.4139240000000  0.4564830000000 1.0
C      1  0.5237480000000  0.4177160000000  0.5658870000000 1.0
C      1  0.5355080000000  0.5673990000000  0.5181180000000 1.0
C      1  0.4736060000000  0.5856130000000  0.4879030000000 1.0
C      1  0.5770720000000  0.4047340000000  0.5070920000000 1.0
C      1  0.4257250000000  0.3960940000000  0.4995190000000 1.0
C      1  0.4922490000000  0.4657790000000  0.6114370000000 1.0
C      1  0.4940620000000  0.4614210000000  0.4002380000000 1.0
C      1  0.5160350000000  0.3627390000000  0.5123160000000 1.0
C      1  0.4908650000000  0.3596270000000  0.5037810000000 1.0
C      1  0.5584390000000  0.5337960000000  0.6036420000000 1.0
C      1  0.4728270000000  0.5524320000000  0.3994190000000 1.0
C      1  0.4858860000000  0.6133340000000  0.5791450000000 1.0
C      1  0.5201820000000  0.6208160000000  0.4407830000000 1.0
C      1  0.5537980000000  0.4881390000000  0.4396550000000 1.0
C      1  0.4402350000000  0.4894710000000  0.5402320000000 1.0
C      1  0.5695750000000  0.5395940000000  0.4144820000000 1.0
C      1  0.4228480000000  0.5544870000000  0.5850960000000 1.0
C      1  0.4682500000000  0.4523980000000  0.6020940000000 1.0
C      1  0.5191800000000  0.4474060000000  0.3990170000000 1.0
C      1  0.4871220000000  0.4646400000000  0.5550780000000 1.0
C      1  0.5058800000000  0.4605160000000  0.4756940000000 1.0
C      1  0.5833430000000  0.4849910000000  0.3990810000000 1.0
C      1  0.4076510000000  0.4903280000000  0.5796360000000 1.0
C      1  0.4846070000000  0.4099900000000  0.5389390000000 1.0
C      1  0.5183440000000  0.4085260000000  0.4615660000000 1.0
C      1  0.5967640000000  0.4981810000000  0.5175790000000 1.0
C      1  0.4111120000000  0.4909030000000  0.4534540000000 1.0
C      1  0.4598190000000  0.6051420000000  0.5731180000000 1.0
C      1  0.5370970000000  0.6039570000000  0.4555650000000 1.0
C      1  0.5503470000000  0.4575080000000  0.4943840000000 1.0
C      1  0.4581450000000  0.4742680000000  0.5217240000000 1.0
C      1  0.4674940000000  0.5094310000000  0.5539530000000 1.0
C      1  0.5300620000000  0.5029230000000  0.4355900000000 1.0
C      1  0.5384780000000  0.4282310000000  0.4582100000000 1.0
C      1  0.4622720000000  0.4268800000000  0.5387940000000 1.0
C      1  0.4162750000000  0.5004280000000  0.6039150000000 1.0
C      1  0.5691530000000  0.4941470000000  0.3769520000000 1.0
C      1  0.4144340000000  0.5387930000000  0.5103210000000 1.0
C      1  0.5862830000000  0.5498700000000  0.4803860000000 1.0
C      1  0.5972300000000  0.4570010000000  0.6010980000000 1.0
C      1  0.3727530000000  0.5236420000000  0.3957070000000 1.0
C      1  0.5161040000000  0.4516290000000  0.6056840000000 1.0
C      1  0.4742340000000  0.4500660000000  0.4170860000000 1.0
C      1  0.4937980000000  0.6212260000000  0.4364480000000 1.0
C      1  0.5122740000000  0.6131090000000  0.5817260000000 1.0
C      1  0.4802950000000  0.6293050000000  0.5105890000000 1.0
C      1  0.5443570000000  0.6149440000000  0.5070330000000 1.0
C      1  0.5541100000000  0.5453480000000  0.5161560000000 1.0
C      1  0.4709310000000  0.5322010000000  0.4604460000000 1.0
C      1  0.5089940000000  0.3912840000000  0.4397660000000 1.0
C      1  0.5008730000000  0.3856330000000  0.5921390000000 1.0
C      1  0.4373080000000  0.5528570000000  0.4389050000000 1.0
C      1  0.5762900000000  0.5445800000000  0.5598320000000 1.0
C      1  0.5177910000000  0.3970710000000  0.4138220000000 1.0
C      1  0.4802010000000  0.4004260000000  0.6012280000000 1.0
C      1  0.5138750000000  0.4990870000000  0.5718720000000 1.0
C      1  0.4724400000000  0.4940500000000  0.3422910000000 1.0
C      1  0.5080310000000  0.5606400000000  0.5175720000000 1.0
C      1  0.4887810000000  0.5625830000000  0.4956840000000 1.0
C      1  0.5349480000000  0.5765070000000  0.4505270000000 1.0
C      1  0.4559840000000  0.5871210000000  0.5514120000000 1.0
C      1  0.3963170000000  0.5134700000000  0.3911380000000 1.0
C      1  0.5767500000000  0.4722690000000  0.5959590000000 1.0
C      1  0.5075910000000  0.5136700000000  0.5158120000000 1.0
C      1  0.4832920000000  0.5128550000000  0.5014660000000 1.0
C      1  0.5866340000000  0.4778360000000  0.4770330000000 1.0
C      1  0.4033040000000  0.4693660000000  0.5128320000000 1.0
C      1  0.4769100000000  0.5357090000000  0.5479570000000 1.0
C      1  0.5294740000000  0.5059280000000  0.4997450000000 1.0
C      1  0.4667760000000  0.4902960000000  0.5003350000000 1.0
C      1  0.5390690000000  0.4604360000000  0.5206990000000 1.0
C      1  0.4921920000000  0.4951180000000  0.6142100000000 1.0
C      1  0.4932810000000  0.4863450000000  0.3851180000000 1.0
C      1  0.5868960000000  0.4281080000000  0.4977340000000 1.0
C      1  0.4120010000000  0.4190490000000  0.4996180000000 1.0
C      1  0.5953700000000  0.5837470000000  0.5194450000000 1.0
C      1  0.4078720000000  0.5944130000000  0.4940330000000 1.0
C      1  0.5365430000000  0.6024500000000  0.5830830000000 1.0
C      1  0.4721090000000  0.6079980000000  0.4444690000000 1.0
C      1  0.4890270000000  0.4918170000000  0.5612970000000 1.0
C      1  0.5201230000000  0.5269000000000  0.4419380000000 1.0
C      1  0.4421740000000  0.5511560000000  0.6034000000000 1.0
C      1  0.5470120000000  0.5384830000000  0.3991990000000 1.0
C      1  0.4111850000000  0.5528800000000  0.5610300000000 1.0
C      1  0.5885050000000  0.5366580000000  0.4338280000000 1.0
C      1  0.4034350000000  0.4439310000000  0.5044220000000 1.0
C      1  0.5781770000000  0.4537090000000  0.4899130000000 1.0
C      1  0.4643510000000  0.5602480000000  0.5530790000000 1.0
C      1  0.5236130000000  0.5527160000000  0.4474020000000 1.0
C      1  0.4994200000000  0.4394430000000  0.4954060000000 1.0
C      1  0.5161380000000  0.4412800000000  0.5204830000000 1.0
C      1  0.4611980000000  0.5361210000000  0.6151220000000 1.0
C      1  0.5211090000000  0.5297240000000  0.3895630000000 1.0
C      1  0.5021900000000  0.5367650000000  0.5331730000000 1.0
C      1  0.4805570000000  0.5366470000000  0.4858590000000 1.0
C      1  0.4595370000000  0.4845470000000  0.4739250000000 1.0
C      1  0.5507630000000  0.4816490000000  0.5386430000000 1.0
C      1  0.4665070000000  0.4337260000000  0.4371950000000 1.0
C      1  0.5271940000000  0.4366300000000  0.5863610000000 1.0
C      1  0.4314120000000  0.5054000000000  0.4683270000000 1.0
C      1  0.5720750000000  0.5019020000000  0.5319850000000 1.0
C      1  0.4445170000000  0.3770650000000  0.4987270000000 1.0
C      1  0.5596570000000  0.3862360000000  0.5159320000000 1.0
C      1  0.3778100000000  0.4556510000000  0.4321640000000 1.0
C      1  0.6168760000000  0.5145010000000  0.4720010000000 1.0
C      1  0.6440730000000  0.5134620000000  0.4660880000000 1.0
C      1  0.3616450000000  0.4377310000000  0.4212070000000 1.0
C      1  0.4433640000000  0.4928190000000  0.6095940000000 1.0
C      1  0.5414090000000  0.4865960000000  0.3787930000000 1.0
C      1  0.5177670000000  0.5020880000000  0.3816310000000 1.0
C      1  0.4663370000000  0.5083920000000  0.6163990000000 1.0
C      1  0.5800990000000  0.5319150000000  0.5848110000000 1.0
C      1  0.4500590000000  0.5547010000000  0.4135320000000 1.0
C      1  0.5290710000000  0.6363740000000  0.5164960000000 1.0
C      1  0.5029820000000  0.6420290000000  0.5161830000000 1.0
C      1  0.4091910000000  0.5492110000000  0.5345800000000 1.0
C      1  0.5996500000000  0.5348070000000  0.4602400000000 1.0
C      1  0.4365870000000  0.4244600000000  0.5498280000000 1.0
C      1  0.5618730000000  0.4259520000000  0.4430360000000 1.0
C      1  0.5206770000000  0.4194680000000  0.3994230000000 1.0
C      1  0.4678640000000  0.4242270000000  0.6030550000000 1.0
C      1  0.4384950000000  0.6148970000000  0.5871830000000 1.0
C      1  0.5487180000000  0.6129070000000  0.4793580000000 1.0
C      1  0.3457150000000  0.4201380000000  0.4104210000000 1.0
C      1  0.6694890000000  0.5125660000000  0.4604010000000 1.0
C      1  0.5751090000000  0.4442100000000  0.4283780000000 1.0
C      1  0.4219320000000  0.4450270000000  0.5595540000000 1.0
C      1  0.4201490000000  0.5134310000000  0.5000140000000 1.0
C      1  0.5517330000000  0.5120930000000  0.4829660000000 1.0
C      1  0.5663130000000  0.5301970000000  0.5374040000000 1.0
C      1  0.4436110000000  0.5289350000000  0.4537010000000 1.0
C      1  0.5980240000000  0.5702730000000  0.4961150000000 1.0
C      1  0.4206000000000  0.5991080000000  0.5172000000000 1.0
C      1  0.5143210000000  0.5071640000000  0.6002770000000 1.0
C      1  0.4703560000000  0.4926240000000  0.3695680000000 1.0
C      1  0.4470030000000  0.5977320000000  0.5266590000000 1.0
C      1  0.5628740000000  0.5373340000000  0.4903150000000 1.0
C      1  0.4708160000000  0.3653400000000  0.4602970000000 1.0
C      1  0.5342480000000  0.3724310000000  0.5557790000000 1.0
C      1  0.5535480000000  0.5803600000000  0.5838980000000 1.0
C      1  0.4610040000000  0.5893070000000  0.4621590000000 1.0
C      1  0.4705310000000  0.4537650000000  0.5354860000000 1.0
C      1  0.5334770000000  0.4535220000000  0.4715020000000 1.0
C      1  0.4676820000000  0.3646240000000  0.4885220000000 1.0
C      1  0.5378220000000  0.3723090000000  0.5275600000000 1.0
C      1  0.6046570000000  0.4954110000000  0.4901710000000 1.0
C      1  0.3940250000000  0.4736770000000  0.4428450000000 1.0
C      1  0.4976940000000  0.5454820000000  0.3921330000000 1.0
C      1  0.5494810000000  0.5606690000000  0.6044500000000 1.0
C      1  0.5649630000000  0.4929270000000  0.4652460000000 1.0
C      1  0.4173480000000  0.4931700000000  0.5197590000000 1.0
C      1  0.4835420000000  0.4731510000000  0.4629290000000 1.0
C      1  0.5392810000000  0.4867950000000  0.5644510000000 1.0
END
