TITL C-3623286-7563-403 0.00257570525652538 125000 -793.67457970058 0 0 129 (C1) n - 1
REM
REM in /home/nfs/bkarasulu/CARBON/AIRSS/Generating-Clusters/LCBOP/Higher-Symm/SD-CG/FIRE-CG
REM
REM
REM
REM
REM
REM ./C.cell (b20cbc046b6831c77cfcea5457e17084)
REM AIRSS Version 0.9.1 bugfix July 2018 build 013d7b7c2542+ Fri, 06 Jul 2018 19:26:36 +0100
REM compiler GCC version 9.2.1 20190827 (Red Hat 9.2.1-1)
REM options -cpp -mtune=generic -march=x86-64 -g -O0 -fpre-include=/usr/include/finclude/math-vector-fortran.h
REM seed -178352452 -1404336644 47398251 -69088808 -1348298460 -1343436757 396697292 -1631642721 -597142732 -871720389 -34649372 -61737198 2038940376 1017579565 695990458 2024033586 -706785452 492357473 706679190 -638919432 -1097697799 397313871 -1617479620 -1971785808 -805410502 227499087 1920958436 -1961577055 -830669 -847375302 107080526 -645037865 -1335159081
REM
CELL 1.54180   50.00000   50.00000   50.00000   90.00000   90.00000   90.00000
LATT -1
SFAC C  
C      1  0.3963750000000  0.4999020000000  0.4945070000000 1.0
C      1  0.5197960000000  0.4855040000000  0.4589340000000 1.0
C      1  0.4845760000000  0.4717260000000  0.5899300000000 1.0
C      1  0.4240720000000  0.4427150000000  0.4963060000000 1.0
C      1  0.4735730000000  0.5188800000000  0.5960750000000 1.0
C      1  0.5433140000000  0.4186800000000  0.5977060000000 1.0
C      1  0.5079700000000  0.5151540000000  0.5208780000000 1.0
C      1  0.4314750000000  0.5114240000000  0.5721470000000 1.0
C      1  0.4943810000000  0.4417940000000  0.5495900000000 1.0
C      1  0.5369510000000  0.5182850000000  0.5200210000000 1.0
C      1  0.5464450000000  0.5099450000000  0.5945120000000 1.0
C      1  0.4732730000000  0.5132830000000  0.3741260000000 1.0
C      1  0.4478040000000  0.4729010000000  0.4248150000000 1.0
C      1  0.5995760000000  0.4965500000000  0.5010850000000 1.0
C      1  0.5706900000000  0.4975590000000  0.4610040000000 1.0
C      1  0.5766810000000  0.4528660000000  0.4903560000000 1.0
C      1  0.4374760000000  0.4164910000000  0.4903190000000 1.0
C      1  0.4706660000000  0.5197880000000  0.4427590000000 1.0
C      1  0.5481980000000  0.5158530000000  0.4175870000000 1.0
C      1  0.5943150000000  0.5017400000000  0.4733340000000 1.0
C      1  0.5555300000000  0.5337670000000  0.5815330000000 1.0
C      1  0.5222970000000  0.4986700000000  0.5853170000000 1.0
C      1  0.4669440000000  0.4082540000000  0.4939660000000 1.0
C      1  0.5282320000000  0.5762370000000  0.5124490000000 1.0
C      1  0.5105660000000  0.5984390000000  0.5107600000000 1.0
C      1  0.5067260000000  0.4597250000000  0.4649810000000 1.0
C      1  0.5270750000000  0.5349680000000  0.4185120000000 1.0
C      1  0.4672280000000  0.4347480000000  0.4565410000000 1.0
C      1  0.5160800000000  0.6089280000000  0.4844680000000 1.0
C      1  0.5529620000000  0.4892550000000  0.4142580000000 1.0
C      1  0.4286080000000  0.4533280000000  0.4359140000000 1.0
C      1  0.5468170000000  0.4747870000000  0.5499150000000 1.0
C      1  0.5022180000000  0.4578070000000  0.5715930000000 1.0
C      1  0.5887400000000  0.4419910000000  0.4669830000000 1.0
C      1  0.5663980000000  0.5615270000000  0.4613060000000 1.0
C      1  0.5055340000000  0.4666390000000  0.5096520000000 1.0
C      1  0.4047810000000  0.5593120000000  0.5459590000000 1.0
C      1  0.4723330000000  0.5749230000000  0.4428790000000 1.0
C      1  0.5116730000000  0.3991330000000  0.5607350000000 1.0
C      1  0.5044550000000  0.5030050000000  0.4750430000000 1.0
C      1  0.5033670000000  0.5247750000000  0.4065110000000 1.0
C      1  0.4453830000000  0.5198810000000  0.5491110000000 1.0
C      1  0.4680290000000  0.5356440000000  0.5429700000000 1.0
C      1  0.5385820000000  0.5571470000000  0.5829730000000 1.0
C      1  0.4993760000000  0.4062050000000  0.4448780000000 1.0
C      1  0.5215450000000  0.4523540000000  0.4902140000000 1.0
C      1  0.4054290000000  0.4572290000000  0.4517130000000 1.0
C      1  0.5433670000000  0.4619960000000  0.4135550000000 1.0
C      1  0.4728360000000  0.5598860000000  0.5610700000000 1.0
C      1  0.4328260000000  0.5372600000000  0.3924420000000 1.0
C      1  0.4488120000000  0.5026690000000  0.5926090000000 1.0
C      1  0.5494480000000  0.4605110000000  0.4859010000000 1.0
C      1  0.4818880000000  0.3989020000000  0.3997980000000 1.0
C      1  0.4947510000000  0.4137260000000  0.5435710000000 1.0
C      1  0.5958980000000  0.4111160000000  0.5503430000000 1.0
C      1  0.5290160000000  0.4035450000000  0.5808250000000 1.0
C      1  0.4985020000000  0.5764050000000  0.5548930000000 1.0
C      1  0.3949740000000  0.5397650000000  0.5612090000000 1.0
C      1  0.4783200000000  0.4589660000000  0.4645660000000 1.0
C      1  0.4539030000000  0.5789160000000  0.4639510000000 1.0
C      1  0.4037760000000  0.5166470000000  0.5745510000000 1.0
C      1  0.4863420000000  0.4571900000000  0.5276740000000 1.0
C      1  0.4394180000000  0.4646250000000  0.5067570000000 1.0
C      1  0.5801570000000  0.4318950000000  0.5501390000000 1.0
C      1  0.4015590000000  0.4534860000000  0.4800660000000 1.0
C      1  0.4934550000000  0.4449620000000  0.4104070000000 1.0
C      1  0.5641350000000  0.4529950000000  0.5491870000000 1.0
C      1  0.5551660000000  0.4398520000000  0.6090670000000 1.0
C      1  0.5298450000000  0.5796250000000  0.6313170000000 1.0
C      1  0.4926330000000  0.5969310000000  0.5334170000000 1.0
C      1  0.4712690000000  0.5302190000000  0.4949650000000 1.0
C      1  0.4422630000000  0.4868920000000  0.4888490000000 1.0
C      1  0.5455210000000  0.4156720000000  0.4318650000000 1.0
C      1  0.5348010000000  0.5692220000000  0.6079440000000 1.0
C      1  0.4417590000000  0.4295110000000  0.4448660000000 1.0
C      1  0.5929400000000  0.4695890000000  0.5071630000000 1.0
C      1  0.4868300000000  0.5269910000000  0.4688250000000 1.0
C      1  0.4836440000000  0.5298720000000  0.5208740000000 1.0
C      1  0.5689500000000  0.5466080000000  0.4862570000000 1.0
C      1  0.4291660000000  0.4107480000000  0.4626540000000 1.0
C      1  0.4738100000000  0.5463120000000  0.5881370000000 1.0
C      1  0.5258410000000  0.5685540000000  0.5601670000000 1.0
C      1  0.5414840000000  0.5724270000000  0.5369470000000 1.0
C      1  0.4954520000000  0.4997040000000  0.5948950000000 1.0
C      1  0.3868160000000  0.4745930000000  0.4922960000000 1.0
C      1  0.4510540000000  0.5794700000000  0.5492210000000 1.0
C      1  0.4272390000000  0.5707830000000  0.5343960000000 1.0
C      1  0.5786540000000  0.5317530000000  0.5651890000000 1.0
C      1  0.4500690000000  0.6007420000000  0.5066120000000 1.0
C      1  0.4590990000000  0.4620230000000  0.5258030000000 1.0
C      1  0.4351780000000  0.5627520000000  0.4813470000000 1.0
C      1  0.5254050000000  0.4752320000000  0.5683250000000 1.0
C      1  0.4564190000000  0.4749220000000  0.5938860000000 1.0
C      1  0.4563460000000  0.4945270000000  0.4431760000000 1.0
C      1  0.5063890000000  0.5495480000000  0.4736220000000 1.0
C      1  0.5926350000000  0.5433040000000  0.5012370000000 1.0
C      1  0.5419160000000  0.5739510000000  0.4514230000000 1.0
C      1  0.4271450000000  0.5355610000000  0.4801460000000 1.0
C      1  0.4914850000000  0.4169200000000  0.4183720000000 1.0
C      1  0.4580360000000  0.5275620000000  0.3942090000000 1.0
C      1  0.5619940000000  0.4916970000000  0.6095600000000 1.0
C      1  0.5990200000000  0.5203930000000  0.5171590000000 1.0
C      1  0.5036550000000  0.4939190000000  0.5024870000000 1.0
C      1  0.5271190000000  0.4022300000000  0.4460350000000 1.0
C      1  0.3868560000000  0.5004140000000  0.5884370000000 1.0
C      1  0.5629640000000  0.4650950000000  0.6136300000000 1.0
C      1  0.5889800000000  0.5643050000000  0.4457150000000 1.0
C      1  0.5109870000000  0.4810190000000  0.3833590000000 1.0
C      1  0.5312110000000  0.5977620000000  0.4643750000000 1.0
C      1  0.4604690000000  0.4811220000000  0.4679480000000 1.0
C      1  0.5169390000000  0.4596240000000  0.4015310000000 1.0
C      1  0.5000310000000  0.5068000000000  0.3833180000000 1.0
C      1  0.5239840000000  0.5608150000000  0.4321580000000 1.0
C      1  0.5819190000000  0.4436990000000  0.4408590000000 1.0
C      1  0.4970420000000  0.5719670000000  0.4320740000000 1.0
C      1  0.4310990000000  0.5774010000000  0.5065400000000 1.0
C      1  0.4764950000000  0.5292540000000  0.4167980000000 1.0
C      1  0.4807410000000  0.4055980000000  0.5193430000000 1.0
C      1  0.5453720000000  0.5361990000000  0.4990790000000 1.0
C      1  0.4810720000000  0.4114600000000  0.4671160000000 1.0
C      1  0.5249180000000  0.5553730000000  0.4940600000000 1.0
C      1  0.5502530000000  0.4975820000000  0.5335540000000 1.0
C      1  0.4227710000000  0.5086240000000  0.4883080000000 1.0
C      1  0.4643010000000  0.5996440000000  0.5314130000000 1.0
C      1  0.4582110000000  0.6032500000000  0.4795260000000 1.0
C      1  0.5473940000000  0.4829410000000  0.4663250000000 1.0
C      1  0.5941990000000  0.5233650000000  0.5448630000000 1.0
C      1  0.5577890000000  0.4404230000000  0.4263410000000 1.0
C      1  0.4690590000000  0.4604770000000  0.4099760000000 1.0
END
