TITL C-3623283-6828-923 3.07832473379401e-07 125000 -758.727310584366 0 0 122 (C1) n - 1
REM
REM in /home/nfs/bkarasulu/CARBON/AIRSS/Generating-Clusters/LCBOP/Higher-Symm/SD-CG/FIRE-CG
REM
REM
REM
REM
REM
REM ./C.cell (b20cbc046b6831c77cfcea5457e17084)
REM AIRSS Version 0.9.1 bugfix July 2018 build 013d7b7c2542+ Fri, 06 Jul 2018 19:26:36 +0100
REM compiler GCC version 9.2.1 20190827 (Red Hat 9.2.1-1)
REM options -cpp -mtune=generic -march=x86-64 -g -O0 -fpre-include=/usr/include/finclude/math-vector-fortran.h
REM seed 510097147 -1907288087 -2124741302 -1392860311 -1438903403 1220538422 -1800677199 -850810748 -1959174064 94656761 1333924341 1755463420 112276653 -214027192 -771773041 116630936 -1799515586 955101417 -1810671260 -78550890 1821902055 -1738787621 -1212044379 362532063 808079587 -672250291 -43688268 -1765738722 -637123084 1180594103 1680447664 1490678452 566767563
REM
CELL 1.54180   50.00000   50.00000   50.00000   90.00000   90.00000   90.00000
LATT -1
SFAC C  
C      1  0.5301160000000  0.4664890000000  0.5044680000000 1.0
C      1  0.4725280000000  0.4605980000000  0.5056560000000 1.0
C      1  0.4210920000000  0.5415260000000  0.5087410000000 1.0
C      1  0.5769870000000  0.5384680000000  0.4911720000000 1.0
C      1  0.5374290000000  0.4564410000000  0.5583910000000 1.0
C      1  0.4726980000000  0.4756930000000  0.4566690000000 1.0
C      1  0.5562700000000  0.5323230000000  0.5365210000000 1.0
C      1  0.4391500000000  0.5396610000000  0.4616370000000 1.0
C      1  0.4698860000000  0.4147460000000  0.4243210000000 1.0
C      1  0.5374760000000  0.3990530000000  0.5738520000000 1.0
C      1  0.5638090000000  0.4009540000000  0.4941860000000 1.0
C      1  0.4434010000000  0.4036670000000  0.4954780000000 1.0
C      1  0.5568100000000  0.5951050000000  0.4641040000000 1.0
C      1  0.4392540000000  0.5975840000000  0.5372600000000 1.0
C      1  0.4832640000000  0.4597400000000  0.5864760000000 1.0
C      1  0.5065130000000  0.4537650000000  0.4120360000000 1.0
C      1  0.5430900000000  0.5947220000000  0.4884430000000 1.0
C      1  0.4516720000000  0.5998250000000  0.5122780000000 1.0
C      1  0.4801400000000  0.5476150000000  0.5544660000000 1.0
C      1  0.5197170000000  0.5441300000000  0.4432190000000 1.0
C      1  0.5021870000000  0.4804740000000  0.5852020000000 1.0
C      1  0.4946930000000  0.4788900000000  0.4145050000000 1.0
C      1  0.5875390000000  0.4927940000000  0.5494570000000 1.0
C      1  0.4127050000000  0.4957420000000  0.4508460000000 1.0
C      1  0.5241200000000  0.4487210000000  0.4810600000000 1.0
C      1  0.4804400000000  0.4383840000000  0.5230670000000 1.0
C      1  0.4709280000000  0.4824300000000  0.4291990000000 1.0
C      1  0.5291970000000  0.4759790000000  0.5774830000000 1.0
C      1  0.5458980000000  0.5441190000000  0.5644110000000 1.0
C      1  0.4475850000000  0.5467150000000  0.4325360000000 1.0
C      1  0.4551460000000  0.5957040000000  0.4646900000000 1.0
C      1  0.5414650000000  0.5909880000000  0.5357040000000 1.0
C      1  0.4220500000000  0.4479470000000  0.4542230000000 1.0
C      1  0.5800890000000  0.4440910000000  0.5452140000000 1.0
C      1  0.4834940000000  0.5255680000000  0.6042630000000 1.0
C      1  0.5138100000000  0.5212200000000  0.3947620000000 1.0
C      1  0.5120910000000  0.5127740000000  0.5438530000000 1.0
C      1  0.5192520000000  0.4998100000000  0.4610800000000 1.0
C      1  0.5318980000000  0.4951480000000  0.5061440000000 1.0
C      1  0.4706590000000  0.4864760000000  0.5162760000000 1.0
C      1  0.4550220000000  0.5582150000000  0.5628100000000 1.0
C      1  0.5450870000000  0.5556200000000  0.4368730000000 1.0
C      1  0.5069270000000  0.4259920000000  0.4867880000000 1.0
C      1  0.5014710000000  0.4209330000000  0.5142600000000 1.0
C      1  0.5353500000000  0.5106360000000  0.5295330000000 1.0
C      1  0.4634700000000  0.5225220000000  0.4694470000000 1.0
C      1  0.4069780000000  0.4697100000000  0.4951190000000 1.0
C      1  0.5960260000000  0.4679480000000  0.5049800000000 1.0
C      1  0.4228930000000  0.5319310000000  0.5361620000000 1.0
C      1  0.5765060000000  0.5290650000000  0.4636290000000 1.0
C      1  0.4914790000000  0.5064810000000  0.5842020000000 1.0
C      1  0.5097800000000  0.5018640000000  0.4153510000000 1.0
C      1  0.4616270000000  0.4523620000000  0.5700230000000 1.0
C      1  0.5127770000000  0.4375790000000  0.4343450000000 1.0
C      1  0.5929790000000  0.4681290000000  0.5349010000000 1.0
C      1  0.4087500000000  0.4709470000000  0.4652800000000 1.0
C      1  0.5677130000000  0.4897540000000  0.4387710000000 1.0
C      1  0.4280790000000  0.4938110000000  0.5639990000000 1.0
C      1  0.5288210000000  0.5474150000000  0.5860800000000 1.0
C      1  0.4616490000000  0.5290770000000  0.4132760000000 1.0
C      1  0.4868580000000  0.5366230000000  0.5085680000000 1.0
C      1  0.5067220000000  0.5353310000000  0.4892930000000 1.0
C      1  0.4922250000000  0.4185290000000  0.4414170000000 1.0
C      1  0.5217780000000  0.3948560000000  0.5524600000000 1.0
C      1  0.4442890000000  0.4212570000000  0.4190720000000 1.0
C      1  0.5560630000000  0.4171960000000  0.5811870000000 1.0
C      1  0.4159230000000  0.5193580000000  0.4662230000000 1.0
C      1  0.5824640000000  0.5159050000000  0.5337460000000 1.0
C      1  0.4653950000000  0.4588790000000  0.4779510000000 1.0
C      1  0.5373050000000  0.4530660000000  0.5286100000000 1.0
C      1  0.5615150000000  0.5134580000000  0.4197390000000 1.0
C      1  0.4364340000000  0.5174300000000  0.5802930000000 1.0
C      1  0.5416950000000  0.3941590000000  0.5081600000000 1.0
C      1  0.4659800000000  0.4002890000000  0.4807110000000 1.0
C      1  0.4470930000000  0.5848340000000  0.5595440000000 1.0
C      1  0.5523980000000  0.5821730000000  0.4410820000000 1.0
C      1  0.4342130000000  0.5394930000000  0.5614130000000 1.0
C      1  0.5657440000000  0.5364810000000  0.4380500000000 1.0
C      1  0.5199770000000  0.5102550000000  0.4862550000000 1.0
C      1  0.4723390000000  0.5128650000000  0.5136550000000 1.0
C      1  0.5952150000000  0.4426110000000  0.4916860000000 1.0
C      1  0.4110670000000  0.4436400000000  0.5065130000000 1.0
C      1  0.4175310000000  0.5019890000000  0.5374890000000 1.0
C      1  0.5819660000000  0.4993610000000  0.4631860000000 1.0
C      1  0.5527410000000  0.4657790000000  0.4423340000000 1.0
C      1  0.4385070000000  0.4683950000000  0.5696470000000 1.0
C      1  0.5919560000000  0.4921760000000  0.4899840000000 1.0
C      1  0.4090300000000  0.4941180000000  0.5103130000000 1.0
C      1  0.4449910000000  0.5846690000000  0.4887350000000 1.0
C      1  0.5505540000000  0.5789850000000  0.5115240000000 1.0
C      1  0.4894210000000  0.4120930000000  0.4689660000000 1.0
C      1  0.5197120000000  0.4015820000000  0.5252650000000 1.0
C      1  0.5067050000000  0.5441450000000  0.6030550000000 1.0
C      1  0.4864110000000  0.5341250000000  0.3958170000000 1.0
C      1  0.4762940000000  0.6136890000000  0.5130890000000 1.0
C      1  0.5176740000000  0.6082960000000  0.4885500000000 1.0
C      1  0.4094080000000  0.5184380000000  0.4940810000000 1.0
C      1  0.5903910000000  0.5163710000000  0.5061540000000 1.0
C      1  0.4446210000000  0.4421380000000  0.4700960000000 1.0
C      1  0.5610400000000  0.4370730000000  0.5246610000000 1.0
C      1  0.4347980000000  0.5580250000000  0.4879250000000 1.0
C      1  0.5602630000000  0.5522530000000  0.5115280000000 1.0
C      1  0.5831500000000  0.4187300000000  0.4877990000000 1.0
C      1  0.4239650000000  0.4197460000000  0.5055980000000 1.0
C      1  0.5762950000000  0.4932460000000  0.5755410000000 1.0
C      1  0.4251760000000  0.4964520000000  0.4253430000000 1.0
C      1  0.5025890000000  0.6117430000000  0.4650210000000 1.0
C      1  0.5041950000000  0.6127170000000  0.5134840000000 1.0
C      1  0.5438510000000  0.5213490000000  0.3957470000000 1.0
C      1  0.4542310000000  0.5231550000000  0.6028390000000 1.0
C      1  0.5316760000000  0.4498670000000  0.4530840000000 1.0
C      1  0.4678870000000  0.4363060000000  0.5479460000000 1.0
C      1  0.4922220000000  0.5218470000000  0.5604540000000 1.0
C      1  0.5156980000000  0.5156660000000  0.4389500000000 1.0
C      1  0.4872880000000  0.5560490000000  0.5285110000000 1.0
C      1  0.5079660000000  0.5528120000000  0.4673450000000 1.0
C      1  0.4231810000000  0.4347730000000  0.4293670000000 1.0
C      1  0.5620920000000  0.4414940000000  0.5682320000000 1.0
C      1  0.4523580000000  0.5013680000000  0.4185590000000 1.0
C      1  0.5517460000000  0.4906900000000  0.5868100000000 1.0
C      1  0.4780630000000  0.6063110000000  0.4557060000000 1.0
C      1  0.5197320000000  0.6072200000000  0.5364630000000 1.0
END
