TITL C-3623287-7182-682 -26448.6066801633 125000 -911.536470839856 0 0 151 (C1) n - 1
REM
REM in /home/nfs/bkarasulu/CARBON/AIRSS/Generating-Clusters/LCBOP/Higher-Symm/SD-CG/FIRE-CG
REM
REM
REM
REM
REM
REM ./C.cell (b20cbc046b6831c77cfcea5457e17084)
REM AIRSS Version 0.9.1 bugfix July 2018 build 013d7b7c2542+ Fri, 06 Jul 2018 19:26:36 +0100
REM compiler GCC version 9.2.1 20190827 (Red Hat 9.2.1-1)
REM options -cpp -mtune=generic -march=x86-64 -g -O0 -fpre-include=/usr/include/finclude/math-vector-fortran.h
REM seed -1886677706 -863219598 436263407 336076392 -2068721706 -1812208637 389034299 -1226632558 739576646 229773437 571253089 -1588383371 -966296459 1297814020 139625848 -1269223775 1147193337 215431450 1876003036 -376431398 -1658139916 -2125511756 -1994301549 -757311843 1420461008 1076109453 -2130398614 901057117 -1257112210 -1506000558 -511535796 -724169455 1135689110
REM
CELL 1.54180   50.00000   50.00000   50.00000   90.00000   90.00000   90.00000
LATT -1
SFAC C  
C      1  0.4455940000000  0.4470280000000  0.5771110000000 1.0
C      1  0.5874440000000  0.4542420000000  0.5109720000000 1.0
C      1  0.4637460000000  0.4524900000000  0.4223540000000 1.0
C      1  0.5490230000000  0.5446870000000  0.6129610000000 1.0
C      1  0.5874230000000  0.5437100000000  0.4510650000000 1.0
C      1  0.4158390000000  0.5550280000000  0.4475670000000 1.0
C      1  0.4141780000000  0.4556890000000  0.5292620000000 1.0
C      1  0.5616670000000  0.4522600000000  0.5597930000000 1.0
C      1  0.5203850000000  0.4541130000000  0.4168140000000 1.0
C      1  0.4992610000000  0.4319160000000  0.4609940000000 1.0
C      1  0.4610010000000  0.4331270000000  0.5228950000000 1.0
C      1  0.5389290000000  0.4288300000000  0.5236610000000 1.0
C      1  0.5585500000000  0.5812270000000  0.4653110000000 1.0
C      1  0.4633320000000  0.5946050000000  0.4479530000000 1.0
C      1  0.4642000000000  0.5840720000000  0.5770500000000 1.0
C      1  0.4072150000000  0.4591310000000  0.4700770000000 1.0
C      1  0.5137090000000  0.4559110000000  0.5953900000000 1.0
C      1  0.5717140000000  0.4526260000000  0.4403190000000 1.0
C      1  0.5311130000000  0.4144870000000  0.5480460000000 1.0
C      1  0.5233000000000  0.4165810000000  0.4532490000000 1.0
C      1  0.4420750000000  0.4184490000000  0.5061180000000 1.0
C      1  0.4061230000000  0.5495960000000  0.5740830000000 1.0
C      1  0.6040320000000  0.5409390000000  0.5394710000000 1.0
C      1  0.4684990000000  0.5407100000000  0.3907070000000 1.0
C      1  0.5110720000000  0.4584560000000  0.4673430000000 1.0
C      1  0.4613280000000  0.4604820000000  0.5095930000000 1.0
C      1  0.5177880000000  0.4515640000000  0.5229880000000 1.0
C      1  0.4402130000000  0.5149160000000  0.4726260000000 1.0
C      1  0.5141760000000  0.5172390000000  0.5573370000000 1.0
C      1  0.5337540000000  0.5212000000000  0.4480100000000 1.0
C      1  0.4660050000000  0.5373820000000  0.5609220000000 1.0
C      1  0.5690330000000  0.5531900000000  0.4724790000000 1.0
C      1  0.4441770000000  0.5537210000000  0.4448890000000 1.0
C      1  0.6535240000000  0.4671870000000  0.4204000000000 1.0
C      1  0.3548370000000  0.4940860000000  0.4201170000000 1.0
C      1  0.4817380000000  0.5238910000000  0.6547400000000 1.0
C      1  0.5025370000000  0.4072720000000  0.5477650000000 1.0
C      1  0.5393210000000  0.4080100000000  0.4759510000000 1.0
C      1  0.4549760000000  0.4094650000000  0.4819670000000 1.0
C      1  0.4057430000000  0.4972150000000  0.4378490000000 1.0
C      1  0.4895390000000  0.5017630000000  0.6061220000000 1.0
C      1  0.6104110000000  0.4843470000000  0.4480420000000 1.0
C      1  0.4831570000000  0.4795300000000  0.5462270000000 1.0
C      1  0.5424090000000  0.4830940000000  0.4907080000000 1.0
C      1  0.4548870000000  0.4917590000000  0.4739970000000 1.0
C      1  0.5389530000000  0.4622840000000  0.4724200000000 1.0
C      1  0.4492180000000  0.4663670000000  0.4844830000000 1.0
C      1  0.5017670000000  0.4581790000000  0.5500020000000 1.0
C      1  0.4712160000000  0.4227340000000  0.4612270000000 1.0
C      1  0.4749410000000  0.4197370000000  0.5454310000000 1.0
C      1  0.5522730000000  0.4199850000000  0.4995650000000 1.0
C      1  0.4167760000000  0.4310560000000  0.5132460000000 1.0
C      1  0.5491750000000  0.4267400000000  0.5670360000000 1.0
C      1  0.5314230000000  0.4290050000000  0.4280750000000 1.0
C      1  0.5232390000000  0.5108220000000  0.4196950000000 1.0
C      1  0.4131430000000  0.5071910000000  0.5295270000000 1.0
C      1  0.5385650000000  0.4974660000000  0.5413850000000 1.0
C      1  0.4108200000000  0.5337130000000  0.5189190000000 1.0
C      1  0.6144740000000  0.6053990000000  0.5443990000000 1.0
C      1  0.5247920000000  0.5381160000000  0.4039980000000 1.0
C      1  0.4342820000000  0.4510720000000  0.4646500000000 1.0
C      1  0.4963890000000  0.4454880000000  0.5758060000000 1.0
C      1  0.5635380000000  0.4490460000000  0.4667790000000 1.0
C      1  0.5959370000000  0.5883710000000  0.5345110000000 1.0
C      1  0.5076320000000  0.5615560000000  0.4071680000000 1.0
C      1  0.4204790000000  0.5590390000000  0.5281410000000 1.0
C      1  0.5474140000000  0.5295350000000  0.4744910000000 1.0
C      1  0.4565000000000  0.5376270000000  0.4652420000000 1.0
C      1  0.4927720000000  0.5343630000000  0.5490010000000 1.0
C      1  0.5782380000000  0.5586760000000  0.5017680000000 1.0
C      1  0.4615980000000  0.5715800000000  0.4302150000000 1.0
C      1  0.4522120000000  0.5619420000000  0.5652640000000 1.0
C      1  0.4833500000000  0.5730280000000  0.5134270000000 1.0
C      1  0.5304450000000  0.5630050000000  0.5076900000000 1.0
C      1  0.5001140000000  0.5671970000000  0.4706320000000 1.0
C      1  0.4503230000000  0.4655080000000  0.5989160000000 1.0
C      1  0.5963680000000  0.4800120000000  0.5012180000000 1.0
C      1  0.4536750000000  0.4793410000000  0.4205440000000 1.0
C      1  0.4769030000000  0.6048460000000  0.5863310000000 1.0
C      1  0.5449460000000  0.6026750000000  0.4747960000000 1.0
C      1  0.4604580000000  0.5967390000000  0.4751770000000 1.0
C      1  0.4101430000000  0.5093720000000  0.4668390000000 1.0
C      1  0.5158070000000  0.5060810000000  0.5909600000000 1.0
C      1  0.5879730000000  0.4957630000000  0.4332230000000 1.0
C      1  0.5859360000000  0.5232960000000  0.5491630000000 1.0
C      1  0.4810990000000  0.5166340000000  0.3901930000000 1.0
C      1  0.4060510000000  0.5223300000000  0.5749500000000 1.0
C      1  0.4982730000000  0.4825710000000  0.4741700000000 1.0
C      1  0.4769230000000  0.4823740000000  0.5193150000000 1.0
C      1  0.5251560000000  0.4821610000000  0.5152260000000 1.0
C      1  0.4839890000000  0.5420080000000  0.4745930000000 1.0
C      1  0.4890090000000  0.5447980000000  0.5222940000000 1.0
C      1  0.5270720000000  0.5372800000000  0.4955570000000 1.0
C      1  0.6328750000000  0.4756240000000  0.4338770000000 1.0
C      1  0.3795630000000  0.4956020000000  0.4282050000000 1.0
C      1  0.4857410000000  0.5129960000000  0.6314080000000 1.0
C      1  0.5739190000000  0.4376770000000  0.4914250000000 1.0
C      1  0.4531150000000  0.4389210000000  0.4455200000000 1.0
C      1  0.4699780000000  0.4327990000000  0.5709430000000 1.0
C      1  0.5109390000000  0.5807130000000  0.4489900000000 1.0
C      1  0.4593210000000  0.5840650000000  0.5011350000000 1.0
C      1  0.5554160000000  0.5715210000000  0.5163870000000 1.0
C      1  0.5785240000000  0.5015720000000  0.5077630000000 1.0
C      1  0.4752810000000  0.4949040000000  0.4312260000000 1.0
C      1  0.4510440000000  0.5131070000000  0.5601350000000 1.0
C      1  0.4676250000000  0.4915730000000  0.5657760000000 1.0
C      1  0.5593150000000  0.5052700000000  0.4874390000000 1.0
C      1  0.4781800000000  0.4923240000000  0.4584970000000 1.0
C      1  0.4343540000000  0.5766100000000  0.5114320000000 1.0
C      1  0.5671600000000  0.5909780000000  0.5337290000000 1.0
C      1  0.5181400000000  0.5816200000000  0.4234540000000 1.0
C      1  0.4002370000000  0.5376600000000  0.4620740000000 1.0
C      1  0.5330160000000  0.5263440000000  0.6037010000000 1.0
C      1  0.5878130000000  0.5237500000000  0.4331670000000 1.0
C      1  0.4084260000000  0.4822530000000  0.5153270000000 1.0
C      1  0.5461470000000  0.4762130000000  0.5648750000000 1.0
C      1  0.5373710000000  0.4806500000000  0.4181160000000 1.0
C      1  0.4247360000000  0.5621650000000  0.5565750000000 1.0
C      1  0.6000310000000  0.5623110000000  0.5213570000000 1.0
C      1  0.4781870000000  0.5610350000000  0.4080110000000 1.0
C      1  0.4230780000000  0.5087420000000  0.5565100000000 1.0
C      1  0.5679010000000  0.5080910000000  0.5339330000000 1.0
C      1  0.4935980000000  0.5049130000000  0.4130750000000 1.0
C      1  0.4254260000000  0.4527170000000  0.5565020000000 1.0
C      1  0.5813360000000  0.4519240000000  0.5388970000000 1.0
C      1  0.4914300000000  0.4510910000000  0.4128270000000 1.0
C      1  0.5662130000000  0.4775420000000  0.4267870000000 1.0
C      1  0.4034070000000  0.4841480000000  0.4856150000000 1.0
C      1  0.5292500000000  0.4789260000000  0.5879410000000 1.0
C      1  0.4274670000000  0.4883910000000  0.4223840000000 1.0
C      1  0.4692560000000  0.4861780000000  0.5935520000000 1.0
C      1  0.6098470000000  0.4821610000000  0.4763530000000 1.0
C      1  0.5010250000000  0.6537690000000  0.5083020000000 1.0
C      1  0.4986130000000  0.3297870000000  0.4986360000000 1.0
C      1  0.4893640000000  0.6759410000000  0.5169410000000 1.0
C      1  0.4551430000000  0.7427380000000  0.5418570000000 1.0
C      1  0.4978150000000  0.3827520000000  0.5000640000000 1.0
C      1  0.5216670000000  0.6068060000000  0.4909170000000 1.0
C      1  0.4984780000000  0.5265340000000  0.4988260000000 1.0
C      1  0.4991510000000  0.3033020000000  0.4979570000000 1.0
C      1  0.5003070000000  0.2503240000000  0.4966200000000 1.0
C      1  0.4997170000000  0.2768160000000  0.4972850000000 1.0
C      1  0.5082860000000  0.5808690000000  0.4978730000000 1.0
C      1  0.4778610000000  0.6982750000000  0.5253760000000 1.0
C      1  0.4993720000000  0.4362390000000  0.5047640000000 1.0
C      1  0.5123260000000  0.6314630000000  0.4995740000000 1.0
C      1  0.4981290000000  0.3562710000000  0.4993330000000 1.0
C      1  0.4985860000000  0.4955250000000  0.5025990000000 1.0
C      1  0.4977030000000  0.4093820000000  0.5008570000000 1.0
C      1  0.5008950000000  0.2242690000000  0.4959730000000 1.0
C      1  0.4664090000000  0.7206890000000  0.5336950000000 1.0
END
