TITL C-3623283-6828-1485 8798.04682315788 125000 -891.760963519474 0 0 149 (C1) n - 1
REM
REM in /home/nfs/bkarasulu/CARBON/AIRSS/Generating-Clusters/LCBOP/Higher-Symm/SD-CG/FIRE-CG
REM
REM
REM
REM
REM
REM ./C.cell (b20cbc046b6831c77cfcea5457e17084)
REM AIRSS Version 0.9.1 bugfix July 2018 build 013d7b7c2542+ Fri, 06 Jul 2018 19:26:36 +0100
REM compiler GCC version 9.2.1 20190827 (Red Hat 9.2.1-1)
REM options -cpp -mtune=generic -march=x86-64 -g -O0 -fpre-include=/usr/include/finclude/math-vector-fortran.h
REM seed -2024863729 876246475 -95668462 2144510793 -32662923 1733679210 -496830933 947412247 -1855351212 -1656084759 1360322351 -2045914479 1329821857 -1737734726 -729503783 -788591276 -1442112585 -276360224 1586615465 489821139 -157621409 1806143502 -2075805906 354774932 -1269459616 -1514820079 -1357690166 -2056246997 -1320214253 -200811931 1655327460 1129627525 -312962852
REM
CELL 1.54180   50.00000   50.00000   50.00000   90.00000   90.00000   90.00000
LATT -1
SFAC C  
C      1  0.4163960000000  0.5090530000000  0.5098310000000 1.0
C      1  0.5355550000000  0.5096200000000  0.4217240000000 1.0
C      1  0.5529160000000  0.5124080000000  0.5701290000000 1.0
C      1  0.4904740000000  0.4641900000000  0.6016230000000 1.0
C      1  0.4185180000000  0.4640260000000  0.4389920000000 1.0
C      1  0.5927310000000  0.4609720000000  0.4600080000000 1.0
C      1  0.5398390000000  0.4514270000000  0.4257520000000 1.0
C      1  0.5408120000000  0.4502800000000  0.5663690000000 1.0
C      1  0.4183940000000  0.4490560000000  0.5030620000000 1.0
C      1  0.3568710000000  0.6330440000000  0.4951980000000 1.0
C      1  0.5755060000000  0.6348830000000  0.3778090000000 1.0
C      1  0.5634480000000  0.6365120000000  0.6281240000000 1.0
C      1  0.5618710000000  0.4971370000000  0.4278950000000 1.0
C      1  0.5340240000000  0.4992920000000  0.5887870000000 1.0
C      1  0.4087210000000  0.4976810000000  0.4837540000000 1.0
C      1  0.5423510000000  0.5468570000000  0.5276780000000 1.0
C      1  0.4569580000000  0.5436050000000  0.5227750000000 1.0
C      1  0.5043810000000  0.5438790000000  0.4515550000000 1.0
C      1  0.4724800000000  0.5201990000000  0.3943500000000 1.0
C      1  0.6071760000000  0.5194030000000  0.5284170000000 1.0
C      1  0.4240560000000  0.5197110000000  0.5782790000000 1.0
C      1  0.5814330000000  0.5294170000000  0.4830700000000 1.0
C      1  0.4766900000000  0.5267240000000  0.5770460000000 1.0
C      1  0.4470010000000  0.5271420000000  0.4405460000000 1.0
C      1  0.5107770000000  0.5001690000000  0.4347350000000 1.0
C      1  0.5537490000000  0.5037700000000  0.5423760000000 1.0
C      1  0.4401940000000  0.4992900000000  0.5240110000000 1.0
C      1  0.5591670000000  0.5123250000000  0.4909760000000 1.0
C      1  0.4797220000000  0.5079500000000  0.5549280000000 1.0
C      1  0.4646450000000  0.5088670000000  0.4547560000000 1.0
C      1  0.4143520000000  0.4204230000000  0.5092330000000 1.0
C      1  0.5371750000000  0.4224920000000  0.4206170000000 1.0
C      1  0.5463970000000  0.4217790000000  0.5697550000000 1.0
C      1  0.5628950000000  0.5605400000000  0.5668370000000 1.0
C      1  0.4127240000000  0.5570860000000  0.5200750000000 1.0
C      1  0.5282120000000  0.5578940000000  0.4143360000000 1.0
C      1  0.5814990000000  0.6079730000000  0.5249870000000 1.0
C      1  0.4366720000000  0.6044420000000  0.5575850000000 1.0
C      1  0.4824840000000  0.6042350000000  0.4170840000000 1.0
C      1  0.4750780000000  0.4599950000000  0.5561890000000 1.0
C      1  0.4652090000000  0.4613750000000  0.4491570000000 1.0
C      1  0.5620890000000  0.4663130000000  0.4936180000000 1.0
C      1  0.5002610000000  0.5260640000000  0.3908160000000 1.0
C      1  0.5971840000000  0.5277680000000  0.5540500000000 1.0
C      1  0.4070620000000  0.5251040000000  0.5559280000000 1.0
C      1  0.4834020000000  0.4176270000000  0.5766260000000 1.0
C      1  0.4435500000000  0.4179460000000  0.4459410000000 1.0
C      1  0.5713270000000  0.4173690000000  0.4837300000000 1.0
C      1  0.5248610000000  0.5733700000000  0.4867190000000 1.0
C      1  0.5002770000000  0.5740500000000  0.5282800000000 1.0
C      1  0.4765440000000  0.5724120000000  0.4862290000000 1.0
C      1  0.5576170000000  0.6144740000000  0.6154770000000 1.0
C      1  0.3712310000000  0.6112870000000  0.4949650000000 1.0
C      1  0.5691960000000  0.6129510000000  0.3904100000000 1.0
C      1  0.6004190000000  0.5328870000000  0.5040930000000 1.0
C      1  0.4492340000000  0.5324230000000  0.5826760000000 1.0
C      1  0.4560310000000  0.5326890000000  0.4140270000000 1.0
C      1  0.5584960000000  0.5670010000000  0.5391250000000 1.0
C      1  0.4385960000000  0.5636970000000  0.5305420000000 1.0
C      1  0.5063110000000  0.5640430000000  0.4318150000000 1.0
C      1  0.4141190000000  0.4413160000000  0.5526100000000 1.0
C      1  0.4995080000000  0.4418730000000  0.3972450000000 1.0
C      1  0.5845570000000  0.4383040000000  0.5461370000000 1.0
C      1  0.4979790000000  0.3913290000000  0.5375370000000 1.0
C      1  0.4724120000000  0.3998130000000  0.4810990000000 1.0
C      1  0.5256730000000  0.4028600000000  0.4862200000000 1.0
C      1  0.5613120000000  0.4779870000000  0.5378970000000 1.0
C      1  0.4389970000000  0.4733370000000  0.5332190000000 1.0
C      1  0.5026000000000  0.4746550000000  0.4279060000000 1.0
C      1  0.5207210000000  0.4605770000000  0.5209120000000 1.0
C      1  0.4726050000000  0.4576140000000  0.5048750000000 1.0
C      1  0.5110460000000  0.4596440000000  0.4714580000000 1.0
C      1  0.4951340000000  0.4213680000000  0.4436920000000 1.0
C      1  0.5498200000000  0.4008910000000  0.5278910000000 1.0
C      1  0.4563400000000  0.4192880000000  0.5328870000000 1.0
C      1  0.4286540000000  0.3998820000000  0.4966310000000 1.0
C      1  0.5406900000000  0.4037170000000  0.4413000000000 1.0
C      1  0.5311150000000  0.3979730000000  0.5700530000000 1.0
C      1  0.4929050000000  0.5173960000000  0.4483050000000 1.0
C      1  0.5513730000000  0.5206330000000  0.5194670000000 1.0
C      1  0.4600530000000  0.5168430000000  0.5338580000000 1.0
C      1  0.4677700000000  0.5468910000000  0.4964620000000 1.0
C      1  0.5212590000000  0.5474820000000  0.4743300000000 1.0
C      1  0.5142310000000  0.5491740000000  0.5320270000000 1.0
C      1  0.4054340000000  0.5301210000000  0.5275140000000 1.0
C      1  0.5256490000000  0.5311020000000  0.4037630000000 1.0
C      1  0.5736410000000  0.5337680000000  0.5700490000000 1.0
C      1  0.4535510000000  0.4709500000000  0.3956470000000 1.0
C      1  0.6125360000000  0.4686330000000  0.5108380000000 1.0
C      1  0.4353590000000  0.4707300000000  0.5934050000000 1.0
C      1  0.4611020000000  0.4514510000000  0.5323630000000 1.0
C      1  0.4928820000000  0.4530850000000  0.4478570000000 1.0
C      1  0.5485050000000  0.4646680000000  0.5168590000000 1.0
C      1  0.5523900000000  0.4861880000000  0.4756460000000 1.0
C      1  0.4937660000000  0.4812250000000  0.5558460000000 1.0
C      1  0.4561390000000  0.4821370000000  0.4662050000000 1.0
C      1  0.4617910000000  0.4958590000000  0.3849760000000 1.0
C      1  0.6171740000000  0.4932240000000  0.5242610000000 1.0
C      1  0.4215060000000  0.4953810000000  0.5922540000000 1.0
C      1  0.5182950000000  0.4621430000000  0.4078170000000 1.0
C      1  0.5681110000000  0.4597430000000  0.5578780000000 1.0
C      1  0.4137950000000  0.4607720000000  0.5302620000000 1.0
C      1  0.4777970000000  0.4070280000000  0.5505490000000 1.0
C      1  0.4694420000000  0.4098620000000  0.4546370000000 1.0
C      1  0.5503050000000  0.4060750000000  0.4998350000000 1.0
C      1  0.4270330000000  0.5420270000000  0.4534020000000 1.0
C      1  0.5803490000000  0.5444380000000  0.4594460000000 1.0
C      1  0.4978510000000  0.5422110000000  0.5871340000000 1.0
C      1  0.4726670000000  0.4498450000000  0.3920400000000 1.0
C      1  0.6041620000000  0.4466240000000  0.5273450000000 1.0
C      1  0.4229800000000  0.4497480000000  0.5782870000000 1.0
C      1  0.4311570000000  0.4712810000000  0.4138970000000 1.0
C      1  0.6096150000000  0.4690980000000  0.4821420000000 1.0
C      1  0.4624130000000  0.4714280000000  0.6035210000000 1.0
C      1  0.4793820000000  0.5847920000000  0.5439540000000 1.0
C      1  0.4729570000000  0.5831590000000  0.4602950000000 1.0
C      1  0.5487200000000  0.5854510000000  0.4961470000000 1.0
C      1  0.5514900000000  0.5923750000000  0.6022120000000 1.0
C      1  0.3863060000000  0.5895020000000  0.4947900000000 1.0
C      1  0.5624850000000  0.5909870000000  0.4036170000000 1.0
C      1  0.4871200000000  0.5847050000000  0.4354930000000 1.0
C      1  0.5637970000000  0.5877940000000  0.5204340000000 1.0
C      1  0.4508380000000  0.5851610000000  0.5445640000000 1.0
C      1  0.5664040000000  0.4159260000000  0.5471970000000 1.0
C      1  0.4244140000000  0.4185440000000  0.5382520000000 1.0
C      1  0.5072060000000  0.4197930000000  0.4141810000000 1.0
C      1  0.4236940000000  0.4363770000000  0.4451530000000 1.0
C      1  0.5820140000000  0.4344210000000  0.4652530000000 1.0
C      1  0.4928830000000  0.4364670000000  0.5937850000000 1.0
C      1  0.4038270000000  0.5678350000000  0.4952880000000 1.0
C      1  0.5539910000000  0.5691070000000  0.4186620000000 1.0
C      1  0.5447110000000  0.5702960000000  0.5866060000000 1.0
C      1  0.4823000000000  0.5238420000000  0.4924000000000 1.0
C      1  0.5173800000000  0.5246310000000  0.4895020000000 1.0
C      1  0.5037810000000  0.5253950000000  0.5228030000000 1.0
C      1  0.5182080000000  0.4652510000000  0.5502360000000 1.0
C      1  0.4482580000000  0.4653110000000  0.4897520000000 1.0
C      1  0.5360780000000  0.4680630000000  0.4578720000000 1.0
C      1  0.4090380000000  0.4826950000000  0.4601530000000 1.0
C      1  0.5809300000000  0.4801920000000  0.4400390000000 1.0
C      1  0.5135360000000  0.4832820000000  0.5994310000000 1.0
C      1  0.5706520000000  0.5580440000000  0.4386090000000 1.0
C      1  0.5196600000000  0.5574830000000  0.5898460000000 1.0
C      1  0.4133580000000  0.5564120000000  0.4712740000000 1.0
C      1  0.4561800000000  0.4019340000000  0.5032470000000 1.0
C      1  0.5187830000000  0.4060600000000  0.4595900000000 1.0
C      1  0.5256650000000  0.3902200000000  0.5425250000000 1.0
C      1  0.5013200000000  0.4589430000000  0.4991620000000 1.0
C      1  0.5003740000000  0.5810390000000  0.5002410000000 1.0
END
