TITL C-3623283-6828-17 0.00203097494560059 125000 -305.242142264001 0 0 51 (C1) n - 1
REM
REM in /home/nfs/bkarasulu/CARBON/AIRSS/Generating-Clusters/LCBOP/Higher-Symm/SD-CG/FIRE-CG
REM
REM
REM
REM
REM
REM ./C.cell (b20cbc046b6831c77cfcea5457e17084)
REM AIRSS Version 0.9.1 bugfix July 2018 build 013d7b7c2542+ Fri, 06 Jul 2018 19:26:36 +0100
REM compiler GCC version 9.2.1 20190827 (Red Hat 9.2.1-1)
REM options -cpp -mtune=generic -march=x86-64 -g -O0 -fpre-include=/usr/include/finclude/math-vector-fortran.h
REM seed -1092105811 -1563575892 999346410 17177007 -1759993690 134370982 1259795970 1955721642 -528581645 1221840279 569997559 -2038139948 2117944892 77833835 93087937 -1813178560 350471121 1308164074 -395058829 702759206 55686027 -1794217683 1398045161 562526940 1423352364 -1372147456 1692571353 1760527159 975349781 764917006 -1389919845 -814635579 -84895113
REM
CELL 1.54180   50.00000   50.00000   50.00000   90.00000   90.00000   90.00000
LATT -1
SFAC C  
C      1  0.5532040000000  0.5249400000000  0.4351590000000 1.0
C      1  0.4839360000000  0.5293040000000  0.5077490000000 1.0
C      1  0.5060690000000  0.4790190000000  0.5646430000000 1.0
C      1  0.5440750000000  0.5008560000000  0.5211190000000 1.0
C      1  0.5629000000000  0.5020830000000  0.4446700000000 1.0
C      1  0.5054480000000  0.5158020000000  0.4946270000000 1.0
C      1  0.4864050000000  0.5379200000000  0.5348630000000 1.0
C      1  0.4634960000000  0.5396450000000  0.4914170000000 1.0
C      1  0.5039700000000  0.5862900000000  0.5263680000000 1.0
C      1  0.5016610000000  0.4348350000000  0.5075590000000 1.0
C      1  0.4442670000000  0.4623500000000  0.5479460000000 1.0
C      1  0.5635660000000  0.4604400000000  0.4767030000000 1.0
C      1  0.4648110000000  0.4482820000000  0.4800570000000 1.0
C      1  0.5259710000000  0.4284020000000  0.4163680000000 1.0
C      1  0.5567420000000  0.5496100000000  0.6109740000000 1.0
C      1  0.4375780000000  0.4811530000000  0.4586900000000 1.0
C      1  0.5034420000000  0.5066310000000  0.5690630000000 1.0
C      1  0.5100590000000  0.5980640000000  0.5032130000000 1.0
C      1  0.4884500000000  0.4822090000000  0.4544440000000 1.0
C      1  0.5001040000000  0.5014420000000  0.4711200000000 1.0
C      1  0.5034110000000  0.5800140000000  0.4547640000000 1.0
C      1  0.4885180000000  0.4329280000000  0.4822690000000 1.0
C      1  0.4635930000000  0.4708360000000  0.4622070000000 1.0
C      1  0.4950370000000  0.5643640000000  0.5386940000000 1.0
C      1  0.4816830000000  0.5198480000000  0.5561120000000 1.0
C      1  0.5112250000000  0.4397510000000  0.4362290000000 1.0
C      1  0.5394920000000  0.5476110000000  0.4328620000000 1.0
C      1  0.3975020000000  0.4443900000000  0.5086900000000 1.0
C      1  0.4190580000000  0.4548290000000  0.4957220000000 1.0
C      1  0.4461390000000  0.4476750000000  0.5017230000000 1.0
C      1  0.4424690000000  0.4866200000000  0.5589600000000 1.0
C      1  0.5106710000000  0.5961940000000  0.4765860000000 1.0
C      1  0.4559900000000  0.5095770000000  0.5609920000000 1.0
C      1  0.5390270000000  0.5351310000000  0.5984780000000 1.0
C      1  0.5039510000000  0.4670690000000  0.4363770000000 1.0
C      1  0.5211940000000  0.5206240000000  0.5853130000000 1.0
C      1  0.4864330000000  0.4444170000000  0.5298950000000 1.0
C      1  0.5512260000000  0.4447450000000  0.4943020000000 1.0
C      1  0.4167830000000  0.4733720000000  0.4743040000000 1.0
C      1  0.5466520000000  0.5420670000000  0.4967350000000 1.0
C      1  0.4579180000000  0.4485870000000  0.5276190000000 1.0
C      1  0.5320550000000  0.5193310000000  0.5039670000000 1.0
C      1  0.5228180000000  0.5673920000000  0.4390520000000 1.0
C      1  0.5642330000000  0.5610370000000  0.4934740000000 1.0
C      1  0.4768850000000  0.5705500000000  0.4544480000000 1.0
C      1  0.5019370000000  0.4253770000000  0.4587220000000 1.0
C      1  0.5297050000000  0.4354420000000  0.5069930000000 1.0
C      1  0.4997910000000  0.4568620000000  0.5512670000000 1.0
C      1  0.5669440000000  0.4802330000000  0.4592670000000 1.0
C      1  0.4611830000000  0.5552620000000  0.4698120000000 1.0
C      1  0.5603240000000  0.4885840000000  0.5374140000000 1.0
END
