TITL C-3623289-7120-795 -189.23757261333 125000 -103.70178583441 0 0 24 (C2) n - 1
REM
REM in /home/nfs/bkarasulu/CARBON/AIRSS/Generating-Clusters/LCBOP/Higher-Symm/SD-CG/FIRE-CG
REM
REM
REM
REM
REM
REM ./C.cell (b20cbc046b6831c77cfcea5457e17084)
REM AIRSS Version 0.9.1 bugfix July 2018 build 013d7b7c2542+ Fri, 06 Jul 2018 19:26:36 +0100
REM compiler GCC version 9.2.1 20190827 (Red Hat 9.2.1-1)
REM options -cpp -mtune=generic -march=x86-64 -g -O0 -fpre-include=/usr/include/finclude/math-vector-fortran.h
REM seed 1086468517 -1089984809 483683808 543819460 1074966110 -2135627591 257744147 1488561582 1206592986 1068920252 2104214354 -305748375 1727584510 -377983026 706316534 1449614776 658659302 293053409 -532141140 -736281747 -880004673 -2088150228 -51472844 1659173625 1368072446 292253832 -1851609878 1578960742 -1103115520 207287855 358196951 -468201105 -995442659
REM
CELL 1.54180   50.00000   50.00000   50.00000   90.00000   90.00000   90.00000
LATT -1
SFAC C  
C      1  0.4508140000000  0.4635610000000  0.5234080000000 1.0
C      1  0.5275910000000  0.4395370000000  0.5486440000000 1.0
C      1  0.5512710000000  0.4365630000000  0.4665720000000 1.0
C      1  0.4731310000000  0.4604690000000  0.4454430000000 1.0
C      1  0.4839970000000  0.3937520000000  0.4930230000000 1.0
C      1  0.4503620000000  0.5276040000000  0.4744590000000 1.0
C      1  0.5266270000000  0.5514150000000  0.4475260000000 1.0
C      1  0.5521330000000  0.5543060000000  0.5290520000000 1.0
C      1  0.4744140000000  0.5306200000000  0.5519090000000 1.0
C      1  0.4844100000000  0.5973140000000  0.5041060000000 1.0
C      1  0.4910010000000  0.4181080000000  0.4942500000000 1.0
C      1  0.4721830000000  0.4565980000000  0.5116320000000 1.0
C      1  0.5166090000000  0.4442470000000  0.5255230000000 1.0
C      1  0.5297660000000  0.4427590000000  0.4798570000000 1.0
C      1  0.4849800000000  0.4551470000000  0.4672390000000 1.0
C      1  0.4913160000000  0.5729380000000  0.5027210000000 1.0
C      1  0.4720070000000  0.5345050000000  0.4857580000000 1.0
C      1  0.5161480000000  0.5467310000000  0.4708840000000 1.0
C      1  0.5303210000000  0.5481740000000  0.5162470000000 1.0
C      1  0.4857900000000  0.5359120000000  0.5298550000000 1.0
C      1  0.5030150000000  0.4506350000000  0.4966350000000 1.0
C      1  0.5031810000000  0.5403770000000  0.5000670000000 1.0
C      1  0.5104120000000  0.4823020000000  0.4977450000000 1.0
C      1  0.5104610000000  0.5086900000000  0.4987900000000 1.0
END
