TITL C-3623288-6813-158 145.055709424991 125000 -718.02366012196 0 0 121 (C1) n - 1
REM
REM in /home/nfs/bkarasulu/CARBON/AIRSS/Generating-Clusters/LCBOP/Higher-Symm/SD-CG/FIRE-CG
REM
REM
REM
REM
REM
REM ./C.cell (b20cbc046b6831c77cfcea5457e17084)
REM AIRSS Version 0.9.1 bugfix July 2018 build 013d7b7c2542+ Fri, 06 Jul 2018 19:26:36 +0100
REM compiler GCC version 9.2.1 20190827 (Red Hat 9.2.1-1)
REM options -cpp -mtune=generic -march=x86-64 -g -O0 -fpre-include=/usr/include/finclude/math-vector-fortran.h
REM seed -1251330287 803523384 -1617716058 2038039236 -1505417114 2073410747 2119530793 1459458436 506282127 1928608788 280786674 1399165589 130925566 -759711800 1041296935 1903380598 -1770474723 1549107081 1346924880 1361427983 -975585407 426136564 488999279 344369881 313588314 1202331219 241688625 338232164 -2140269362 1360752839 948636418 746780375 -322775121
REM
CELL 1.54180   50.00000   50.00000   50.00000   90.00000   90.00000   90.00000
LATT -1
SFAC C  
C      1  0.4755010000000  0.4561930000000  0.5409790000000 1.0
C      1  0.5240950000000  0.6162300000000  0.6012460000000 1.0
C      1  0.5811080000000  0.4872050000000  0.5589050000000 1.0
C      1  0.4693930000000  0.4475830000000  0.4136030000000 1.0
C      1  0.4779860000000  0.5448780000000  0.4207280000000 1.0
C      1  0.5575170000000  0.4837410000000  0.4217730000000 1.0
C      1  0.5840220000000  0.4845430000000  0.4339530000000 1.0
C      1  0.4609360000000  0.4254840000000  0.4309100000000 1.0
C      1  0.4570150000000  0.5681200000000  0.4384630000000 1.0
C      1  0.4582550000000  0.4678900000000  0.5588460000000 1.0
C      1  0.5348330000000  0.5908070000000  0.6041280000000 1.0
C      1  0.5516480000000  0.4848110000000  0.5624020000000 1.0
C      1  0.5387340000000  0.5780430000000  0.5780400000000 1.0
C      1  0.5436270000000  0.4556580000000  0.5620490000000 1.0
C      1  0.4329240000000  0.4818540000000  0.5634530000000 1.0
C      1  0.5374120000000  0.4620780000000  0.4220910000000 1.0
C      1  0.4583580000000  0.4750360000000  0.4126870000000 1.0
C      1  0.5072800000000  0.5413970000000  0.4195540000000 1.0
C      1  0.4320540000000  0.5513200000000  0.4836060000000 1.0
C      1  0.5764620000000  0.5272460000000  0.4946810000000 1.0
C      1  0.4820740000000  0.4136050000000  0.4776490000000 1.0
C      1  0.4820420000000  0.5686350000000  0.5245820000000 1.0
C      1  0.5605900000000  0.4744730000000  0.5162150000000 1.0
C      1  0.4430370000000  0.4571220000000  0.5105080000000 1.0
C      1  0.6067080000000  0.4853330000000  0.4187670000000 1.0
C      1  0.4343930000000  0.4178790000000  0.4291380000000 1.0
C      1  0.4502040000000  0.5882430000000  0.4210880000000 1.0
C      1  0.5354690000000  0.4233700000000  0.5165300000000 1.0
C      1  0.4141500000000  0.5006170000000  0.5192020000000 1.0
C      1  0.5430000000000  0.5702140000000  0.5250220000000 1.0
C      1  0.4337850000000  0.5752910000000  0.5302720000000 1.0
C      1  0.5905640000000  0.5055000000000  0.5378810000000 1.0
C      1  0.4593730000000  0.4126340000000  0.5303140000000 1.0
C      1  0.4336710000000  0.4578310000000  0.4824870000000 1.0
C      1  0.4950570000000  0.5644350000000  0.4756420000000 1.0
C      1  0.5591600000000  0.4748710000000  0.4721990000000 1.0
C      1  0.4982720000000  0.4870620000000  0.5980880000000 1.0
C      1  0.4772680000000  0.5172690000000  0.5964420000000 1.0
C      1  0.5129110000000  0.5221010000000  0.5972650000000 1.0
C      1  0.4789680000000  0.5162610000000  0.5491810000000 1.0
C      1  0.5327570000000  0.5075070000000  0.5542900000000 1.0
C      1  0.5025790000000  0.4981710000000  0.5532520000000 1.0
C      1  0.5153740000000  0.4493950000000  0.5654590000000 1.0
C      1  0.4349800000000  0.5115960000000  0.5671220000000 1.0
C      1  0.5488910000000  0.5515440000000  0.5743350000000 1.0
C      1  0.4655230000000  0.5240250000000  0.4053320000000 1.0
C      1  0.5464280000000  0.5086960000000  0.4124150000000 1.0
C      1  0.4951370000000  0.4460760000000  0.4012340000000 1.0
C      1  0.4549150000000  0.5409830000000  0.4983170000000 1.0
C      1  0.5522380000000  0.5147250000000  0.5028710000000 1.0
C      1  0.4762580000000  0.4394520000000  0.4889660000000 1.0
C      1  0.5204040000000  0.6218080000000  0.5743700000000 1.0
C      1  0.5891850000000  0.4586440000000  0.5570290000000 1.0
C      1  0.4189580000000  0.4384090000000  0.5475100000000 1.0
C      1  0.5741010000000  0.5470580000000  0.5611910000000 1.0
C      1  0.5036540000000  0.4230610000000  0.5535650000000 1.0
C      1  0.4192020000000  0.5327490000000  0.5529270000000 1.0
C      1  0.4484450000000  0.5059820000000  0.4493390000000 1.0
C      1  0.5402590000000  0.5486870000000  0.4569000000000 1.0
C      1  0.5043570000000  0.4621230000000  0.4532340000000 1.0
C      1  0.4685680000000  0.5205360000000  0.4597970000000 1.0
C      1  0.5377460000000  0.5204920000000  0.4605380000000 1.0
C      1  0.4788890000000  0.4690510000000  0.4557030000000 1.0
C      1  0.4745970000000  0.4967590000000  0.4015060000000 1.0
C      1  0.5190200000000  0.5162500000000  0.4088860000000 1.0
C      1  0.5145760000000  0.4667980000000  0.4036710000000 1.0
C      1  0.5182290000000  0.4463560000000  0.5185500000000 1.0
C      1  0.4425340000000  0.5023750000000  0.5198640000000 1.0
C      1  0.5274280000000  0.5471860000000  0.5283390000000 1.0
C      1  0.5006010000000  0.5466920000000  0.5208040000000 1.0
C      1  0.5320170000000  0.4698850000000  0.5136010000000 1.0
C      1  0.4600330000000  0.4824130000000  0.5103790000000 1.0
C      1  0.4579980000000  0.5825110000000  0.5160400000000 1.0
C      1  0.5868030000000  0.4885080000000  0.5135910000000 1.0
C      1  0.4393030000000  0.4334860000000  0.5278350000000 1.0
C      1  0.5667450000000  0.4407740000000  0.5503260000000 1.0
C      1  0.4113610000000  0.4659940000000  0.5517490000000 1.0
C      1  0.5289980000000  0.5993460000000  0.5582070000000 1.0
C      1  0.5300450000000  0.5948130000000  0.5305580000000 1.0
C      1  0.5627400000000  0.4276790000000  0.5248790000000 1.0
C      1  0.3998060000000  0.4776540000000  0.5284290000000 1.0
C      1  0.5175230000000  0.5809920000000  0.4837790000000 1.0
C      1  0.5606230000000  0.4462290000000  0.4783820000000 1.0
C      1  0.4067510000000  0.4685860000000  0.4811480000000 1.0
C      1  0.5439050000000  0.5676540000000  0.4788270000000 1.0
C      1  0.5381910000000  0.4304630000000  0.4682280000000 1.0
C      1  0.4011370000000  0.4969470000000  0.4754220000000 1.0
C      1  0.5277410000000  0.4475340000000  0.4462850000000 1.0
C      1  0.4410130000000  0.4862120000000  0.4322840000000 1.0
C      1  0.5258550000000  0.5573690000000  0.4338540000000 1.0
C      1  0.4892640000000  0.4483370000000  0.5155340000000 1.0
C      1  0.4570900000000  0.5257770000000  0.5228090000000 1.0
C      1  0.5395330000000  0.5213980000000  0.5282520000000 1.0
C      1  0.4101980000000  0.5433760000000  0.5011440000000 1.0
C      1  0.5830170000000  0.5491590000000  0.5114400000000 1.0
C      1  0.5005530000000  0.4027500000000  0.4965610000000 1.0
C      1  0.4626920000000  0.5188640000000  0.5729880000000 1.0
C      1  0.5317650000000  0.5282180000000  0.5779110000000 1.0
C      1  0.5020170000000  0.4752160000000  0.5728890000000 1.0
C      1  0.5173450000000  0.4860540000000  0.4953640000000 1.0
C      1  0.4919860000000  0.4964220000000  0.5018720000000 1.0
C      1  0.4953010000000  0.5248470000000  0.5018120000000 1.0
C      1  0.4885230000000  0.4076000000000  0.5303390000000 1.0
C      1  0.4165190000000  0.5517730000000  0.5298740000000 1.0
C      1  0.5871050000000  0.5356050000000  0.5381660000000 1.0
C      1  0.5275600000000  0.4123070000000  0.4905430000000 1.0
C      1  0.4028690000000  0.5158740000000  0.4974780000000 1.0
C      1  0.5617970000000  0.5679340000000  0.5035490000000 1.0
C      1  0.4452510000000  0.5714140000000  0.4663720000000 1.0
C      1  0.5846960000000  0.4842160000000  0.4624680000000 1.0
C      1  0.4778930000000  0.4095730000000  0.4490650000000 1.0
C      1  0.5994540000000  0.4882690000000  0.4872670000000 1.0
C      1  0.4911330000000  0.3881870000000  0.4375550000000 1.0
C      1  0.4550330000000  0.5902150000000  0.4875420000000 1.0
C      1  0.3914200000000  0.4621990000000  0.5055180000000 1.0
C      1  0.5172930000000  0.6007900000000  0.5051750000000 1.0
C      1  0.5760670000000  0.4345320000000  0.4999080000000 1.0
C      1  0.4793080000000  0.5383990000000  0.4809150000000 1.0
C      1  0.5398860000000  0.4985240000000  0.4801040000000 1.0
C      1  0.4594870000000  0.4553590000000  0.4703830000000 1.0
C      1  0.5030570000000  0.4935800000000  0.4013410000000 1.0
END
