TITL C-3623282-6910-1773 4387.91867491827 125000 -1032.04696405112 0 0 169 (C1) n - 1
REM
REM in /home/nfs/bkarasulu/CARBON/AIRSS/Generating-Clusters/LCBOP/Higher-Symm/SD-CG/FIRE-CG
REM
REM
REM
REM
REM
REM ./C.cell (b20cbc046b6831c77cfcea5457e17084)
REM AIRSS Version 0.9.1 bugfix July 2018 build 013d7b7c2542+ Fri, 06 Jul 2018 19:26:36 +0100
REM compiler GCC version 9.2.1 20190827 (Red Hat 9.2.1-1)
REM options -cpp -mtune=generic -march=x86-64 -g -O0 -fpre-include=/usr/include/finclude/math-vector-fortran.h
REM seed -795992178 1321895557 -477410165 1754328367 58255252 -2113530903 1531798220 670039011 1224040771 750828793 -1858788266 1457172592 1646332781 356028695 -212704942 930983653 236782689 2041521381 645207529 -1802142334 -1690414629 -672929176 273864134 653851616 1888068373 1752821064 1373320846 1400832795 2071957982 -1338260111 256397188 219315764 218896141
REM
CELL 1.54180   50.00000   50.00000   50.00000   90.00000   90.00000   90.00000
LATT -1
SFAC C  
C      1  0.4343700000000  0.4113520000000  0.3975080000000 1.0
C      1  0.6025130000000  0.5819910000000  0.4367080000000 1.0
C      1  0.5643250000000  0.4116790000000  0.6024660000000 1.0
C      1  0.3975630000000  0.5882320000000  0.5645300000000 1.0
C      1  0.4522880000000  0.4747480000000  0.4014390000000 1.0
C      1  0.5931780000000  0.5199520000000  0.4618590000000 1.0
C      1  0.5463050000000  0.4750110000000  0.5988540000000 1.0
C      1  0.4022460000000  0.5251090000000  0.5462680000000 1.0
C      1  0.4533570000000  0.5924080000000  0.4558380000000 1.0
C      1  0.5429010000000  0.4082530000000  0.4531770000000 1.0
C      1  0.5435000000000  0.5923930000000  0.5439320000000 1.0
C      1  0.4569100000000  0.4078760000000  0.5449050000000 1.0
C      1  0.5496120000000  0.5466530000000  0.5147250000000 1.0
C      1  0.4854070000000  0.4530350000000  0.5484730000000 1.0
C      1  0.4516860000000  0.5469640000000  0.4844380000000 1.0
C      1  0.5145980000000  0.4542220000000  0.4493390000000 1.0
C      1  0.4132430000000  0.4550610000000  0.5553820000000 1.0
C      1  0.4431760000000  0.5447510000000  0.4124970000000 1.0
C      1  0.5851690000000  0.4523350000000  0.4430250000000 1.0
C      1  0.5546870000000  0.5451030000000  0.5872560000000 1.0
C      1  0.5698420000000  0.5314170000000  0.4443740000000 1.0
C      1  0.5524240000000  0.4695110000000  0.5713610000000 1.0
C      1  0.4299200000000  0.5303530000000  0.5516660000000 1.0
C      1  0.4469750000000  0.4695600000000  0.4291750000000 1.0
C      1  0.5992600000000  0.4843890000000  0.4080120000000 1.0
C      1  0.5920290000000  0.5150300000000  0.6000710000000 1.0
C      1  0.4014600000000  0.4858640000000  0.5924490000000 1.0
C      1  0.4060810000000  0.5137750000000  0.4012770000000 1.0
C      1  0.5197290000000  0.4832810000000  0.5442690000000 1.0
C      1  0.4568260000000  0.5160210000000  0.5181730000000 1.0
C      1  0.4812090000000  0.4841640000000  0.4549920000000 1.0
C      1  0.5485480000000  0.5192370000000  0.4812640000000 1.0
C      1  0.5810080000000  0.5786710000000  0.5173900000000 1.0
C      1  0.4831020000000  0.4225380000000  0.5824610000000 1.0
C      1  0.4168230000000  0.5766670000000  0.4828490000000 1.0
C      1  0.5158210000000  0.4227310000000  0.4160580000000 1.0
C      1  0.6011220000000  0.4764720000000  0.4350520000000 1.0
C      1  0.5644370000000  0.5208090000000  0.6020980000000 1.0
C      1  0.3987960000000  0.4796270000000  0.5650050000000 1.0
C      1  0.4334560000000  0.5201350000000  0.3982070000000 1.0
C      1  0.3814540000000  0.5523550000000  0.5110250000000 1.0
C      1  0.4875570000000  0.4472270000000  0.3808640000000 1.0
C      1  0.6172440000000  0.5509280000000  0.4934250000000 1.0
C      1  0.5106340000000  0.4472100000000  0.6183290000000 1.0
C      1  0.5740170000000  0.5065120000000  0.5372290000000 1.0
C      1  0.4641080000000  0.4924990000000  0.5732950000000 1.0
C      1  0.4261830000000  0.5073650000000  0.4637170000000 1.0
C      1  0.5356360000000  0.4933400000000  0.4243280000000 1.0
C      1  0.4303320000000  0.5751980000000  0.4565000000000 1.0
C      1  0.5419260000000  0.4245140000000  0.4295590000000 1.0
C      1  0.5670730000000  0.5758880000000  0.5434550000000 1.0
C      1  0.4570320000000  0.4244860000000  0.5684290000000 1.0
C      1  0.5068230000000  0.4162540000000  0.5660680000000 1.0
C      1  0.4334170000000  0.5829290000000  0.5064150000000 1.0
C      1  0.4925380000000  0.4169540000000  0.4329620000000 1.0
C      1  0.5654090000000  0.5855090000000  0.4930090000000 1.0
C      1  0.4259050000000  0.4304940000000  0.4657900000000 1.0
C      1  0.5336830000000  0.5703070000000  0.4246410000000 1.0
C      1  0.5747370000000  0.4313990000000  0.5348200000000 1.0
C      1  0.4658050000000  0.5691440000000  0.5736000000000 1.0
C      1  0.4140750000000  0.4558170000000  0.4601210000000 1.0
C      1  0.5385020000000  0.5449890000000  0.4121100000000 1.0
C      1  0.5867390000000  0.4563200000000  0.5416120000000 1.0
C      1  0.4600190000000  0.5438810000000  0.5854550000000 1.0
C      1  0.5288400000000  0.3997990000000  0.5724630000000 1.0
C      1  0.4271420000000  0.5993920000000  0.5284710000000 1.0
C      1  0.4705220000000  0.4003510000000  0.4270700000000 1.0
C      1  0.5738020000000  0.6004590000000  0.4704570000000 1.0
C      1  0.5142960000000  0.4803900000000  0.5178320000000 1.0
C      1  0.4831280000000  0.5190630000000  0.5119210000000 1.0
C      1  0.4885690000000  0.4813170000000  0.4810070000000 1.0
C      1  0.5218460000000  0.5190620000000  0.4880250000000 1.0
C      1  0.4787580000000  0.5811850000000  0.5279250000000 1.0
C      1  0.4716300000000  0.4183260000000  0.4790090000000 1.0
C      1  0.5197630000000  0.5833620000000  0.4704070000000 1.0
C      1  0.5299690000000  0.4186520000000  0.5201930000000 1.0
C      1  0.4052640000000  0.4558670000000  0.5267640000000 1.0
C      1  0.4716560000000  0.5441430000000  0.4039900000000 1.0
C      1  0.5924320000000  0.4504190000000  0.4718730000000 1.0
C      1  0.5260500000000  0.5441160000000  0.5949660000000 1.0
C      1  0.4428410000000  0.4940770000000  0.5101740000000 1.0
C      1  0.4891570000000  0.5061850000000  0.4410550000000 1.0
C      1  0.5751200000000  0.5127500000000  0.4874880000000 1.0
C      1  0.5112840000000  0.5054810000000  0.5575640000000 1.0
C      1  0.6059060000000  0.5663310000000  0.5122450000000 1.0
C      1  0.4896030000000  0.4347240000000  0.6071340000000 1.0
C      1  0.3922080000000  0.5645380000000  0.4895990000000 1.0
C      1  0.5089310000000  0.4347920000000  0.3914580000000 1.0
C      1  0.4182840000000  0.4957070000000  0.4962530000000 1.0
C      1  0.5027900000000  0.5046720000000  0.4163350000000 1.0
C      1  0.5866700000000  0.4945230000000  0.5048290000000 1.0
C      1  0.4964330000000  0.5041390000000  0.5815780000000 1.0
C      1  0.6127540000000  0.5422100000000  0.4669520000000 1.0
C      1  0.5381290000000  0.4530400000000  0.6151520000000 1.0
C      1  0.3854480000000  0.5467860000000  0.5384510000000 1.0
C      1  0.4601380000000  0.4528910000000  0.3848580000000 1.0
C      1  0.4774470000000  0.5297040000000  0.4500850000000 1.0
C      1  0.5478920000000  0.4706750000000  0.4756130000000 1.0
C      1  0.5228030000000  0.5290360000000  0.5482160000000 1.0
C      1  0.4514710000000  0.4705500000000  0.5221440000000 1.0
C      1  0.5133800000000  0.5714760000000  0.4449000000000 1.0
C      1  0.5543870000000  0.4320510000000  0.5146110000000 1.0
C      1  0.4856280000000  0.5696760000000  0.5529990000000 1.0
C      1  0.4465220000000  0.4296650000000  0.4855910000000 1.0
C      1  0.5890880000000  0.5288410000000  0.5546770000000 1.0
C      1  0.4465850000000  0.4712710000000  0.5889040000000 1.0
C      1  0.4101710000000  0.5284840000000  0.4463110000000 1.0
C      1  0.5533720000000  0.4716170000000  0.4094410000000 1.0
C      1  0.5154810000000  0.4052110000000  0.4996090000000 1.0
C      1  0.4988150000000  0.5959330000000  0.5139350000000 1.0
C      1  0.4863520000000  0.4049470000000  0.4996090000000 1.0
C      1  0.4986460000000  0.5965990000000  0.4849260000000 1.0
C      1  0.4933440000000  0.4548130000000  0.4879600000000 1.0
C      1  0.5125860000000  0.5456980000000  0.4920230000000 1.0
C      1  0.5074080000000  0.4544420000000  0.5109580000000 1.0
C      1  0.4895240000000  0.5453480000000  0.5058620000000 1.0
C      1  0.5565140000000  0.4318730000000  0.6183930000000 1.0
C      1  0.3818600000000  0.5677860000000  0.5569250000000 1.0
C      1  0.4417210000000  0.4317660000000  0.3816470000000 1.0
C      1  0.6164390000000  0.5610040000000  0.4461120000000 1.0
C      1  0.4447240000000  0.5394840000000  0.5292180000000 1.0
C      1  0.4695580000000  0.4605000000000  0.4436910000000 1.0
C      1  0.5536430000000  0.5440130000000  0.4658170000000 1.0
C      1  0.5302790000000  0.4595800000000  0.5563840000000 1.0
C      1  0.3939050000000  0.5180710000000  0.4252740000000 1.0
C      1  0.5756860000000  0.4816510000000  0.3946160000000 1.0
C      1  0.6049170000000  0.5192970000000  0.5764490000000 1.0
C      1  0.4252900000000  0.4815460000000  0.6049430000000 1.0
C      1  0.4747600000000  0.6012790000000  0.4698760000000 1.0
C      1  0.5301180000000  0.4002500000000  0.4755720000000 1.0
C      1  0.5224720000000  0.6011870000000  0.5292450000000 1.0
C      1  0.4713600000000  0.3996270000000  0.5234920000000 1.0
C      1  0.6056860000000  0.4926710000000  0.4586200000000 1.0
C      1  0.5420810000000  0.5021920000000  0.6057680000000 1.0
C      1  0.3950360000000  0.4979820000000  0.5424750000000 1.0
C      1  0.4560130000000  0.5018690000000  0.3940720000000 1.0
C      1  0.4234330000000  0.5959140000000  0.5563960000000 1.0
C      1  0.4426010000000  0.4037270000000  0.4233580000000 1.0
C      1  0.5777360000000  0.5939320000000  0.4430500000000 1.0
C      1  0.5566600000000  0.4038540000000  0.5764870000000 1.0
C      1  0.5551600000000  0.5887580000000  0.4267530000000 1.0
C      1  0.5728410000000  0.4110900000000  0.5544590000000 1.0
C      1  0.4456390000000  0.5889610000000  0.5724210000000 1.0
C      1  0.4267000000000  0.4106800000000  0.4456310000000 1.0
C      1  0.5709550000000  0.5524620000000  0.5624070000000 1.0
C      1  0.4381020000000  0.4476560000000  0.5715630000000 1.0
C      1  0.4272690000000  0.5521080000000  0.4375590000000 1.0
C      1  0.5606200000000  0.4472860000000  0.4263540000000 1.0
C      1  0.5461260000000  0.5257690000000  0.5321740000000 1.0
C      1  0.4675320000000  0.4739670000000  0.5455420000000 1.0
C      1  0.4542200000000  0.5261240000000  0.4664360000000 1.0
C      1  0.5322240000000  0.4757740000000  0.4525590000000 1.0
C      1  0.3997890000000  0.4838230000000  0.5163180000000 1.0
C      1  0.4822100000000  0.5162500000000  0.3981950000000 1.0
C      1  0.6000830000000  0.4763520000000  0.4846130000000 1.0
C      1  0.5158290000000  0.5161440000000  0.6005820000000 1.0
C      1  0.5732570000000  0.4787290000000  0.5533000000000 1.0
C      1  0.4479380000000  0.5214910000000  0.5725510000000 1.0
C      1  0.4264360000000  0.4782600000000  0.4475710000000 1.0
C      1  0.5515710000000  0.5224390000000  0.4240280000000 1.0
C      1  0.4465090000000  0.4465860000000  0.5081410000000 1.0
C      1  0.4912980000000  0.5538420000000  0.4451730000000 1.0
C      1  0.5537980000000  0.4523410000000  0.4946550000000 1.0
C      1  0.5082780000000  0.5528310000000  0.5528840000000 1.0
C      1  0.5123370000000  0.4374410000000  0.5452120000000 1.0
C      1  0.4550600000000  0.5620970000000  0.5114170000000 1.0
C      1  0.4878060000000  0.4382070000000  0.4539960000000 1.0
C      1  0.5431770000000  0.5650960000000  0.4867790000000 1.0
C      1  0.5022340000000  0.4999610000000  0.4995220000000 1.0
END
