TITL C-3623284-6838-2023 3.35689429918978e-07 125000 -601.397240157843 0 0 99 (D2) n - 1
REM
REM in /home/nfs/bkarasulu/CARBON/AIRSS/Generating-Clusters/LCBOP/Higher-Symm/SD-CG/FIRE-CG
REM
REM
REM
REM
REM
REM ./C.cell (b20cbc046b6831c77cfcea5457e17084)
REM AIRSS Version 0.9.1 bugfix July 2018 build 013d7b7c2542+ Fri, 06 Jul 2018 19:26:36 +0100
REM compiler GCC version 9.2.1 20190827 (Red Hat 9.2.1-1)
REM options -cpp -mtune=generic -march=x86-64 -g -O0 -fpre-include=/usr/include/finclude/math-vector-fortran.h
REM seed 1534992282 -2058508762 -136183579 -2116974553 1502753527 -562794694 1209407044 -613301813 -462635536 -221423056 -569863175 209934398 -307230893 -1630288558 -1404596996 -2004123495 -303338457 -314545384 575651163 912950978 -786527836 74060502 -2082477481 487958255 -1298036856 -614320192 907360702 -484962342 2104791744 -461791258 -111059526 -927031596 -1009727439
REM
CELL 1.54180   50.00000   50.00000   50.00000   90.00000   90.00000   90.00000
LATT -1
SFAC C  
C      1  0.4187780000000  0.4896050000000  0.5373130000000 1.0
C      1  0.5811910000000  0.4896010000000  0.4625400000000 1.0
C      1  0.4187880000000  0.5087100000000  0.4625420000000 1.0
C      1  0.5811820000000  0.5087050000000  0.5373120000000 1.0
C      1  0.5216150000000  0.5211670000000  0.4979580000000 1.0
C      1  0.4783560000000  0.5211680000000  0.5018960000000 1.0
C      1  0.5215790000000  0.4768690000000  0.5018890000000 1.0
C      1  0.4783890000000  0.4768700000000  0.4979640000000 1.0
C      1  0.4539180000000  0.4906260000000  0.4232860000000 1.0
C      1  0.5460510000000  0.4906230000000  0.5765670000000 1.0
C      1  0.4539040000000  0.5076790000000  0.5765610000000 1.0
C      1  0.5460650000000  0.5076770000000  0.4232930000000 1.0
C      1  0.4755780000000  0.4901770000000  0.5430280000000 1.0
C      1  0.5243910000000  0.4901760000000  0.4568250000000 1.0
C      1  0.4755740000000  0.5081650000000  0.4568110000000 1.0
C      1  0.5243960000000  0.5081640000000  0.5430420000000 1.0
C      1  0.5005310000000  0.4215480000000  0.5432270000000 1.0
C      1  0.4994340000000  0.4215480000000  0.4566260000000 1.0
C      1  0.5005400000000  0.5768070000000  0.4566400000000 1.0
C      1  0.4994340000000  0.5768060000000  0.5432130000000 1.0
C      1  0.5499590000000  0.4853060000000  0.5023530000000 1.0
C      1  0.4500090000000  0.4853090000000  0.4975010000000 1.0
C      1  0.5499650000000  0.5128770000000  0.4975000000000 1.0
C      1  0.4500050000000  0.5128800000000  0.5023530000000 1.0
C      1  0.4351550000000  0.4458670000000  0.5142240000000 1.0
C      1  0.5648110000000  0.4458640000000  0.4856290000000 1.0
C      1  0.4351770000000  0.5524300000000  0.4856520000000 1.0
C      1  0.5647950000000  0.5524260000000  0.5142020000000 1.0
C      1  0.5205770000000  0.4382610000000  0.4668540000000 1.0
C      1  0.4793890000000  0.4382620000000  0.5329990000000 1.0
C      1  0.5206080000000  0.5601460000000  0.5329730000000 1.0
C      1  0.4793650000000  0.5601470000000  0.4668810000000 1.0
C      1  0.4338150000000  0.5354330000000  0.5091320000000 1.0
C      1  0.5661560000000  0.5354300000000  0.4907210000000 1.0
C      1  0.4337390000000  0.4628130000000  0.4906960000000 1.0
C      1  0.5662280000000  0.4628100000000  0.5091570000000 1.0
C      1  0.5250240000000  0.4577120000000  0.5545250000000 1.0
C      1  0.4749430000000  0.4577140000000  0.4453280000000 1.0
C      1  0.5250580000000  0.5406680000000  0.4452370000000 1.0
C      1  0.4749140000000  0.5406690000000  0.5546160000000 1.0
C      1  0.5663970000000  0.5396860000000  0.4620910000000 1.0
C      1  0.4335750000000  0.5396890000000  0.5377620000000 1.0
C      1  0.5664160000000  0.4586020000000  0.5377880000000 1.0
C      1  0.4335510000000  0.4586060000000  0.4620660000000 1.0
C      1  0.5272860000000  0.5862330000000  0.4941010000000 1.0
C      1  0.4726880000000  0.5862340000000  0.5057530000000 1.0
C      1  0.5272670000000  0.4121290000000  0.5057380000000 1.0
C      1  0.4726970000000  0.4121300000000  0.4941140000000 1.0
C      1  0.5407020000000  0.4281060000000  0.4848760000000 1.0
C      1  0.4592630000000  0.4281080000000  0.5149770000000 1.0
C      1  0.5407390000000  0.5702610000000  0.5149490000000 1.0
C      1  0.4592340000000  0.5702630000000  0.4849040000000 1.0
C      1  0.5679290000000  0.4854940000000  0.5537690000000 1.0
C      1  0.4320400000000  0.4854980000000  0.4460840000000 1.0
C      1  0.5679310000000  0.5128110000000  0.4460880000000 1.0
C      1  0.4320390000000  0.5128140000000  0.5537650000000 1.0
C      1  0.4031510000000  0.4970340000000  0.5134810000000 1.0
C      1  0.5968180000000  0.4970290000000  0.4863730000000 1.0
C      1  0.4031550000000  0.5012820000000  0.4863710000000 1.0
C      1  0.5968150000000  0.5012760000000  0.5134820000000 1.0
C      1  0.4852100000000  0.4669950000000  0.5274340000000 1.0
C      1  0.5147580000000  0.4669940000000  0.4724190000000 1.0
C      1  0.4851240000000  0.5314180000000  0.4724110000000 1.0
C      1  0.5148470000000  0.5314170000000  0.5274430000000 1.0
C      1  0.4248340000000  0.5379970000000  0.4615630000000 1.0
C      1  0.5751370000000  0.5379920000000  0.5382910000000 1.0
C      1  0.4248180000000  0.4603210000000  0.5383010000000 1.0
C      1  0.5751490000000  0.4603170000000  0.4615520000000 1.0
C      1  0.5453660000000  0.5588390000000  0.4540820000000 1.0
C      1  0.4546070000000  0.5588420000000  0.5457710000000 1.0
C      1  0.5453300000000  0.4395090000000  0.5457560000000 1.0
C      1  0.4546360000000  0.4395110000000  0.4540970000000 1.0
C      1  0.4197620000000  0.4462790000000  0.5614390000000 1.0
C      1  0.5802040000000  0.4462750000000  0.4384140000000 1.0
C      1  0.4197790000000  0.5520510000000  0.4384330000000 1.0
C      1  0.5801940000000  0.5520460000000  0.5614200000000 1.0
C      1  0.4968360000000  0.4839800000000  0.5854560000000 1.0
C      1  0.5031320000000  0.4839810000000  0.4143970000000 1.0
C      1  0.4968520000000  0.5143220000000  0.4143800000000 1.0
C      1  0.5031180000000  0.5143210000000  0.5854730000000 1.0
C      1  0.4764340000000  0.4705660000000  0.4200890000000 1.0
C      1  0.5235330000000  0.4705640000000  0.5797640000000 1.0
C      1  0.4764130000000  0.5277410000000  0.5798110000000 1.0
C      1  0.5235580000000  0.5277410000000  0.4200420000000 1.0
C      1  0.4845070000000  0.4728290000000  0.4686100000000 1.0
C      1  0.5154610000000  0.4728280000000  0.5312430000000 1.0
C      1  0.4844090000000  0.5255600000000  0.5312740000000 1.0
C      1  0.5155620000000  0.5255600000000  0.4685800000000 1.0
C      1  0.5286400000000  0.5791290000000  0.4662930000000 1.0
C      1  0.4713340000000  0.5791300000000  0.5335610000000 1.0
C      1  0.5286180000000  0.4192150000000  0.5335530000000 1.0
C      1  0.4713470000000  0.4192160000000  0.4663000000000 1.0
C      1  0.4711180000000  0.4847140000000  0.5701950000000 1.0
C      1  0.5288510000000  0.4847130000000  0.4296590000000 1.0
C      1  0.4711250000000  0.5136040000000  0.4296340000000 1.0
C      1  0.5288460000000  0.5136020000000  0.5702190000000 1.0
C      1  0.4999820000000  0.4018580000000  0.4999260000000 1.0
C      1  0.4999870000000  0.5964850000000  0.4999270000000 1.0
C      1  0.4999850000000  0.4996540000000  0.4999270000000 1.0
END
