TITL C-3623286-7563-1373 -20797.2211884186 125000 -158.70541462573 0 0 28 (C1) n - 1
REM
REM in /home/nfs/bkarasulu/CARBON/AIRSS/Generating-Clusters/LCBOP/Higher-Symm/SD-CG/FIRE-CG
REM
REM
REM
REM
REM
REM ./C.cell (b20cbc046b6831c77cfcea5457e17084)
REM AIRSS Version 0.9.1 bugfix July 2018 build 013d7b7c2542+ Fri, 06 Jul 2018 19:26:36 +0100
REM compiler GCC version 9.2.1 20190827 (Red Hat 9.2.1-1)
REM options -cpp -mtune=generic -march=x86-64 -g -O0 -fpre-include=/usr/include/finclude/math-vector-fortran.h
REM seed -1949402279 -794208203 -1727925503 1221861338 -1876128886 1177105469 -1988056550 557248333 732173027 800878285 1216802224 -1564882994 1092159524 420647042 -46949025 -313726747 -958837460 -1374422060 -1242594110 -719324353 -932936634 -269411163 1790865424 -2079398464 -1357578989 -1901804508 -1287545144 -1937612527 1816538556 880926836 -665905750 1262878395 591086457
REM
CELL 1.54180   50.00000   50.00000   50.00000   90.00000   90.00000   90.00000
LATT -1
SFAC C  
C      1  0.5075360000000  0.4564090000000  0.5028190000000 1.0
C      1  0.4857680000000  0.4545730000000  0.4847770000000 1.0
C      1  0.5014700000000  0.4555560000000  0.5305620000000 1.0
C      1  0.5140410000000  0.5382000000000  0.5032100000000 1.0
C      1  0.4788540000000  0.5401360000000  0.4947000000000 1.0
C      1  0.4873540000000  0.5417450000000  0.5292210000000 1.0
C      1  0.5090930000000  0.5187420000000  0.5668420000000 1.0
C      1  0.5353800000000  0.5100540000000  0.4679950000000 1.0
C      1  0.4663420000000  0.5147570000000  0.4527780000000 1.0
C      1  0.5194090000000  0.4930110000000  0.5580020000000 1.0
C      1  0.5347350000000  0.4810830000000  0.4675840000000 1.0
C      1  0.4673590000000  0.4859440000000  0.4493760000000 1.0
C      1  0.4678390000000  0.4724890000000  0.4257930000000 1.0
C      1  0.5408210000000  0.4936480000000  0.5395780000000 1.0
C      1  0.5383950000000  0.4650800000000  0.4459560000000 1.0
C      1  0.4660450000000  0.5332550000000  0.4328900000000 1.0
C      1  0.5182150000000  0.5346850000000  0.5867130000000 1.0
C      1  0.5388290000000  0.5263880000000  0.4465640000000 1.0
C      1  0.5299870000000  0.4721740000000  0.4948580000000 1.0
C      1  0.4676390000000  0.4739990000000  0.4757710000000 1.0
C      1  0.4967510000000  0.4767860000000  0.5484600000000 1.0
C      1  0.5317800000000  0.5187020000000  0.4955390000000 1.0
C      1  0.4655830000000  0.5203830000000  0.4811600000000 1.0
C      1  0.4862900000000  0.5228600000000  0.5492050000000 1.0
C      1  0.4601450000000  0.4950650000000  0.4944510000000 1.0
C      1  0.4756700000000  0.4963530000000  0.5430250000000 1.0
C      1  0.5374050000000  0.4951090000000  0.5118390000000 1.0
C      1  0.4576290000000  0.4926160000000  0.5220510000000 1.0
END
