TITL C-3623283-6828-117 5.65327782823757e-07 125000 -336.106017836279 0 0 60 (D5) n - 1
REM
REM in /home/nfs/bkarasulu/CARBON/AIRSS/Generating-Clusters/LCBOP/Higher-Symm/SD-CG/FIRE-CG
REM
REM
REM
REM
REM
REM ./C.cell (b20cbc046b6831c77cfcea5457e17084)
REM AIRSS Version 0.9.1 bugfix July 2018 build 013d7b7c2542+ Fri, 06 Jul 2018 19:26:36 +0100
REM compiler GCC version 9.2.1 20190827 (Red Hat 9.2.1-1)
REM options -cpp -mtune=generic -march=x86-64 -g -O0 -fpre-include=/usr/include/finclude/math-vector-fortran.h
REM seed -1078115231 -770419815 -496551019 1889750095 1648895035 -2044338338 1680080231 580169517 -1448410580 -733134296 1731787961 1772276447 -1197463764 975482858 2075269216 1055187418 -959531931 -481260426 440141065 -1256130411 -1885946966 1385709630 1984229736 1061357488 -1167867345 560935514 1822863057 1077451847 -437819206 1292893834 1895439594 760772715 -281320235
REM
CELL 1.54180   50.00000   50.00000   50.00000   90.00000   90.00000   90.00000
LATT -1
SFAC C  
C      1  0.5849960000000  0.5215110000000  0.5124990000000 1.0
C      1  0.5849960000000  0.5185350000000  0.4834070000000 1.0
C      1  0.5849970000000  0.4899480000000  0.4772470000000 1.0
C      1  0.5849970000000  0.4752550000000  0.5025320000000 1.0
C      1  0.5849960000000  0.4947620000000  0.5243180000000 1.0
C      1  0.4150030000000  0.5215070000000  0.4875030000000 1.0
C      1  0.4150030000000  0.5185290000000  0.5165940000000 1.0
C      1  0.4150040000000  0.4899420000000  0.5227520000000 1.0
C      1  0.4150040000000  0.4752510000000  0.4974670000000 1.0
C      1  0.4150040000000  0.4947590000000  0.4756810000000 1.0
C      1  0.5338470000000  0.5199250000000  0.4815090000000 1.0
C      1  0.5338480000000  0.4885710000000  0.4753370000000 1.0
C      1  0.5338490000000  0.4730130000000  0.5032490000000 1.0
C      1  0.5338480000000  0.4947510000000  0.5266710000000 1.0
C      1  0.5338470000000  0.5237440000000  0.5132350000000 1.0
C      1  0.4661510000000  0.5199220000000  0.5184930000000 1.0
C      1  0.4661520000000  0.4885680000000  0.5246620000000 1.0
C      1  0.4661530000000  0.4730110000000  0.4967490000000 1.0
C      1  0.4661520000000  0.4947510000000  0.4733280000000 1.0
C      1  0.4661520000000  0.5237430000000  0.4867670000000 1.0
C      1  0.4810940000000  0.5431360000000  0.5596140000000 1.0
C      1  0.4810930000000  0.5700250000000  0.4773960000000 1.0
C      1  0.4810960000000  0.5001410000000  0.4264160000000 1.0
C      1  0.4810970000000  0.4300610000000  0.4771260000000 1.0
C      1  0.4810960000000  0.4566330000000  0.5594470000000 1.0
C      1  0.5189040000000  0.5431410000000  0.4403890000000 1.0
C      1  0.5189030000000  0.5700250000000  0.5226080000000 1.0
C      1  0.5189040000000  0.5001370000000  0.5735840000000 1.0
C      1  0.5189070000000  0.4300610000000  0.5228690000000 1.0
C      1  0.5189060000000  0.4566380000000  0.4405500000000 1.0
C      1  0.5615010000000  0.4832200000000  0.4620700000000 1.0
C      1  0.5615010000000  0.4587420000000  0.5042390000000 1.0
C      1  0.5615000000000  0.4912830000000  0.5405500000000 1.0
C      1  0.5614990000000  0.5358730000000  0.5208230000000 1.0
C      1  0.5615000000000  0.5308900000000  0.4723190000000 1.0
C      1  0.4385000000000  0.4832140000000  0.5379290000000 1.0
C      1  0.4385010000000  0.4587390000000  0.4957580000000 1.0
C      1  0.4385000000000  0.4912830000000  0.4594490000000 1.0
C      1  0.4384990000000  0.5358710000000  0.4791800000000 1.0
C      1  0.4384990000000  0.5308840000000  0.5276830000000 1.0
C      1  0.4875040000000  0.5425960000000  0.4772530000000 1.0
C      1  0.4875050000000  0.4915290000000  0.4524590000000 1.0
C      1  0.4875060000000  0.4521680000000  0.4933650000000 1.0
C      1  0.4875050000000  0.4789090000000  0.5434400000000 1.0
C      1  0.4875040000000  0.5347960000000  0.5334820000000 1.0
C      1  0.5124940000000  0.5425950000000  0.5227490000000 1.0
C      1  0.5124950000000  0.4915270000000  0.5475400000000 1.0
C      1  0.5124960000000  0.4521690000000  0.5066320000000 1.0
C      1  0.5124960000000  0.4789120000000  0.4565590000000 1.0
C      1  0.5124940000000  0.5347990000000  0.4665200000000 1.0
C      1  0.5256500000000  0.4088760000000  0.5364680000000 1.0
C      1  0.5256470000000  0.5065250000000  0.5979340000000 1.0
C      1  0.5256450000000  0.5951570000000  0.5240590000000 1.0
C      1  0.5256470000000  0.5522870000000  0.4169350000000 1.0
C      1  0.5256500000000  0.4371590000000  0.4246040000000 1.0
C      1  0.4743550000000  0.4088770000000  0.4635260000000 1.0
C      1  0.4743530000000  0.5065300000000  0.4020660000000 1.0
C      1  0.4743500000000  0.5951580000000  0.4759470000000 1.0
C      1  0.4743510000000  0.5522800000000  0.5830680000000 1.0
C      1  0.4743540000000  0.4371520000000  0.5753910000000 1.0
END
