TITL C-3623285-6872-606 -3926.24178385231 125000 -890.52442315949 0 0 145 (C1) n - 1
REM
REM in /home/nfs/bkarasulu/CARBON/AIRSS/Generating-Clusters/LCBOP/Higher-Symm/SD-CG/FIRE-CG
REM
REM
REM
REM
REM
REM ./C.cell (b20cbc046b6831c77cfcea5457e17084)
REM AIRSS Version 0.9.1 bugfix July 2018 build 013d7b7c2542+ Fri, 06 Jul 2018 19:26:36 +0100
REM compiler GCC version 9.2.1 20190827 (Red Hat 9.2.1-1)
REM options -cpp -mtune=generic -march=x86-64 -g -O0 -fpre-include=/usr/include/finclude/math-vector-fortran.h
REM seed -2051824804 -827766168 -224430374 1789550820 -1385725197 -1268140467 1763340916 -103386217 -1532323929 -1280260742 2127919143 -404221190 1226445896 683726628 -1408690062 1372676019 1422196922 -549077534 -787309381 2131754473 668443607 -123056894 -1274711434 -1067952420 1473376958 -913457450 -1152939526 -1804668768 2083213740 -1092614715 -1184419731 -506723643 -1218325853
REM
CELL 1.54180   50.00000   50.00000   50.00000   90.00000   90.00000   90.00000
LATT -1
SFAC C  
C      1  0.5701870000000  0.4671410000000  0.5667530000000 1.0
C      1  0.5280360000000  0.5660640000000  0.4347720000000 1.0
C      1  0.4331190000000  0.5221710000000  0.5791600000000 1.0
C      1  0.4782310000000  0.4334420000000  0.4344600000000 1.0
C      1  0.5103440000000  0.4895010000000  0.4189340000000 1.0
C      1  0.5239310000000  0.5024430000000  0.5946420000000 1.0
C      1  0.4955210000000  0.5135720000000  0.4136720000000 1.0
C      1  0.4987550000000  0.4935990000000  0.5830400000000 1.0
C      1  0.4357620000000  0.5911190000000  0.5239610000000 1.0
C      1  0.4088740000000  0.4509850000000  0.4520850000000 1.0
C      1  0.5382210000000  0.3914690000000  0.5366730000000 1.0
C      1  0.5974650000000  0.5508480000000  0.4811640000000 1.0
C      1  0.4895450000000  0.6156970000000  0.5321240000000 1.0
C      1  0.3941440000000  0.4721000000000  0.4403760000000 1.0
C      1  0.5100600000000  0.3954930000000  0.5417930000000 1.0
C      1  0.6018710000000  0.5236200000000  0.4722810000000 1.0
C      1  0.4756340000000  0.5391250000000  0.5861510000000 1.0
C      1  0.4658330000000  0.4700590000000  0.4057590000000 1.0
C      1  0.5355570000000  0.4553580000000  0.5961270000000 1.0
C      1  0.5422690000000  0.5277110000000  0.4106190000000 1.0
C      1  0.5423140000000  0.5411580000000  0.4371350000000 1.0
C      1  0.4516730000000  0.5415840000000  0.5690500000000 1.0
C      1  0.4582460000000  0.4569300000000  0.4331380000000 1.0
C      1  0.5436820000000  0.4551470000000  0.5680870000000 1.0
C      1  0.4887740000000  0.5068060000000  0.4809780000000 1.0
C      1  0.4796060000000  0.5134270000000  0.5264590000000 1.0
C      1  0.4860870000000  0.4817030000000  0.4675900000000 1.0
C      1  0.5235490000000  0.4940370000000  0.5111610000000 1.0
C      1  0.5015330000000  0.4052500000000  0.5671720000000 1.0
C      1  0.5931660000000  0.5147530000000  0.4470010000000 1.0
C      1  0.4785100000000  0.5969480000000  0.5501440000000 1.0
C      1  0.4020950000000  0.4903270000000  0.4220670000000 1.0
C      1  0.4583850000000  0.5539620000000  0.5445690000000 1.0
C      1  0.4626220000000  0.4813460000000  0.4505330000000 1.0
C      1  0.5216820000000  0.4598720000000  0.5506780000000 1.0
C      1  0.5371110000000  0.5197510000000  0.4556520000000 1.0
C      1  0.4859320000000  0.5850710000000  0.3770150000000 1.0
C      1  0.4542920000000  0.4515300000000  0.6009610000000 1.0
C      1  0.5256180000000  0.4198170000000  0.3798490000000 1.0
C      1  0.5998370000000  0.5052780000000  0.6231040000000 1.0
C      1  0.4780700000000  0.5810940000000  0.4724040000000 1.0
C      1  0.4119760000000  0.4864950000000  0.5356350000000 1.0
C      1  0.5192560000000  0.4154320000000  0.4724330000000 1.0
C      1  0.5925130000000  0.5196060000000  0.5279790000000 1.0
C      1  0.4960540000000  0.4669550000000  0.4072950000000 1.0
C      1  0.5434440000000  0.4829600000000  0.6027400000000 1.0
C      1  0.5133110000000  0.5337850000000  0.4033320000000 1.0
C      1  0.4763540000000  0.5097380000000  0.5908630000000 1.0
C      1  0.6136600000000  0.5034590000000  0.4883820000000 1.0
C      1  0.5043710000000  0.6221680000000  0.5108950000000 1.0
C      1  0.3286780000000  0.5426650000000  0.5870150000000 1.0
C      1  0.4916560000000  0.3905850000000  0.5206930000000 1.0
C      1  0.5387130000000  0.5364550000000  0.5607850000000 1.0
C      1  0.4632870000000  0.5316360000000  0.4470610000000 1.0
C      1  0.4719870000000  0.4705660000000  0.5460580000000 1.0
C      1  0.5311720000000  0.4710380000000  0.4584550000000 1.0
C      1  0.5480430000000  0.5050450000000  0.5028610000000 1.0
C      1  0.4968610000000  0.5549710000000  0.5103830000000 1.0
C      1  0.4329000000000  0.4954560000000  0.4929050000000 1.0
C      1  0.5022260000000  0.4412310000000  0.5097740000000 1.0
C      1  0.5503410000000  0.3683610000000  0.5450200000000 1.0
C      1  0.6185050000000  0.5684820000000  0.4798800000000 1.0
C      1  0.4556300000000  0.5820830000000  0.5414260000000 1.0
C      1  0.4316550000000  0.4448140000000  0.4367300000000 1.0
C      1  0.6050640000000  0.4680110000000  0.5257480000000 1.0
C      1  0.5282080000000  0.6063980000000  0.4706460000000 1.0
C      1  0.3802200000000  0.5327500000000  0.5839930000000 1.0
C      1  0.4717180000000  0.3977220000000  0.4749110000000 1.0
C      1  0.4999000000000  0.4394810000000  0.4159670000000 1.0
C      1  0.5706020000000  0.4851870000000  0.5902430000000 1.0
C      1  0.5096640000000  0.5616410000000  0.4122310000000 1.0
C      1  0.4486650000000  0.5000450000000  0.5908880000000 1.0
C      1  0.4348090000000  0.4935400000000  0.5209190000000 1.0
C      1  0.5055750000000  0.4379460000000  0.4823100000000 1.0
C      1  0.5658780000000  0.5114290000000  0.5241760000000 1.0
C      1  0.4857350000000  0.5569420000000  0.4841570000000 1.0
C      1  0.4265430000000  0.5319330000000  0.4151820000000 1.0
C      1  0.4712300000000  0.4313290000000  0.5966840000000 1.0
C      1  0.5767140000000  0.4691670000000  0.4439760000000 1.0
C      1  0.5229710000000  0.5816060000000  0.5590100000000 1.0
C      1  0.5621050000000  0.5068960000000  0.4104140000000 1.0
C      1  0.4891270000000  0.5638850000000  0.5877480000000 1.0
C      1  0.4451800000000  0.4883100000000  0.3975940000000 1.0
C      1  0.5183370000000  0.4346320000000  0.6031250000000 1.0
C      1  0.5781960000000  0.4958530000000  0.4320340000000 1.0
C      1  0.4965740000000  0.5841540000000  0.5689180000000 1.0
C      1  0.4239640000000  0.5036960000000  0.4098140000000 1.0
C      1  0.4967880000000  0.4216200000000  0.5899330000000 1.0
C      1  0.5604570000000  0.4491930000000  0.4900480000000 1.0
C      1  0.5256670000000  0.5570780000000  0.5161120000000 1.0
C      1  0.4231740000000  0.5582600000000  0.4574000000000 1.0
C      1  0.4406440000000  0.4362980000000  0.5212900000000 1.0
C      1  0.4727490000000  0.5945440000000  0.4500030000000 1.0
C      1  0.4031170000000  0.4746500000000  0.5578860000000 1.0
C      1  0.5314600000000  0.4031920000000  0.4521470000000 1.0
C      1  0.6071250000000  0.5221030000000  0.5504500000000 1.0
C      1  0.6138060000000  0.4821360000000  0.5046780000000 1.0
C      1  0.5234870000000  0.6256900000000  0.4905630000000 1.0
C      1  0.3542500000000  0.5378090000000  0.5855560000000 1.0
C      1  0.4729490000000  0.3847990000000  0.5001600000000 1.0
C      1  0.5490570000000  0.4377930000000  0.5139230000000 1.0
C      1  0.5458150000000  0.5509410000000  0.4952580000000 1.0
C      1  0.4180190000000  0.5739430000000  0.4782720000000 1.0
C      1  0.4226530000000  0.4358500000000  0.5013460000000 1.0
C      1  0.5524650000000  0.6713120000000  0.4898070000000 1.0
C      1  0.4133270000000  0.5684580000000  0.3777050000000 1.0
C      1  0.4358340000000  0.3467800000000  0.5103670000000 1.0
C      1  0.6095670000000  0.4299490000000  0.4266530000000 1.0
C      1  0.4093010000000  0.4419780000000  0.4788340000000 1.0
C      1  0.5533000000000  0.4113190000000  0.5230250000000 1.0
C      1  0.5723280000000  0.5603820000000  0.4911500000000 1.0
C      1  0.4224580000000  0.5865600000000  0.5013040000000 1.0
C      1  0.5194990000000  0.4216350000000  0.4063790000000 1.0
C      1  0.5922280000000  0.5020610000000  0.5970540000000 1.0
C      1  0.4905170000000  0.5803980000000  0.4034990000000 1.0
C      1  0.4385790000000  0.4736720000000  0.5938200000000 1.0
C      1  0.5435440000000  0.5247290000000  0.4829320000000 1.0
C      1  0.4786540000000  0.5415000000000  0.5287510000000 1.0
C      1  0.4399240000000  0.4895930000000  0.4677590000000 1.0
C      1  0.5244670000000  0.4483620000000  0.5251630000000 1.0
C      1  0.5899370000000  0.4634440000000  0.5473850000000 1.0
C      1  0.5307010000000  0.5883980000000  0.4511240000000 1.0
C      1  0.4059480000000  0.5268300000000  0.5818450000000 1.0
C      1  0.4731650000000  0.4119380000000  0.4521210000000 1.0
C      1  0.4134560000000  0.4687060000000  0.5818930000000 1.0
C      1  0.5323550000000  0.4056790000000  0.4255710000000 1.0
C      1  0.6058520000000  0.5154370000000  0.5763300000000 1.0
C      1  0.4763880000000  0.5940640000000  0.4235770000000 1.0
C      1  0.4189980000000  0.5503830000000  0.3955990000000 1.0
C      1  0.4539540000000  0.3648170000000  0.5053170000000 1.0
C      1  0.5942720000000  0.4493890000000  0.4348520000000 1.0
C      1  0.5384600000000  0.6493360000000  0.4901610000000 1.0
C      1  0.4724750000000  0.5120370000000  0.4300710000000 1.0
C      1  0.4974630000000  0.4739530000000  0.5605070000000 1.0
C      1  0.5278590000000  0.4941900000000  0.4426400000000 1.0
C      1  0.5313970000000  0.5288770000000  0.5869960000000 1.0
C      1  0.5514990000000  0.5159110000000  0.5475190000000 1.0
C      1  0.4786940000000  0.5324240000000  0.4711980000000 1.0
C      1  0.4605920000000  0.4940970000000  0.5337990000000 1.0
C      1  0.5064330000000  0.4621310000000  0.4683470000000 1.0
C      1  0.5574060000000  0.4623320000000  0.4646200000000 1.0
C      1  0.5321680000000  0.5591980000000  0.5446570000000 1.0
C      1  0.4374690000000  0.5414920000000  0.4402010000000 1.0
C      1  0.4587400000000  0.4467100000000  0.5383140000000 1.0
C      1  0.4979880000000  0.5042100000000  0.5073490000000 1.0
END
