TITL C-3623288-6813-1747 -1094205.04894319 125000 -1122.63978710166 0 0 188 (C1) n - 1
REM
REM in /home/nfs/bkarasulu/CARBON/AIRSS/Generating-Clusters/LCBOP/Higher-Symm/SD-CG/FIRE-CG
REM
REM
REM
REM
REM
REM ./C.cell (b20cbc046b6831c77cfcea5457e17084)
REM AIRSS Version 0.9.1 bugfix July 2018 build 013d7b7c2542+ Fri, 06 Jul 2018 19:26:36 +0100
REM compiler GCC version 9.2.1 20190827 (Red Hat 9.2.1-1)
REM options -cpp -mtune=generic -march=x86-64 -g -O0 -fpre-include=/usr/include/finclude/math-vector-fortran.h
REM seed 603032889 -1924705051 -1262420414 -642091232 1251605645 564483831 186284517 1837653288 398748484 1654622713 -767387519 916376871 -1254179742 -909252727 -591672280 1768654468 -1899383624 -1230900544 1174205064 -1284430447 1066969897 210986778 486143170 -205154093 1903953459 1711343022 1221663598 -602544049 -1425810255 463095324 -633056880 -84383496 195678783
REM
CELL 1.54180   50.00000   50.00000   50.00000   90.00000   90.00000   90.00000
LATT -1
SFAC C  
C      1  0.4441650000000  0.4582260000000  0.5162380000000 1.0
C      1  0.4592900000000  0.5154660000000  0.4397260000000 1.0
C      1  0.5139220000000  0.4455570000000  0.4580930000000 1.0
C      1  0.4456020000000  0.5391390000000  0.4780780000000 1.0
C      1  0.5578290000000  0.4590660000000  0.4845320000000 1.0
C      1  0.5537350000000  0.5424070000000  0.5152320000000 1.0
C      1  0.4569830000000  0.4866200000000  0.5536450000000 1.0
C      1  0.5422080000000  0.5147400000000  0.5545370000000 1.0
C      1  0.5418560000000  0.4854380000000  0.4465450000000 1.0
C      1  0.5142480000000  0.5546150000000  0.5420740000000 1.0
C      1  0.4852830000000  0.4459430000000  0.5424610000000 1.0
C      1  0.4836380000000  0.5539580000000  0.4570610000000 1.0
C      1  0.5535890000000  0.4584660000000  0.5140720000000 1.0
C      1  0.5384370000000  0.5146790000000  0.4411320000000 1.0
C      1  0.4845110000000  0.4414720000000  0.4584920000000 1.0
C      1  0.5581190000000  0.5408300000000  0.4853560000000 1.0
C      1  0.4455970000000  0.4576130000000  0.4840150000000 1.0
C      1  0.4464130000000  0.5390520000000  0.5219930000000 1.0
C      1  0.5389840000000  0.4855950000000  0.5585610000000 1.0
C      1  0.4616730000000  0.5152480000000  0.5601310000000 1.0
C      1  0.4575250000000  0.4864970000000  0.4461070000000 1.0
C      1  0.4839330000000  0.5576180000000  0.5411410000000 1.0
C      1  0.5150170000000  0.4427500000000  0.5408420000000 1.0
C      1  0.5161400000000  0.5562830000000  0.4596520000000 1.0
C      1  0.4795480000000  0.5993700000000  0.5603930000000 1.0
C      1  0.5992180000000  0.5598740000000  0.4790340000000 1.0
C      1  0.5600670000000  0.4792970000000  0.5990170000000 1.0
C      1  0.4791370000000  0.4005020000000  0.4394160000000 1.0
C      1  0.5208300000000  0.5982320000000  0.4405330000000 1.0
C      1  0.5203770000000  0.4014080000000  0.5599100000000 1.0
C      1  0.5969900000000  0.4408250000000  0.5198020000000 1.0
C      1  0.4037290000000  0.5584990000000  0.5200970000000 1.0
C      1  0.4023770000000  0.4405870000000  0.4798050000000 1.0
C      1  0.5602090000000  0.5209960000000  0.4006400000000 1.0
C      1  0.4408370000000  0.4803450000000  0.4021900000000 1.0
C      1  0.4399950000000  0.5210590000000  0.6008260000000 1.0
C      1  0.5203330000000  0.5979530000000  0.5595490000000 1.0
C      1  0.4030870000000  0.5586580000000  0.4793880000000 1.0
C      1  0.4411250000000  0.4803560000000  0.5978370000000 1.0
C      1  0.5199270000000  0.4023910000000  0.4404770000000 1.0
C      1  0.4798630000000  0.5977700000000  0.4404660000000 1.0
C      1  0.4795760000000  0.4025310000000  0.5593900000000 1.0
C      1  0.4018380000000  0.4403560000000  0.5205980000000 1.0
C      1  0.5973560000000  0.5592610000000  0.5197340000000 1.0
C      1  0.5988700000000  0.4398040000000  0.4790060000000 1.0
C      1  0.4394470000000  0.5211300000000  0.3986560000000 1.0
C      1  0.5590060000000  0.4803010000000  0.4026690000000 1.0
C      1  0.5594800000000  0.5201010000000  0.5978210000000 1.0
C      1  0.4424210000000  0.5114790000000  0.5140210000000 1.0
C      1  0.5139250000000  0.5245160000000  0.4456850000000 1.0
C      1  0.5249380000000  0.4470920000000  0.5137550000000 1.0
C      1  0.4465860000000  0.4857080000000  0.4737960000000 1.0
C      1  0.5602600000000  0.5121150000000  0.4809540000000 1.0
C      1  0.5545720000000  0.4875880000000  0.5209340000000 1.0
C      1  0.5117620000000  0.4787220000000  0.5566040000000 1.0
C      1  0.4874940000000  0.5226400000000  0.5572800000000 1.0
C      1  0.4872230000000  0.4791030000000  0.4450990000000 1.0
C      1  0.5214600000000  0.5553430000000  0.4879920000000 1.0
C      1  0.4742190000000  0.4454670000000  0.4849370000000 1.0
C      1  0.4725600000000  0.5505970000000  0.5144120000000 1.0
C      1  0.5529040000000  0.5143020000000  0.5261710000000 1.0
C      1  0.4852090000000  0.5258380000000  0.4443730000000 1.0
C      1  0.4747310000000  0.4456840000000  0.5146480000000 1.0
C      1  0.5541880000000  0.4856560000000  0.4736380000000 1.0
C      1  0.4422080000000  0.5111840000000  0.4857070000000 1.0
C      1  0.4456940000000  0.4861240000000  0.5261920000000 1.0
C      1  0.4853440000000  0.4750380000000  0.5538050000000 1.0
C      1  0.5141410000000  0.5256670000000  0.5545340000000 1.0
C      1  0.5135110000000  0.4746770000000  0.4476330000000 1.0
C      1  0.4719980000000  0.5504130000000  0.4851710000000 1.0
C      1  0.5205510000000  0.4442480000000  0.4873340000000 1.0
C      1  0.5245990000000  0.5538880000000  0.5139830000000 1.0
C      1  0.5305400000000  0.5699660000000  0.5651260000000 1.0
C      1  0.5696060000000  0.5651180000000  0.5308400000000 1.0
C      1  0.5650540000000  0.5306820000000  0.5699270000000 1.0
C      1  0.5303480000000  0.4304430000000  0.4352880000000 1.0
C      1  0.4690470000000  0.5703080000000  0.4336520000000 1.0
C      1  0.4693380000000  0.4304680000000  0.5653780000000 1.0
C      1  0.5703080000000  0.4353170000000  0.4694810000000 1.0
C      1  0.4299040000000  0.5637310000000  0.4663170000000 1.0
C      1  0.4296790000000  0.4350250000000  0.5311800000000 1.0
C      1  0.5645600000000  0.4694790000000  0.4304160000000 1.0
C      1  0.4346980000000  0.5307970000000  0.4270460000000 1.0
C      1  0.4349580000000  0.4699330000000  0.5699880000000 1.0
C      1  0.4696560000000  0.5712430000000  0.5657190000000 1.0
C      1  0.4304710000000  0.5636320000000  0.5335340000000 1.0
C      1  0.4362410000000  0.5308730000000  0.5722580000000 1.0
C      1  0.4695270000000  0.4291130000000  0.4348670000000 1.0
C      1  0.5310990000000  0.5702160000000  0.4358080000000 1.0
C      1  0.5301400000000  0.4297960000000  0.5644570000000 1.0
C      1  0.4299790000000  0.4347820000000  0.4688650000000 1.0
C      1  0.5706410000000  0.5641240000000  0.4696860000000 1.0
C      1  0.5690390000000  0.4356850000000  0.5304220000000 1.0
C      1  0.4354320000000  0.4695960000000  0.4301010000000 1.0
C      1  0.5641840000000  0.5302120000000  0.4295480000000 1.0
C      1  0.5634600000000  0.4698740000000  0.5703100000000 1.0
C      1  0.3959130000000  0.4851650000000  0.5355940000000 1.0
C      1  0.4853010000000  0.5356760000000  0.3945680000000 1.0
C      1  0.5348200000000  0.3961890000000  0.4852700000000 1.0
C      1  0.3964630000000  0.5144660000000  0.4640190000000 1.0
C      1  0.6047740000000  0.4850480000000  0.4643380000000 1.0
C      1  0.6037780000000  0.5147220000000  0.5348410000000 1.0
C      1  0.4855600000000  0.4650120000000  0.6045430000000 1.0
C      1  0.5148820000000  0.5351900000000  0.6046060000000 1.0
C      1  0.5145860000000  0.4653480000000  0.3963130000000 1.0
C      1  0.5352140000000  0.6040660000000  0.5148040000000 1.0
C      1  0.4647850000000  0.3960890000000  0.5144920000000 1.0
C      1  0.4651510000000  0.6022480000000  0.4855100000000 1.0
C      1  0.6030360000000  0.4853830000000  0.5346600000000 1.0
C      1  0.5148090000000  0.5355360000000  0.3956750000000 1.0
C      1  0.4646520000000  0.3955330000000  0.4850200000000 1.0
C      1  0.6047120000000  0.5146030000000  0.4643550000000 1.0
C      1  0.3961980000000  0.4851280000000  0.4645830000000 1.0
C      1  0.3970460000000  0.5144850000000  0.5355400000000 1.0
C      1  0.5149700000000  0.4646750000000  0.6045040000000 1.0
C      1  0.4854130000000  0.5356640000000  0.6051930000000 1.0
C      1  0.4852810000000  0.4651120000000  0.3962800000000 1.0
C      1  0.4651040000000  0.6027130000000  0.5148630000000 1.0
C      1  0.5348040000000  0.3960280000000  0.5146930000000 1.0
C      1  0.5353840000000  0.6035850000000  0.4854640000000 1.0
C      1  0.5144100000000  0.3922190000000  0.4662760000000 1.0
C      1  0.3922530000000  0.4664160000000  0.5149720000000 1.0
C      1  0.4661510000000  0.5153710000000  0.3900590000000 1.0
C      1  0.5146990000000  0.6077060000000  0.5336340000000 1.0
C      1  0.4851240000000  0.3924700000000  0.5335760000000 1.0
C      1  0.4854310000000  0.6068820000000  0.4666370000000 1.0
C      1  0.3929610000000  0.5329540000000  0.4849590000000 1.0
C      1  0.6085920000000  0.4659700000000  0.4846860000000 1.0
C      1  0.6076690000000  0.5335190000000  0.5143380000000 1.0
C      1  0.4668560000000  0.4856900000000  0.6081780000000 1.0
C      1  0.5337280000000  0.5145850000000  0.6081290000000 1.0
C      1  0.5333670000000  0.4858320000000  0.3924220000000 1.0
C      1  0.4847850000000  0.3911270000000  0.4657990000000 1.0
C      1  0.6072640000000  0.4665100000000  0.5142650000000 1.0
C      1  0.5339170000000  0.5153740000000  0.3911290000000 1.0
C      1  0.4851070000000  0.6081390000000  0.5339060000000 1.0
C      1  0.5146620000000  0.3917670000000  0.5338160000000 1.0
C      1  0.5149700000000  0.6076120000000  0.4665970000000 1.0
C      1  0.6089420000000  0.5337400000000  0.4846920000000 1.0
C      1  0.3926180000000  0.4665260000000  0.4853390000000 1.0
C      1  0.3933430000000  0.5328940000000  0.5146090000000 1.0
C      1  0.5340030000000  0.4849460000000  0.6089540000000 1.0
C      1  0.4664260000000  0.5153250000000  0.6099290000000 1.0
C      1  0.4666510000000  0.4857260000000  0.3920630000000 1.0
C      1  0.4779240000000  0.5631220000000  0.5945480000000 1.0
C      1  0.5626690000000  0.5930450000000  0.4776850000000 1.0
C      1  0.5924280000000  0.4775900000000  0.5619430000000 1.0
C      1  0.4775680000000  0.4375340000000  0.4062480000000 1.0
C      1  0.5229090000000  0.5624990000000  0.4068140000000 1.0
C      1  0.5225070000000  0.4374200000000  0.5935760000000 1.0
C      1  0.5619690000000  0.4064820000000  0.5227180000000 1.0
C      1  0.4380890000000  0.5919730000000  0.5230250000000 1.0
C      1  0.4373070000000  0.4059200000000  0.4772020000000 1.0
C      1  0.5932020000000  0.5221700000000  0.4372740000000 1.0
C      1  0.4061890000000  0.4769250000000  0.4372750000000 1.0
C      1  0.4076690000000  0.5224560000000  0.5628670000000 1.0
C      1  0.5230140000000  0.5624420000000  0.5941480000000 1.0
C      1  0.4381060000000  0.5917740000000  0.4771020000000 1.0
C      1  0.4058240000000  0.4773630000000  0.5630590000000 1.0
C      1  0.5227110000000  0.4380080000000  0.4062730000000 1.0
C      1  0.4777230000000  0.5631570000000  0.4049340000000 1.0
C      1  0.4773600000000  0.4377310000000  0.5942700000000 1.0
C      1  0.4375070000000  0.4063790000000  0.5226220000000 1.0
C      1  0.5625390000000  0.5940440000000  0.5228840000000 1.0
C      1  0.5622510000000  0.4066120000000  0.4775620000000 1.0
C      1  0.4064400000000  0.5221090000000  0.4363450000000 1.0
C      1  0.5938440000000  0.4770890000000  0.4372620000000 1.0
C      1  0.5939210000000  0.5227060000000  0.5623180000000 1.0
C      1  0.4999410000000  0.4211830000000  0.6030600000000 1.0
C      1  0.4215920000000  0.5999140000000  0.5000270000000 1.0
C      1  0.5784520000000  0.3973390000000  0.5002420000000 1.0
C      1  0.5009070000000  0.5792750000000  0.3970240000000 1.0
C      1  0.3968880000000  0.4991980000000  0.4206060000000 1.0
C      1  0.5003400000000  0.4215570000000  0.3968170000000 1.0
C      1  0.4210640000000  0.3972030000000  0.5000720000000 1.0
C      1  0.3973490000000  0.5002970000000  0.5792330000000 1.0
C      1  0.6025730000000  0.4997270000000  0.5783960000000 1.0
C      1  0.6025190000000  0.4997320000000  0.4207650000000 1.0
C      1  0.5008230000000  0.5791040000000  0.6036060000000 1.0
C      1  0.5789500000000  0.6026970000000  0.5001550000000 1.0
C      1  0.4404250000000  0.4406900000000  0.5600170000000 1.0
C      1  0.4395780000000  0.5603340000000  0.4373010000000 1.0
C      1  0.5591600000000  0.4406340000000  0.4407680000000 1.0
C      1  0.5586260000000  0.4411630000000  0.5591830000000 1.0
C      1  0.5595890000000  0.5589340000000  0.4408670000000 1.0
C      1  0.4404280000000  0.5604530000000  0.5623870000000 1.0
C      1  0.5594300000000  0.5595830000000  0.5596170000000 1.0
C      1  0.4406430000000  0.4402930000000  0.4399900000000 1.0
END
