TITL C-3623288-6813-1794 18820.6943840462 125000 -952.70807468393 0 0 160 (C1) n - 1
REM
REM in /home/nfs/bkarasulu/CARBON/AIRSS/Generating-Clusters/LCBOP/Higher-Symm/SD-CG/FIRE-CG
REM
REM
REM
REM
REM
REM ./C.cell (b20cbc046b6831c77cfcea5457e17084)
REM AIRSS Version 0.9.1 bugfix July 2018 build 013d7b7c2542+ Fri, 06 Jul 2018 19:26:36 +0100
REM compiler GCC version 9.2.1 20190827 (Red Hat 9.2.1-1)
REM options -cpp -mtune=generic -march=x86-64 -g -O0 -fpre-include=/usr/include/finclude/math-vector-fortran.h
REM seed -1667760856 1668254562 953772653 -39924477 -1826032413 -1421595948 1850917921 -1963410721 -622253831 407953545 444950198 -103472937 246247026 -1457521179 -149118519 -561791905 1303040170 212081515 -942058545 1427682649 -358207385 -155049102 -2051979572 195000723 -1237597324 -1297988472 1354852667 190987382 1511637232 -1520117621 -810022058 1571012343 -915769844
REM
CELL 1.54180   50.00000   50.00000   50.00000   90.00000   90.00000   90.00000
LATT -1
SFAC C  
C      1  0.4800730000000  0.4107940000000  0.5241800000000 1.0
C      1  0.5104170000000  0.3962310000000  0.5248530000000 1.0
C      1  0.5149490000000  0.3903250000000  0.4933450000000 1.0
C      1  0.4915510000000  0.3972510000000  0.4743600000000 1.0
C      1  0.4665110000000  0.4024020000000  0.4896330000000 1.0
C      1  0.4808270000000  0.5883420000000  0.5253360000000 1.0
C      1  0.5157350000000  0.5987950000000  0.5298340000000 1.0
C      1  0.5239840000000  0.6036210000000  0.5003850000000 1.0
C      1  0.4970050000000  0.6086990000000  0.4831460000000 1.0
C      1  0.4705460000000  0.6016700000000  0.4975670000000 1.0
C      1  0.4804810000000  0.4377230000000  0.4054990000000 1.0
C      1  0.4003930000000  0.4442080000000  0.4871340000000 1.0
C      1  0.4575280000000  0.4425370000000  0.5898880000000 1.0
C      1  0.5718980000000  0.4456660000000  0.5623800000000 1.0
C      1  0.5882270000000  0.4456780000000  0.4535210000000 1.0
C      1  0.4801510000000  0.5519470000000  0.4021110000000 1.0
C      1  0.4045210000000  0.5573460000000  0.4871280000000 1.0
C      1  0.4575220000000  0.5557330000000  0.5901660000000 1.0
C      1  0.5705960000000  0.5599060000000  0.5704340000000 1.0
C      1  0.5807880000000  0.5605650000000  0.4517060000000 1.0
C      1  0.4897840000000  0.4842890000000  0.5172070000000 1.0
C      1  0.5174850000000  0.4727960000000  0.5173460000000 1.0
C      1  0.5261980000000  0.4831930000000  0.4922190000000 1.0
C      1  0.4997070000000  0.4843060000000  0.4740240000000 1.0
C      1  0.4802720000000  0.4722570000000  0.4914340000000 1.0
C      1  0.4892610000000  0.5156070000000  0.5165130000000 1.0
C      1  0.5166570000000  0.5279370000000  0.5152270000000 1.0
C      1  0.5247210000000  0.5158330000000  0.4905960000000 1.0
C      1  0.4997260000000  0.5148300000000  0.4734190000000 1.0
C      1  0.4788590000000  0.5259740000000  0.4903250000000 1.0
C      1  0.6099430000000  0.4817250000000  0.5237050000000 1.0
C      1  0.5586260000000  0.4674740000000  0.4084560000000 1.0
C      1  0.4288020000000  0.4675560000000  0.4175330000000 1.0
C      1  0.4023570000000  0.4720840000000  0.5408630000000 1.0
C      1  0.5099080000000  0.4705240000000  0.6063640000000 1.0
C      1  0.6036570000000  0.5362580000000  0.5249080000000 1.0
C      1  0.5564930000000  0.5224770000000  0.4026440000000 1.0
C      1  0.4299030000000  0.5265000000000  0.4161420000000 1.0
C      1  0.4021170000000  0.5298320000000  0.5405370000000 1.0
C      1  0.5087500000000  0.5289030000000  0.6064730000000 1.0
C      1  0.4963930000000  0.6134790000000  0.4543950000000 1.0
C      1  0.4436380000000  0.5907370000000  0.4872150000000 1.0
C      1  0.4636980000000  0.5844370000000  0.5503870000000 1.0
C      1  0.5340690000000  0.5897720000000  0.5507650000000 1.0
C      1  0.5539490000000  0.5927730000000  0.4842270000000 1.0
C      1  0.4925460000000  0.4063270000000  0.4445730000000 1.0
C      1  0.4400030000000  0.4121720000000  0.4839140000000 1.0
C      1  0.4632310000000  0.4129830000000  0.5492720000000 1.0
C      1  0.5343770000000  0.4110420000000  0.5466250000000 1.0
C      1  0.5415170000000  0.3847060000000  0.4828260000000 1.0
C      1  0.5930290000000  0.4736320000000  0.4480210000000 1.0
C      1  0.4766230000000  0.4652470000000  0.3970460000000 1.0
C      1  0.3947600000000  0.4722790000000  0.4897080000000 1.0
C      1  0.4591950000000  0.4705700000000  0.5964250000000 1.0
C      1  0.5803720000000  0.4736690000000  0.5669160000000 1.0
C      1  0.5886990000000  0.5329100000000  0.4441160000000 1.0
C      1  0.4780340000000  0.5237160000000  0.3957340000000 1.0
C      1  0.3964560000000  0.5297130000000  0.4893050000000 1.0
C      1  0.4585640000000  0.5276920000000  0.5963910000000 1.0
C      1  0.5790680000000  0.5324170000000  0.5708510000000 1.0
C      1  0.4259200000000  0.5340280000000  0.4460760000000 1.0
C      1  0.4292000000000  0.5349510000000  0.5537750000000 1.0
C      1  0.5298570000000  0.5363400000000  0.5856970000000 1.0
C      1  0.5909350000000  0.5410700000000  0.4969500000000 1.0
C      1  0.5277520000000  0.5203640000000  0.4065180000000 1.0
C      1  0.4244230000000  0.4633330000000  0.4476160000000 1.0
C      1  0.4291370000000  0.4652170000000  0.5550660000000 1.0
C      1  0.5315960000000  0.4656630000000  0.5852050000000 1.0
C      1  0.5973780000000  0.4807380000000  0.4977120000000 1.0
C      1  0.5273620000000  0.4600290000000  0.4130210000000 1.0
C      1  0.3937290000000  0.5160140000000  0.5157790000000 1.0
C      1  0.4830450000000  0.5142990000000  0.6067490000000 1.0
C      1  0.5967880000000  0.5210570000000  0.5502960000000 1.0
C      1  0.5780750000000  0.5147240000000  0.4212370000000 1.0
C      1  0.4511810000000  0.5105580000000  0.4008940000000 1.0
C      1  0.3934710000000  0.4860390000000  0.5160820000000 1.0
C      1  0.4834940000000  0.4842820000000  0.6066860000000 1.0
C      1  0.5987820000000  0.4909950000000  0.5492800000000 1.0
C      1  0.5797650000000  0.4846050000000  0.4236890000000 1.0
C      1  0.4506140000000  0.4802610000000  0.4016270000000 1.0
C      1  0.3987820000000  0.4223110000000  0.5051490000000 1.0
C      1  0.4728120000000  0.4190520000000  0.5952360000000 1.0
C      1  0.5804520000000  0.4238000000000  0.5457790000000 1.0
C      1  0.5749360000000  0.4232050000000  0.4606150000000 1.0
C      1  0.4619530000000  0.4165280000000  0.4095810000000 1.0
C      1  0.4010710000000  0.5792410000000  0.5049040000000 1.0
C      1  0.4719340000000  0.5795740000000  0.5968690000000 1.0
C      1  0.5806260000000  0.5833810000000  0.5579710000000 1.0
C      1  0.5674720000000  0.5829350000000  0.4395160000000 1.0
C      1  0.4834580000000  0.5746400000000  0.4165530000000 1.0
C      1  0.5587660000000  0.4876240000000  0.5263130000000 1.0
C      1  0.5455860000000  0.4847310000000  0.4528360000000 1.0
C      1  0.4711910000000  0.4834650000000  0.4411980000000 1.0
C      1  0.4398140000000  0.4837960000000  0.5090430000000 1.0
C      1  0.4920520000000  0.4868290000000  0.5613220000000 1.0
C      1  0.5578930000000  0.5160720000000  0.5260180000000 1.0
C      1  0.5448140000000  0.5140300000000  0.4517580000000 1.0
C      1  0.4710730000000  0.5124300000000  0.4404950000000 1.0
C      1  0.4393210000000  0.5120970000000  0.5084750000000 1.0
C      1  0.4914450000000  0.5155560000000  0.5606310000000 1.0
C      1  0.5177730000000  0.4431370000000  0.5180370000000 1.0
C      1  0.5309950000000  0.4339080000000  0.4939310000000 1.0
C      1  0.5107660000000  0.4363450000000  0.4748890000000 1.0
C      1  0.4858150000000  0.4434420000000  0.4882710000000 1.0
C      1  0.4897950000000  0.4359790000000  0.5160220000000 1.0
C      1  0.5164270000000  0.5569250000000  0.5100050000000 1.0
C      1  0.5218330000000  0.5636160000000  0.4822100000000 1.0
C      1  0.4979960000000  0.5642130000000  0.4681280000000 1.0
C      1  0.4786940000000  0.5555580000000  0.4877560000000 1.0
C      1  0.4881970000000  0.5632890000000  0.5138470000000 1.0
C      1  0.4689910000000  0.3992090000000  0.4297000000000 1.0
C      1  0.4197270000000  0.4047410000000  0.5028470000000 1.0
C      1  0.4748610000000  0.4022950000000  0.5734610000000 1.0
C      1  0.5609880000000  0.4056830000000  0.5386720000000 1.0
C      1  0.5583890000000  0.4037890000000  0.4696080000000 1.0
C      1  0.4880770000000  0.5943910000000  0.4345320000000 1.0
C      1  0.4214740000000  0.5975740000000  0.5041090000000 1.0
C      1  0.4746600000000  0.5963080000000  0.5750790000000 1.0
C      1  0.5609270000000  0.5998590000000  0.5482350000000 1.0
C      1  0.5547870000000  0.6002230000000  0.4568480000000 1.0
C      1  0.4387330000000  0.4851170000000  0.5798770000000 1.0
C      1  0.5607450000000  0.4872450000000  0.5842890000000 1.0
C      1  0.6019420000000  0.4914570000000  0.4706950000000 1.0
C      1  0.5022650000000  0.4790610000000  0.3951070000000 1.0
C      1  0.4024970000000  0.4865520000000  0.4653460000000 1.0
C      1  0.4388190000000  0.5133470000000  0.5802510000000 1.0
C      1  0.5597500000000  0.5155420000000  0.5850170000000 1.0
C      1  0.6006590000000  0.5200960000000  0.4676550000000 1.0
C      1  0.5038470000000  0.5079040000000  0.3943810000000 1.0
C      1  0.4027580000000  0.5147740000000  0.4649230000000 1.0
C      1  0.4501350000000  0.4733140000000  0.4577340000000 1.0
C      1  0.4482450000000  0.4732010000000  0.5338110000000 1.0
C      1  0.5186400000000  0.4774020000000  0.5619060000000 1.0
C      1  0.5695670000000  0.4759220000000  0.5015890000000 1.0
C      1  0.5241970000000  0.4721480000000  0.4387120000000 1.0
C      1  0.4500890000000  0.5225900000000  0.4566560000000 1.0
C      1  0.4472590000000  0.5249760000000  0.5326590000000 1.0
C      1  0.5176460000000  0.5262690000000  0.5610640000000 1.0
C      1  0.5653880000000  0.5275490000000  0.5010540000000 1.0
C      1  0.5234970000000  0.5242740000000  0.4345140000000 1.0
C      1  0.5337920000000  0.5253180000000  0.5381990000000 1.0
C      1  0.5490110000000  0.5245560000000  0.4780410000000 1.0
C      1  0.4975360000000  0.5227750000000  0.4455240000000 1.0
C      1  0.4511940000000  0.5206520000000  0.4845890000000 1.0
C      1  0.4742590000000  0.5244330000000  0.5399320000000 1.0
C      1  0.5351780000000  0.4786020000000  0.5392200000000 1.0
C      1  0.5512320000000  0.4755070000000  0.4795310000000 1.0
C      1  0.4976600000000  0.4745120000000  0.4471160000000 1.0
C      1  0.4522610000000  0.4741910000000  0.4857310000000 1.0
C      1  0.4750720000000  0.4759960000000  0.5412210000000 1.0
C      1  0.4456230000000  0.5610720000000  0.5624220000000 1.0
C      1  0.5413270000000  0.5631540000000  0.5745840000000 1.0
C      1  0.5800490000000  0.5663860000000  0.4818550000000 1.0
C      1  0.5044280000000  0.6383050000000  0.4455910000000 1.0
C      1  0.4260640000000  0.5634320000000  0.4682680000000 1.0
C      1  0.4434450000000  0.4382580000000  0.5635550000000 1.0
C      1  0.5429500000000  0.4386010000000  0.5705170000000 1.0
C      1  0.5514190000000  0.3592910000000  0.4865390000000 1.0
C      1  0.5053950000000  0.4315810000000  0.4201240000000 1.0
C      1  0.4211530000000  0.4382200000000  0.4665480000000 1.0
END
