TITL C-3623283-6828-2018 0.06419828817669 125000 -103.255238468849 0 0 19 (C2v) n - 1
REM
REM in /home/nfs/bkarasulu/CARBON/AIRSS/Generating-Clusters/LCBOP/Higher-Symm/SD-CG/FIRE-CG
REM
REM
REM
REM
REM
REM ./C.cell (b20cbc046b6831c77cfcea5457e17084)
REM AIRSS Version 0.9.1 bugfix July 2018 build 013d7b7c2542+ Fri, 06 Jul 2018 19:26:36 +0100
REM compiler GCC version 9.2.1 20190827 (Red Hat 9.2.1-1)
REM options -cpp -mtune=generic -march=x86-64 -g -O0 -fpre-include=/usr/include/finclude/math-vector-fortran.h
REM seed 1489725693 -1163248639 852588286 72664216 -949640678 -776734412 -872650730 1607499262 -1746326168 1454650459 -288105692 1947180502 932802177 -116990890 1598671214 1184336325 -785659741 -777478105 396842153 1891387158 2012333696 30513044 1644796945 -579425252 -294989411 -47086619 -1167216511 -944997348 -714702244 -1290841779 1881751026 1328853136 -550597023
REM
CELL 1.54180   50.00000   50.00000   50.00000   90.00000   90.00000   90.00000
LATT -1
SFAC C  
C      1  0.5156310000000  0.4727670000000  0.5376370000000 1.0
C      1  0.5046910000000  0.6018390000000  0.4333690000000 1.0
C      1  0.4674480000000  0.4799180000000  0.5300100000000 1.0
C      1  0.4928930000000  0.4500230000000  0.5001810000000 1.0
C      1  0.3974240000000  0.4944020000000  0.5637240000000 1.0
C      1  0.5192620000000  0.5318150000000  0.4670430000000 1.0
C      1  0.5491970000000  0.5063860000000  0.4968460000000 1.0
C      1  0.5264590000000  0.4836420000000  0.4593900000000 1.0
C      1  0.5554320000000  0.4961190000000  0.5209250000000 1.0
C      1  0.5143870000000  0.5552690000000  0.4557610000000 1.0
C      1  0.4205160000000  0.4896230000000  0.5526070000000 1.0
C      1  0.5175780000000  0.4582550000000  0.4585680000000 1.0
C      1  0.4439940000000  0.4847640000000  0.5413050000000 1.0
C      1  0.5094980000000  0.5787470000000  0.4444720000000 1.0
C      1  0.5410100000000  0.4816740000000  0.5384510000000 1.0
C      1  0.5031560000000  0.4438100000000  0.4760940000000 1.0
C      1  0.5244940000000  0.5057360000000  0.4797020000000 1.0
C      1  0.4935260000000  0.4747190000000  0.5173360000000 1.0
C      1  0.5016060000000  0.4976240000000  0.4985220000000 1.0
END
