TITL C-3623285-6872-2016 393930.145665348 125000 -994.883298657032 0 0 165 (C1) n - 1
REM
REM in /home/nfs/bkarasulu/CARBON/AIRSS/Generating-Clusters/LCBOP/Higher-Symm/SD-CG/FIRE-CG
REM
REM
REM
REM
REM
REM ./C.cell (b20cbc046b6831c77cfcea5457e17084)
REM AIRSS Version 0.9.1 bugfix July 2018 build 013d7b7c2542+ Fri, 06 Jul 2018 19:26:36 +0100
REM compiler GCC version 9.2.1 20190827 (Red Hat 9.2.1-1)
REM options -cpp -mtune=generic -march=x86-64 -g -O0 -fpre-include=/usr/include/finclude/math-vector-fortran.h
REM seed 36284876 430915667 419937952 1020675793 256775484 -946447815 2003376179 2017519529 1133711949 -1581144943 -735050621 -1829445386 1317885779 -1813634955 -299810180 -663962377 -144796406 2080249069 -911658100 -1022757470 -795894590 644607076 -1045063756 -1386191287 -1987025077 -167494830 726477112 -742740419 -2114019868 -1358310682 1535671575 -40458908 -1475044070
REM
CELL 1.54180   50.00000   50.00000   50.00000   90.00000   90.00000   90.00000
LATT -1
SFAC C  
C      1  0.5380400000000  0.5275930000000  0.4447640000000 1.0
C      1  0.5550890000000  0.5579900000000  0.5291380000000 1.0
C      1  0.5401460000000  0.4745510000000  0.5583810000000 1.0
C      1  0.5417090000000  0.4436270000000  0.4730340000000 1.0
C      1  0.5570740000000  0.4860290000000  0.4208030000000 1.0
C      1  0.5549430000000  0.5819050000000  0.4852710000000 1.0
C      1  0.5540640000000  0.5176800000000  0.5812150000000 1.0
C      1  0.5633990000000  0.4212860000000  0.5127170000000 1.0
C      1  0.5041940000000  0.4252290000000  0.5905690000000 1.0
C      1  0.4975200000000  0.4157800000000  0.4283740000000 1.0
C      1  0.4981440000000  0.5733650000000  0.4145980000000 1.0
C      1  0.4988150000000  0.5927210000000  0.5811860000000 1.0
C      1  0.5292090000000  0.5808810000000  0.4462720000000 1.0
C      1  0.5262270000000  0.5554480000000  0.5768580000000 1.0
C      1  0.5412000000000  0.4242840000000  0.5583370000000 1.0
C      1  0.5304040000000  0.4454920000000  0.4201070000000 1.0
C      1  0.5997310000000  0.4969720000000  0.4805700000000 1.0
C      1  0.5997420000000  0.5252570000000  0.4792280000000 1.0
C      1  0.5900630000000  0.5000660000000  0.5286070000000 1.0
C      1  0.5992680000000  0.4841530000000  0.5065910000000 1.0
C      1  0.4589630000000  0.4815320000000  0.4525090000000 1.0
C      1  0.4566320000000  0.5452340000000  0.4802620000000 1.0
C      1  0.4541550000000  0.5152290000000  0.5450780000000 1.0
C      1  0.4478170000000  0.4564650000000  0.5191820000000 1.0
C      1  0.6006500000000  0.5057680000000  0.5544580000000 1.0
C      1  0.6057250000000  0.4565040000000  0.5109930000000 1.0
C      1  0.5996680000000  0.4822410000000  0.4559250000000 1.0
C      1  0.5990600000000  0.5522820000000  0.4712620000000 1.0
C      1  0.4970110000000  0.4173590000000  0.4564970000000 1.0
C      1  0.4976460000000  0.5452630000000  0.4169260000000 1.0
C      1  0.5023060000000  0.6079880000000  0.5592190000000 1.0
C      1  0.5030060000000  0.4448570000000  0.6090010000000 1.0
C      1  0.5499930000000  0.5004130000000  0.3974110000000 1.0
C      1  0.5476310000000  0.6041350000000  0.5007730000000 1.0
C      1  0.5449230000000  0.5057310000000  0.6053210000000 1.0
C      1  0.5519600000000  0.3980880000000  0.5001120000000 1.0
C      1  0.4321300000000  0.4767310000000  0.4425750000000 1.0
C      1  0.4290440000000  0.5522190000000  0.4745350000000 1.0
C      1  0.4264710000000  0.5162740000000  0.5525060000000 1.0
C      1  0.4219450000000  0.4431040000000  0.5209240000000 1.0
C      1  0.4128780000000  0.4515180000000  0.5472610000000 1.0
C      1  0.4199500000000  0.4557230000000  0.4577740000000 1.0
C      1  0.4198170000000  0.5411480000000  0.4499980000000 1.0
C      1  0.4123670000000  0.5663890000000  0.5399240000000 1.0
C      1  0.3951150000000  0.4869380000000  0.4921400000000 1.0
C      1  0.3907800000000  0.5076980000000  0.4731670000000 1.0
C      1  0.4080700000000  0.5204340000000  0.5289420000000 1.0
C      1  0.3973270000000  0.4936980000000  0.5207280000000 1.0
C      1  0.4535110000000  0.3923890000000  0.4433290000000 1.0
C      1  0.4552660000000  0.5534060000000  0.3895470000000 1.0
C      1  0.4547950000000  0.6131030000000  0.5556390000000 1.0
C      1  0.4542640000000  0.4465270000000  0.6049600000000 1.0
C      1  0.4421180000000  0.5071730000000  0.3700410000000 1.0
C      1  0.4416060000000  0.6274780000000  0.5083010000000 1.0
C      1  0.4382390000000  0.4931420000000  0.6187240000000 1.0
C      1  0.4402880000000  0.3643790000000  0.4835570000000 1.0
C      1  0.5345040000000  0.4797270000000  0.6044500000000 1.0
C      1  0.5344010000000  0.3981530000000  0.4774100000000 1.0
C      1  0.5352710000000  0.5244390000000  0.3986010000000 1.0
C      1  0.5354480000000  0.6015590000000  0.5258580000000 1.0
C      1  0.5346200000000  0.4719110000000  0.4348670000000 1.0
C      1  0.5321980000000  0.5664210000000  0.4732390000000 1.0
C      1  0.5318720000000  0.5286860000000  0.5628480000000 1.0
C      1  0.5439550000000  0.4364990000000  0.5291150000000 1.0
C      1  0.4663050000000  0.3961330000000  0.5433610000000 1.0
C      1  0.4792940000000  0.4522220000000  0.4028150000000 1.0
C      1  0.4785220000000  0.5978230000000  0.4512690000000 1.0
C      1  0.4777280000000  0.5513810000000  0.5964670000000 1.0
C      1  0.4834200000000  0.5497510000000  0.5314100000000 1.0
C      1  0.4867930000000  0.4621540000000  0.5481370000000 1.0
C      1  0.4888990000000  0.4438250000000  0.4696790000000 1.0
C      1  0.4889670000000  0.5330140000000  0.4436250000000 1.0
C      1  0.5093650000000  0.4483590000000  0.4912890000000 1.0
C      1  0.5105030000000  0.5124460000000  0.4516660000000 1.0
C      1  0.5032400000000  0.5474080000000  0.5113920000000 1.0
C      1  0.5050340000000  0.4857060000000  0.5493450000000 1.0
C      1  0.4857990000000  0.6113730000000  0.5132830000000 1.0
C      1  0.4840880000000  0.4897910000000  0.6087780000000 1.0
C      1  0.4812060000000  0.3865310000000  0.4888150000000 1.0
C      1  0.4846770000000  0.5088690000000  0.3887720000000 1.0
C      1  0.4579700000000  0.4077200000000  0.5670830000000 1.0
C      1  0.4562680000000  0.4356190000000  0.4129520000000 1.0
C      1  0.4566110000000  0.5877560000000  0.4326560000000 1.0
C      1  0.4559060000000  0.5705280000000  0.5897860000000 1.0
C      1  0.5032240000000  0.5897270000000  0.4380190000000 1.0
C      1  0.5019390000000  0.5648070000000  0.5878580000000 1.0
C      1  0.5123930000000  0.4229120000000  0.5637340000000 1.0
C      1  0.5036020000000  0.4387360000000  0.4116350000000 1.0
C      1  0.4401100000000  0.5421190000000  0.4307900000000 1.0
C      1  0.4388700000000  0.5726180000000  0.5454420000000 1.0
C      1  0.4378110000000  0.4498720000000  0.5624940000000 1.0
C      1  0.4385710000000  0.4341400000000  0.4587250000000 1.0
C      1  0.4800070000000  0.5277820000000  0.5500790000000 1.0
C      1  0.4995900000000  0.4372460000000  0.5423270000000 1.0
C      1  0.4851400000000  0.4687850000000  0.4502850000000 1.0
C      1  0.4824660000000  0.5514120000000  0.4680250000000 1.0
C      1  0.6279150000000  0.5072990000000  0.5595520000000 1.0
C      1  0.6308770000000  0.4505400000000  0.5218320000000 1.0
C      1  0.6180780000000  0.4614390000000  0.4524190000000 1.0
C      1  0.6158150000000  0.5604000000000  0.4503510000000 1.0
C      1  0.5454830000000  0.4233630000000  0.4316620000000 1.0
C      1  0.5457170000000  0.5691110000000  0.4251840000000 1.0
C      1  0.5441650000000  0.5766970000000  0.5696310000000 1.0
C      1  0.5549870000000  0.4374180000000  0.5799290000000 1.0
C      1  0.5432980000000  0.5307770000000  0.5329170000000 1.0
C      1  0.5465300000000  0.4670960000000  0.5339500000000 1.0
C      1  0.5432560000000  0.4677110000000  0.4645460000000 1.0
C      1  0.5427290000000  0.5380150000000  0.4687770000000 1.0
C      1  0.4120170000000  0.4955410000000  0.5661380000000 1.0
C      1  0.4041580000000  0.4402940000000  0.4998800000000 1.0
C      1  0.4146380000000  0.4966940000000  0.4334090000000 1.0
C      1  0.4098410000000  0.5554480000000  0.4944410000000 1.0
C      1  0.4614440000000  0.5239090000000  0.4353890000000 1.0
C      1  0.4603450000000  0.5653630000000  0.5288330000000 1.0
C      1  0.4590240000000  0.4597500000000  0.5455260000000 1.0
C      1  0.4601720000000  0.4369710000000  0.4772910000000 1.0
C      1  0.4042060000000  0.5172550000000  0.4501610000000 1.0
C      1  0.4049800000000  0.5472950000000  0.5206530000000 1.0
C      1  0.4003290000000  0.4771480000000  0.5465390000000 1.0
C      1  0.4028590000000  0.4609570000000  0.4806640000000 1.0
C      1  0.5443870000000  0.5409310000000  0.4206860000000 1.0
C      1  0.5482600000000  0.5818790000000  0.5423610000000 1.0
C      1  0.5463370000000  0.4643220000000  0.5833580000000 1.0
C      1  0.5443460000000  0.4193480000000  0.4598680000000 1.0
C      1  0.4458520000000  0.5194270000000  0.6163710000000 1.0
C      1  0.4447360000000  0.3668560000000  0.5106110000000 1.0
C      1  0.4497840000000  0.4810750000000  0.3748550000000 1.0
C      1  0.4488530000000  0.6220530000000  0.4824090000000 1.0
C      1  0.5811070000000  0.5144660000000  0.5732650000000 1.0
C      1  0.5874230000000  0.4351550000000  0.5075520000000 1.0
C      1  0.5815200000000  0.4875820000000  0.4348930000000 1.0
C      1  0.5807130000000  0.5709380000000  0.4818060000000 1.0
C      1  0.4726380000000  0.5240020000000  0.6068800000000 1.0
C      1  0.4677080000000  0.3841920000000  0.5169940000000 1.0
C      1  0.4752670000000  0.4787050000000  0.3897200000000 1.0
C      1  0.4742390000000  0.6092610000000  0.4785610000000 1.0
C      1  0.5230540000000  0.4871630000000  0.5179510000000 1.0
C      1  0.5203150000000  0.4823470000000  0.4903760000000 1.0
C      1  0.5173010000000  0.5100150000000  0.4814400000000 1.0
C      1  0.5214810000000  0.5246730000000  0.5141080000000 1.0
C      1  0.5065720000000  0.5252170000000  0.3977930000000 1.0
C      1  0.5083710000000  0.6083980000000  0.5311960000000 1.0
C      1  0.5074900000000  0.4731160000000  0.6102650000000 1.0
C      1  0.5051050000000  0.3971160000000  0.4760480000000 1.0
C      1  0.4480710000000  0.4313680000000  0.5812030000000 1.0
C      1  0.4464800000000  0.4192260000000  0.4353650000000 1.0
C      1  0.4481570000000  0.5651130000000  0.4156310000000 1.0
C      1  0.4475940000000  0.5876170000000  0.5680180000000 1.0
C      1  0.4596510000000  0.3792220000000  0.4680510000000 1.0
C      1  0.4610140000000  0.5265000000000  0.3803410000000 1.0
C      1  0.4608220000000  0.6195950000000  0.5280360000000 1.0
C      1  0.4586110000000  0.4741000000000  0.6119520000000 1.0
C      1  0.6318790000000  0.4395350000000  0.4493950000000 1.0
C      1  0.6279210000000  0.5660530000000  0.4279710000000 1.0
C      1  0.6529050000000  0.5143970000000  0.5617330000000 1.0
C      1  0.6514700000000  0.4452570000000  0.5369160000000 1.0
C      1  0.5038780000000  0.5135250000000  0.5582700000000 1.0
C      1  0.5148210000000  0.4362780000000  0.5176240000000 1.0
C      1  0.5074750000000  0.4849030000000  0.4403850000000 1.0
C      1  0.5042780000000  0.5599700000000  0.4854940000000 1.0
C      1  0.4539850000000  0.4775880000000  0.5032830000000 1.0
C      1  0.4572260000000  0.4946630000000  0.4768770000000 1.0
C      1  0.4581440000000  0.5202840000000  0.4925990000000 1.0
C      1  0.4561200000000  0.5057710000000  0.5187560000000 1.0
C      1  0.5654540000000  0.5126340000000  0.5250330000000 1.0
END
