TITL C-3623288-6813-1196 2.52348040256741e-07 125000 -127.206450600078 0 0 22 (C3) n - 1
REM
REM in /home/nfs/bkarasulu/CARBON/AIRSS/Generating-Clusters/LCBOP/Higher-Symm/SD-CG/FIRE-CG
REM
REM
REM
REM
REM
REM ./C.cell (b20cbc046b6831c77cfcea5457e17084)
REM AIRSS Version 0.9.1 bugfix July 2018 build 013d7b7c2542+ Fri, 06 Jul 2018 19:26:36 +0100
REM compiler GCC version 9.2.1 20190827 (Red Hat 9.2.1-1)
REM options -cpp -mtune=generic -march=x86-64 -g -O0 -fpre-include=/usr/include/finclude/math-vector-fortran.h
REM seed -1493071549 778290687 1581476181 1448451251 -1740668550 -955798968 -43434491 -941379291 -1460912688 47239699 -712691753 -930891392 -1993755696 1081526230 53040350 -1780612266 -473053556 637596711 1924044384 -2050264364 -962091924 -1322202580 1216688023 -255821445 852729641 -1923159327 -1578845294 -394033528 37257407 1249709244 1442841880 -382663094 1232862669
REM
CELL 1.54180   50.00000   50.00000   50.00000   90.00000   90.00000   90.00000
LATT -1
SFAC C  
C      1  0.5060630000000  0.5430890000000  0.4998330000000 1.0
C      1  0.5060640000000  0.4755180000000  0.4640970000000 1.0
C      1  0.5060650000000  0.4783550000000  0.5404840000000 1.0
C      1  0.4840840000000  0.5596170000000  0.4586770000000 1.0
C      1  0.4840870000000  0.4316110000000  0.4703620000000 1.0
C      1  0.4840870000000  0.5057330000000  0.5753760000000 1.0
C      1  0.4893320000000  0.4570740000000  0.4783040000000 1.0
C      1  0.4893320000000  0.4998800000000  0.5493540000000 1.0
C      1  0.4893300000000  0.5400080000000  0.4767570000000 1.0
C      1  0.4898300000000  0.5401670000000  0.5230970000000 1.0
C      1  0.4898300000000  0.4971260000000  0.4549960000000 1.0
C      1  0.4898320000000  0.4596690000000  0.5263220000000 1.0
C      1  0.5370630000000  0.5116840000000  0.4771110000000 1.0
C      1  0.5370640000000  0.4715430000000  0.5026560000000 1.0
C      1  0.5370640000000  0.5137370000000  0.5246460000000 1.0
C      1  0.4786480000000  0.4694980000000  0.5019320000000 1.0
C      1  0.4786470000000  0.5141300000000  0.5267800000000 1.0
C      1  0.4786470000000  0.5133330000000  0.4757030000000 1.0
C      1  0.5306850000000  0.4834650000000  0.4771500000000 1.0
C      1  0.5306860000000  0.4856860000000  0.5270750000000 1.0
C      1  0.5306850000000  0.5278120000000  0.5001890000000 1.0
C      1  0.4736500000000  0.4989870000000  0.5014720000000 1.0
END
