TITL C-3623289-7120-1291 -14841.1405423819 125000 -1114.13760323703 0 0 182 (C1) n - 1
REM
REM in /home/nfs/bkarasulu/CARBON/AIRSS/Generating-Clusters/LCBOP/Higher-Symm/SD-CG/FIRE-CG
REM
REM
REM
REM
REM
REM ./C.cell (b20cbc046b6831c77cfcea5457e17084)
REM AIRSS Version 0.9.1 bugfix July 2018 build 013d7b7c2542+ Fri, 06 Jul 2018 19:26:36 +0100
REM compiler GCC version 9.2.1 20190827 (Red Hat 9.2.1-1)
REM options -cpp -mtune=generic -march=x86-64 -g -O0 -fpre-include=/usr/include/finclude/math-vector-fortran.h
REM seed -1809333658 -766524240 1480975479 -479771110 1984598285 2082181125 -736010578 -1226541450 141564385 -1742101537 178305882 -1156888001 -1019120185 1507389394 1903831861 -1284167797 155682950 -1743718459 1927302192 -1209529798 -511505705 1179910396 -208292941 1066189647 -2037915224 -923586596 188224267 881081550 -1709619470 1653647102 -1902036595 -781989849 -1147517810
REM
CELL 1.54180   50.00000   50.00000   50.00000   90.00000   90.00000   90.00000
LATT -1
SFAC C  
C      1  0.4124830000000  0.5825160000000  0.4955950000000 1.0
C      1  0.5803740000000  0.5903820000000  0.5066800000000 1.0
C      1  0.5306880000000  0.5834580000000  0.4602910000000 1.0
C      1  0.4469720000000  0.5849590000000  0.4559910000000 1.0
C      1  0.3885130000000  0.4014180000000  0.4254540000000 1.0
C      1  0.5545120000000  0.4978850000000  0.4615340000000 1.0
C      1  0.5117870000000  0.4814100000000  0.4033150000000 1.0
C      1  0.4820250000000  0.4813650000000  0.4019920000000 1.0
C      1  0.5426510000000  0.5751120000000  0.5460240000000 1.0
C      1  0.4782900000000  0.5632850000000  0.5306890000000 1.0
C      1  0.4767820000000  0.5088020000000  0.4003640000000 1.0
C      1  0.5175440000000  0.5091310000000  0.4022680000000 1.0
C      1  0.5166600000000  0.6087580000000  0.5222630000000 1.0
C      1  0.4875340000000  0.6085900000000  0.5173990000000 1.0
C      1  0.4039910000000  0.4818890000000  0.4278160000000 1.0
C      1  0.6092770000000  0.5027290000000  0.4299070000000 1.0
C      1  0.3990170000000  0.4424110000000  0.4876920000000 1.0
C      1  0.6111170000000  0.4602940000000  0.4880320000000 1.0
C      1  0.5343050000000  0.4991990000000  0.5219340000000 1.0
C      1  0.4542630000000  0.4963980000000  0.5132090000000 1.0
C      1  0.5674250000000  0.4798280000000  0.4789740000000 1.0
C      1  0.3890010000000  0.4212460000000  0.4430110000000 1.0
C      1  0.5638480000000  0.5507510000000  0.4757340000000 1.0
C      1  0.4536350000000  0.5296270000000  0.4748790000000 1.0
C      1  0.5639970000000  0.6488450000000  0.4535090000000 1.0
C      1  0.5760010000000  0.6690520000000  0.4412580000000 1.0
C      1  0.4884900000000  0.4263010000000  0.6056300000000 1.0
C      1  0.5157640000000  0.4267880000000  0.6025920000000 1.0
C      1  0.6115990000000  0.4859580000000  0.5038520000000 1.0
C      1  0.3940010000000  0.4690200000000  0.4995080000000 1.0
C      1  0.5369760000000  0.5562300000000  0.5676290000000 1.0
C      1  0.4674840000000  0.5457110000000  0.5501140000000 1.0
C      1  0.5163710000000  0.5803920000000  0.4132140000000 1.0
C      1  0.4761730000000  0.5793630000000  0.4138750000000 1.0
C      1  0.5956030000000  0.5923500000000  0.4860900000000 1.0
C      1  0.3937880000000  0.5802290000000  0.4762890000000 1.0
C      1  0.4757640000000  0.4013800000000  0.5121570000000 1.0
C      1  0.5297500000000  0.3840270000000  0.5122200000000 1.0
C      1  0.4738770000000  0.5187970000000  0.4589930000000 1.0
C      1  0.5291480000000  0.5096180000000  0.4716920000000 1.0
C      1  0.4853260000000  0.4623560000000  0.5644150000000 1.0
C      1  0.5131680000000  0.4615320000000  0.5583730000000 1.0
C      1  0.5153170000000  0.4834180000000  0.6214190000000 1.0
C      1  0.4896400000000  0.4806140000000  0.6290250000000 1.0
C      1  0.5007730000000  0.5857450000000  0.4632210000000 1.0
C      1  0.4844200000000  0.5636130000000  0.4685670000000 1.0
C      1  0.4230210000000  0.4587680000000  0.5732050000000 1.0
C      1  0.5754750000000  0.4533050000000  0.5654420000000 1.0
C      1  0.5004430000000  0.5558340000000  0.5146380000000 1.0
C      1  0.5281920000000  0.5507930000000  0.5038510000000 1.0
C      1  0.3935150000000  0.4430040000000  0.4594090000000 1.0
C      1  0.5924920000000  0.4686140000000  0.4672380000000 1.0
C      1  0.4260130000000  0.4844000000000  0.5877860000000 1.0
C      1  0.5782130000000  0.4745940000000  0.5850800000000 1.0
C      1  0.4841530000000  0.5071150000000  0.5760940000000 1.0
C      1  0.5361410000000  0.5052040000000  0.5533790000000 1.0
C      1  0.4711570000000  0.4203940000000  0.4452500000000 1.0
C      1  0.5208760000000  0.4179180000000  0.4447190000000 1.0
C      1  0.5270450000000  0.3798300000000  0.4832780000000 1.0
C      1  0.4677280000000  0.3872280000000  0.4872120000000 1.0
C      1  0.3958570000000  0.5148790000000  0.4705830000000 1.0
C      1  0.6054050000000  0.5337430000000  0.4770530000000 1.0
C      1  0.5210030000000  0.5353200000000  0.4594730000000 1.0
C      1  0.4936030000000  0.5392250000000  0.4569920000000 1.0
C      1  0.5507430000000  0.4199490000000  0.4812340000000 1.0
C      1  0.4444630000000  0.4266850000000  0.4825420000000 1.0
C      1  0.4546870000000  0.5618480000000  0.4751670000000 1.0
C      1  0.5356480000000  0.5571240000000  0.4739510000000 1.0
C      1  0.4224410000000  0.5120470000000  0.5772150000000 1.0
C      1  0.5847870000000  0.5024220000000  0.5781400000000 1.0
C      1  0.6028330000000  0.5139020000000  0.5591530000000 1.0
C      1  0.4041900000000  0.5192380000000  0.5562540000000 1.0
C      1  0.4359250000000  0.5355700000000  0.5882110000000 1.0
C      1  0.5657940000000  0.5222280000000  0.5873490000000 1.0
C      1  0.5502660000000  0.5694480000000  0.5186400000000 1.0
C      1  0.4348340000000  0.5657130000000  0.4991880000000 1.0
C      1  0.6038340000000  0.5804230000000  0.4631980000000 1.0
C      1  0.3914840000000  0.5613780000000  0.4572680000000 1.0
C      1  0.5451650000000  0.5288380000000  0.5682780000000 1.0
C      1  0.4520200000000  0.5544250000000  0.5728060000000 1.0
C      1  0.3774170000000  0.5141310000000  0.5585200000000 1.0
C      1  0.6295450000000  0.5082220000000  0.5594430000000 1.0
C      1  0.4699350000000  0.4206010000000  0.5845620000000 1.0
C      1  0.5306620000000  0.4210640000000  0.5789160000000 1.0
C      1  0.4642090000000  0.5778640000000  0.5846880000000 1.0
C      1  0.5190230000000  0.5708760000000  0.5857090000000 1.0
C      1  0.4215120000000  0.4289680000000  0.4980770000000 1.0
C      1  0.5738590000000  0.4158150000000  0.4960430000000 1.0
C      1  0.4202400000000  0.5303900000000  0.4299420000000 1.0
C      1  0.5835180000000  0.5459340000000  0.4307940000000 1.0
C      1  0.3947420000000  0.3498240000000  0.3653940000000 1.0
C      1  0.5741320000000  0.4700940000000  0.3895110000000 1.0
C      1  0.5102900000000  0.4895290000000  0.4603640000000 1.0
C      1  0.4824780000000  0.4927830000000  0.4560550000000 1.0
C      1  0.4828680000000  0.5560320000000  0.3981970000000 1.0
C      1  0.5116800000000  0.5565450000000  0.3984150000000 1.0
C      1  0.4781690000000  0.4812180000000  0.5838410000000 1.0
C      1  0.5282580000000  0.4823870000000  0.5711630000000 1.0
C      1  0.4559530000000  0.4048580000000  0.4662570000000 1.0
C      1  0.5362270000000  0.4003950000000  0.4643390000000 1.0
C      1  0.4653320000000  0.5341360000000  0.4042910000000 1.0
C      1  0.5295010000000  0.5350360000000  0.4050610000000 1.0
C      1  0.5141380000000  0.4044570000000  0.5595710000000 1.0
C      1  0.4846810000000  0.4055600000000  0.5625200000000 1.0
C      1  0.5971510000000  0.5239470000000  0.4180610000000 1.0
C      1  0.4154250000000  0.5045960000000  0.4190090000000 1.0
C      1  0.5878030000000  0.6889010000000  0.4291590000000 1.0
C      1  0.5523310000000  0.6283150000000  0.4655000000000 1.0
C      1  0.5814220000000  0.4569790000000  0.3681970000000 1.0
C      1  0.3974960000000  0.3341730000000  0.3447260000000 1.0
C      1  0.4481270000000  0.5207830000000  0.5009230000000 1.0
C      1  0.5831390000000  0.5408200000000  0.4936420000000 1.0
C      1  0.5547600000000  0.5527710000000  0.4236640000000 1.0
C      1  0.4431210000000  0.5457490000000  0.4210870000000 1.0
C      1  0.4059290000000  0.4727200000000  0.5253100000000 1.0
C      1  0.5881400000000  0.4811920000000  0.5214530000000 1.0
C      1  0.3927810000000  0.4872990000000  0.4757570000000 1.0
C      1  0.6141970000000  0.5067840000000  0.4801470000000 1.0
C      1  0.4719500000000  0.6144740000000  0.4935810000000 1.0
C      1  0.5361080000000  0.6016420000000  0.5036470000000 1.0
C      1  0.5596700000000  0.4728310000000  0.6061860000000 1.0
C      1  0.4409370000000  0.4816750000000  0.6119980000000 1.0
C      1  0.6014970000000  0.5533190000000  0.4541410000000 1.0
C      1  0.4025360000000  0.5360230000000  0.4523030000000 1.0
C      1  0.4035500000000  0.4603260000000  0.5512100000000 1.0
C      1  0.5881490000000  0.4611580000000  0.5413090000000 1.0
C      1  0.5126600000000  0.4420570000000  0.4637270000000 1.0
C      1  0.4818560000000  0.4447250000000  0.4629790000000 1.0
C      1  0.5384140000000  0.5772280000000  0.4314320000000 1.0
C      1  0.4514860000000  0.5742890000000  0.4291240000000 1.0
C      1  0.5249690000000  0.5988390000000  0.5481970000000 1.0
C      1  0.4753360000000  0.5911120000000  0.5372050000000 1.0
C      1  0.4311170000000  0.5411640000000  0.6153160000000 1.0
C      1  0.5678720000000  0.5342160000000  0.6123640000000 1.0
C      1  0.5303530000000  0.5197860000000  0.5014460000000 1.0
C      1  0.4821730000000  0.5229990000000  0.5552820000000 1.0
C      1  0.4711280000000  0.4606180000000  0.4184500000000 1.0
C      1  0.5209690000000  0.4596660000000  0.4195060000000 1.0
C      1  0.3943610000000  0.4705180000000  0.4515520000000 1.0
C      1  0.6083020000000  0.4908020000000  0.4552820000000 1.0
C      1  0.4563780000000  0.6084400000000  0.4714380000000 1.0
C      1  0.5411120000000  0.6055520000000  0.4768110000000 1.0
C      1  0.5040590000000  0.5653100000000  0.6089550000000 1.0
C      1  0.4777710000000  0.5727330000000  0.6094020000000 1.0
C      1  0.5593380000000  0.4951340000000  0.4339940000000 1.0
C      1  0.3898680000000  0.3830790000000  0.4063710000000 1.0
C      1  0.5773840000000  0.4114950000000  0.5223050000000 1.0
C      1  0.4269340000000  0.4280140000000  0.5255400000000 1.0
C      1  0.5661190000000  0.4831970000000  0.4111370000000 1.0
C      1  0.3920910000000  0.3660380000000  0.3861960000000 1.0
C      1  0.4797610000000  0.5943650000000  0.5658620000000 1.0
C      1  0.5083130000000  0.5943620000000  0.5710210000000 1.0
C      1  0.4444570000000  0.4356460000000  0.5732510000000 1.0
C      1  0.5569160000000  0.4295660000000  0.5658820000000 1.0
C      1  0.4307120000000  0.4852040000000  0.5230650000000 1.0
C      1  0.5633610000000  0.4842080000000  0.5076810000000 1.0
C      1  0.5332010000000  0.4804340000000  0.6000000000000 1.0
C      1  0.4687200000000  0.4788020000000  0.6105340000000 1.0
C      1  0.4251770000000  0.5448520000000  0.6404230000000 1.0
C      1  0.5688370000000  0.5447190000000  0.6361920000000 1.0
C      1  0.4692600000000  0.4587280000000  0.5400550000000 1.0
C      1  0.5166510000000  0.4567600000000  0.5304030000000 1.0
C      1  0.5917870000000  0.5333140000000  0.5413520000000 1.0
C      1  0.4143230000000  0.5343490000000  0.5346090000000 1.0
C      1  0.4810050000000  0.3637380000000  0.4793640000000 1.0
C      1  0.5075130000000  0.3611000000000  0.4755120000000 1.0
C      1  0.5075970000000  0.4827070000000  0.5193700000000 1.0
C      1  0.4773890000000  0.4810690000000  0.5209160000000 1.0
C      1  0.5132800000000  0.4368200000000  0.5112250000000 1.0
C      1  0.4872030000000  0.4270660000000  0.5058230000000 1.0
C      1  0.4807840000000  0.4312530000000  0.4188850000000 1.0
C      1  0.5108860000000  0.4305410000000  0.4189640000000 1.0
C      1  0.4510370000000  0.4328600000000  0.5422720000000 1.0
C      1  0.5584190000000  0.4108500000000  0.5429320000000 1.0
C      1  0.4321310000000  0.5409020000000  0.5141220000000 1.0
C      1  0.5780350000000  0.5448950000000  0.5202550000000 1.0
C      1  0.5292340000000  0.4376320000000  0.4880980000000 1.0
C      1  0.4691430000000  0.4411350000000  0.4890240000000 1.0
C      1  0.5209790000000  0.4661330000000  0.4481870000000 1.0
C      1  0.4712150000000  0.4683670000000  0.4470210000000 1.0
C      1  0.4676490000000  0.4064100000000  0.5391950000000 1.0
C      1  0.5328160000000  0.3968180000000  0.5378520000000 1.0
END
