TITL C-3623282-6910-1624 7207.06498428588 125000 -969.709155833159 0 0 157 (C1) n - 1
REM
REM in /home/nfs/bkarasulu/CARBON/AIRSS/Generating-Clusters/LCBOP/Higher-Symm/SD-CG/FIRE-CG
REM
REM
REM
REM
REM
REM ./C.cell (b20cbc046b6831c77cfcea5457e17084)
REM AIRSS Version 0.9.1 bugfix July 2018 build 013d7b7c2542+ Fri, 06 Jul 2018 19:26:36 +0100
REM compiler GCC version 9.2.1 20190827 (Red Hat 9.2.1-1)
REM options -cpp -mtune=generic -march=x86-64 -g -O0 -fpre-include=/usr/include/finclude/math-vector-fortran.h
REM seed -607137238 -1404270390 167566615 -1478955920 -1814633328 1695626325 -579812797 -897234480 452955806 -332858509 2027618656 1910313640 1926168049 -2026095319 -1548216835 -102301815 -1222572681 -1328792993 2017082694 725616754 2058577157 -323035620 -2081647473 498674410 -937621341 -1398300155 -736052155 -301405389 613750210 -1825347275 300907985 2064309264 -382888011
REM
CELL 1.54180   50.00000   50.00000   50.00000   90.00000   90.00000   90.00000
LATT -1
SFAC C  
C      1  0.5322990000000  0.4723910000000  0.4106480000000 1.0
C      1  0.4686050000000  0.5284920000000  0.4193500000000 1.0
C      1  0.5339510000000  0.4708480000000  0.5939270000000 1.0
C      1  0.4533770000000  0.5144770000000  0.5832490000000 1.0
C      1  0.5661510000000  0.4239790000000  0.4690360000000 1.0
C      1  0.4364830000000  0.5674890000000  0.4640370000000 1.0
C      1  0.5652810000000  0.4219580000000  0.5355610000000 1.0
C      1  0.4374450000000  0.5731320000000  0.5316530000000 1.0
C      1  0.5002260000000  0.5119070000000  0.4827640000000 1.0
C      1  0.5089690000000  0.4921520000000  0.4650870000000 1.0
C      1  0.4946710000000  0.5205180000000  0.5389780000000 1.0
C      1  0.5085730000000  0.4963490000000  0.5469400000000 1.0
C      1  0.5335060000000  0.5587120000000  0.5268790000000 1.0
C      1  0.4664170000000  0.4518370000000  0.5465680000000 1.0
C      1  0.5236940000000  0.5708410000000  0.4579320000000 1.0
C      1  0.4667750000000  0.4619680000000  0.4607940000000 1.0
C      1  0.4899770000000  0.4018620000000  0.5888580000000 1.0
C      1  0.5238200000000  0.5997740000000  0.5787220000000 1.0
C      1  0.4907460000000  0.4085510000000  0.4136240000000 1.0
C      1  0.5141800000000  0.5931440000000  0.4058810000000 1.0
C      1  0.4647150000000  0.4132590000000  0.5838820000000 1.0
C      1  0.5469900000000  0.5834460000000  0.5785760000000 1.0
C      1  0.4668570000000  0.4222000000000  0.4182720000000 1.0
C      1  0.5377760000000  0.5781940000000  0.4091050000000 1.0
C      1  0.4452690000000  0.4121740000000  0.5603370000000 1.0
C      1  0.5637530000000  0.5792280000000  0.5545580000000 1.0
C      1  0.4482580000000  0.4209290000000  0.4413370000000 1.0
C      1  0.5609910000000  0.5794460000000  0.4368730000000 1.0
C      1  0.5942170000000  0.5751870000000  0.5129300000000 1.0
C      1  0.4154460000000  0.4105850000000  0.5116390000000 1.0
C      1  0.5936500000000  0.5747860000000  0.4829790000000 1.0
C      1  0.4169880000000  0.4128820000000  0.4816890000000 1.0
C      1  0.5215520000000  0.5458040000000  0.4068480000000 1.0
C      1  0.4785720000000  0.4551230000000  0.4078320000000 1.0
C      1  0.5300910000000  0.5520020000000  0.5897860000000 1.0
C      1  0.4722050000000  0.4457400000000  0.5973190000000 1.0
C      1  0.5427720000000  0.3856170000000  0.4847430000000 1.0
C      1  0.4412940000000  0.6136430000000  0.4810970000000 1.0
C      1  0.5439500000000  0.3835910000000  0.5143960000000 1.0
C      1  0.4423890000000  0.6161040000000  0.5096840000000 1.0
C      1  0.6058880000000  0.4642900000000  0.5147600000000 1.0
C      1  0.3898290000000  0.5281160000000  0.5119290000000 1.0
C      1  0.6053260000000  0.4654850000000  0.4865330000000 1.0
C      1  0.3906060000000  0.5311560000000  0.4846900000000 1.0
C      1  0.4926890000000  0.5942710000000  0.5283890000000 1.0
C      1  0.5092980000000  0.4193310000000  0.5396640000000 1.0
C      1  0.4866380000000  0.6025420000000  0.4555940000000 1.0
C      1  0.5090820000000  0.4237740000000  0.4654160000000 1.0
C      1  0.5984760000000  0.5266290000000  0.5143530000000 1.0
C      1  0.3977610000000  0.4566650000000  0.5129990000000 1.0
C      1  0.5965400000000  0.5263450000000  0.4856970000000 1.0
C      1  0.3992710000000  0.4592650000000  0.4836800000000 1.0
C      1  0.5162870000000  0.4031170000000  0.5179850000000 1.0
C      1  0.4785570000000  0.6104740000000  0.5104980000000 1.0
C      1  0.5176220000000  0.4040690000000  0.4852420000000 1.0
C      1  0.4707850000000  0.6119950000000  0.4767760000000 1.0
C      1  0.6035140000000  0.5503840000000  0.4726690000000 1.0
C      1  0.4006320000000  0.4337850000000  0.4711640000000 1.0
C      1  0.6054870000000  0.5519100000000  0.5246020000000 1.0
C      1  0.3973890000000  0.4297740000000  0.5223580000000 1.0
C      1  0.5035280000000  0.4967620000000  0.4376010000000 1.0
C      1  0.5153780000000  0.5340130000000  0.4859940000000 1.0
C      1  0.5005910000000  0.4948590000000  0.5755010000000 1.0
C      1  0.4944260000000  0.5403490000000  0.5588810000000 1.0
C      1  0.4120480000000  0.4795910000000  0.5582110000000 1.0
C      1  0.5770340000000  0.5082450000000  0.5567720000000 1.0
C      1  0.4174010000000  0.4884880000000  0.4424890000000 1.0
C      1  0.5714900000000  0.5101020000000  0.4463660000000 1.0
C      1  0.4755930000000  0.5149690000000  0.4944790000000 1.0
C      1  0.5205770000000  0.4713740000000  0.4797670000000 1.0
C      1  0.4730420000000  0.5157520000000  0.5217000000000 1.0
C      1  0.5211560000000  0.4765940000000  0.5304270000000 1.0
C      1  0.5624500000000  0.4915180000000  0.4883520000000 1.0
C      1  0.4294550000000  0.4964720000000  0.4890390000000 1.0
C      1  0.5640920000000  0.4919270000000  0.5160270000000 1.0
C      1  0.4315910000000  0.4900240000000  0.5162010000000 1.0
C      1  0.4526460000000  0.5711070000000  0.4416560000000 1.0
C      1  0.5531950000000  0.4286680000000  0.4445080000000 1.0
C      1  0.4564840000000  0.5741920000000  0.5524210000000 1.0
C      1  0.5531070000000  0.4233320000000  0.5607920000000 1.0
C      1  0.4632530000000  0.4920290000000  0.4577540000000 1.0
C      1  0.5060380000000  0.5541680000000  0.4702250000000 1.0
C      1  0.4657690000000  0.4796180000000  0.5491670000000 1.0
C      1  0.5319650000000  0.5396430000000  0.5067980000000 1.0
C      1  0.4701610000000  0.4903060000000  0.5775810000000 1.0
C      1  0.5243720000000  0.4987900000000  0.5912700000000 1.0
C      1  0.4750290000000  0.5001900000000  0.4303590000000 1.0
C      1  0.5233110000000  0.4984950000000  0.4181620000000 1.0
C      1  0.5601790000000  0.4695390000000  0.4194860000000 1.0
C      1  0.4387530000000  0.5297550000000  0.4234790000000 1.0
C      1  0.5610220000000  0.4682590000000  0.5824150000000 1.0
C      1  0.4279500000000  0.5213050000000  0.5767960000000 1.0
C      1  0.4300430000000  0.4615180000000  0.5736840000000 1.0
C      1  0.5583280000000  0.5281760000000  0.5641070000000 1.0
C      1  0.4353260000000  0.4704390000000  0.4282610000000 1.0
C      1  0.5538200000000  0.5309770000000  0.4379280000000 1.0
C      1  0.4694420000000  0.4282200000000  0.4895940000000 1.0
C      1  0.5271380000000  0.6127560000000  0.4802090000000 1.0
C      1  0.4710610000000  0.4216930000000  0.5146130000000 1.0
C      1  0.5314600000000  0.6030280000000  0.5048430000000 1.0
C      1  0.4614300000000  0.4773780000000  0.4140440000000 1.0
C      1  0.5355890000000  0.5239930000000  0.4169280000000 1.0
C      1  0.4548070000000  0.4674250000000  0.5916120000000 1.0
C      1  0.5395380000000  0.5247760000000  0.5861880000000 1.0
C      1  0.4503050000000  0.3802830000000  0.5099760000000 1.0
C      1  0.5737820000000  0.6157180000000  0.5121530000000 1.0
C      1  0.4520910000000  0.3829970000000  0.4821990000000 1.0
C      1  0.5742820000000  0.6158800000000  0.4841050000000 1.0
C      1  0.5767320000000  0.5105800000000  0.4741160000000 1.0
C      1  0.4125710000000  0.4814700000000  0.4711340000000 1.0
C      1  0.5817960000000  0.5093770000000  0.5287740000000 1.0
C      1  0.4116330000000  0.4748210000000  0.5294040000000 1.0
C      1  0.4358100000000  0.3972760000000  0.5290920000000 1.0
C      1  0.5776820000000  0.5927410000000  0.5301230000000 1.0
C      1  0.4393770000000  0.4030050000000  0.4647700000000 1.0
C      1  0.5784340000000  0.5933990000000  0.4657820000000 1.0
C      1  0.5485970000000  0.4683290000000  0.4791940000000 1.0
C      1  0.4519170000000  0.5126190000000  0.4778300000000 1.0
C      1  0.5493570000000  0.4703060000000  0.5281370000000 1.0
C      1  0.4547990000000  0.4966280000000  0.5304640000000 1.0
C      1  0.5122730000000  0.4203930000000  0.5874740000000 1.0
C      1  0.4992930000000  0.5850790000000  0.5748610000000 1.0
C      1  0.5136250000000  0.4255350000000  0.4166940000000 1.0
C      1  0.4895860000000  0.5787140000000  0.4126330000000 1.0
C      1  0.4844900000000  0.4326620000000  0.5363200000000 1.0
C      1  0.5193550000000  0.5844020000000  0.5222890000000 1.0
C      1  0.4850680000000  0.4404930000000  0.4698340000000 1.0
C      1  0.5148430000000  0.5981350000000  0.4597740000000 1.0
C      1  0.4403400000000  0.5466730000000  0.4829480000000 1.0
C      1  0.5597510000000  0.4433490000000  0.4891480000000 1.0
C      1  0.4380630000000  0.5542960000000  0.5103330000000 1.0
C      1  0.5590230000000  0.4437570000000  0.5181670000000 1.0
C      1  0.5093580000000  0.4529450000000  0.4069990000000 1.0
C      1  0.4916850000000  0.5488300000000  0.4102920000000 1.0
C      1  0.5072280000000  0.4471020000000  0.5971880000000 1.0
C      1  0.5042560000000  0.5570770000000  0.5793920000000 1.0
C      1  0.4083400000000  0.5088080000000  0.5605730000000 1.0
C      1  0.5810680000000  0.4797090000000  0.5639320000000 1.0
C      1  0.4165300000000  0.5174980000000  0.4385210000000 1.0
C      1  0.5784000000000  0.4821580000000  0.4386350000000 1.0
C      1  0.3953310000000  0.5221090000000  0.5381040000000 1.0
C      1  0.5983250000000  0.4664890000000  0.5420890000000 1.0
C      1  0.3993920000000  0.5301260000000  0.4586200000000 1.0
C      1  0.5966960000000  0.4693580000000  0.4597580000000 1.0
C      1  0.5255450000000  0.4199960000000  0.5630090000000 1.0
C      1  0.4811000000000  0.5882360000000  0.5535680000000 1.0
C      1  0.5255720000000  0.4250980000000  0.4419210000000 1.0
C      1  0.4743250000000  0.5873190000000  0.4346890000000 1.0
C      1  0.5664890000000  0.3963260000000  0.4742100000000 1.0
C      1  0.4251730000000  0.5925730000000  0.4715150000000 1.0
C      1  0.5664660000000  0.3952330000000  0.5262950000000 1.0
C      1  0.4276720000000  0.5990410000000  0.5256460000000 1.0
C      1  0.4414530000000  0.4403120000000  0.5564040000000 1.0
C      1  0.5537090000000  0.5524490000000  0.5468610000000 1.0
C      1  0.4443450000000  0.4491800000000  0.4462890000000 1.0
C      1  0.5487420000000  0.5578120000000  0.4497120000000 1.0
C      1  0.5089980000000  0.4681260000000  0.5059510000000 1.0
END
