TITL C-3623287-7182-189 0.144665668533041 125000 -697.63797963128 0 0 114 (C1) n - 1
REM
REM in /home/nfs/bkarasulu/CARBON/AIRSS/Generating-Clusters/LCBOP/Higher-Symm/SD-CG/FIRE-CG
REM
REM
REM
REM
REM
REM ./C.cell (b20cbc046b6831c77cfcea5457e17084)
REM AIRSS Version 0.9.1 bugfix July 2018 build 013d7b7c2542+ Fri, 06 Jul 2018 19:26:36 +0100
REM compiler GCC version 9.2.1 20190827 (Red Hat 9.2.1-1)
REM options -cpp -mtune=generic -march=x86-64 -g -O0 -fpre-include=/usr/include/finclude/math-vector-fortran.h
REM seed 2034625612 -2119742083 -428051890 203356813 1722184126 -1835308931 -278129195 265576305 -1121682126 765264574 -2007120170 1108829002 1316052546 825239077 -1347640254 -604748662 -735092838 -646765540 217108979 1831042695 -1689906021 1003600794 1017552574 -1540487262 10667671 -1351101155 1269023218 -2135905855 -183507238 -1301794782 605585172 1628449006 -187339839
REM
CELL 1.54180   50.00000   50.00000   50.00000   90.00000   90.00000   90.00000
LATT -1
SFAC C  
C      1  0.4759680000000  0.5595090000000  0.5283860000000 1.0
C      1  0.4706120000000  0.4547530000000  0.4949500000000 1.0
C      1  0.5745120000000  0.5679710000000  0.4814280000000 1.0
C      1  0.5697070000000  0.4418000000000  0.5289090000000 1.0
C      1  0.3952380000000  0.4577980000000  0.4568860000000 1.0
C      1  0.4243050000000  0.5750200000000  0.5054010000000 1.0
C      1  0.3807590000000  0.5706790000000  0.4756970000000 1.0
C      1  0.3652190000000  0.5008990000000  0.4542060000000 1.0
C      1  0.5147790000000  0.5169100000000  0.5400320000000 1.0
C      1  0.5152760000000  0.4824630000000  0.4510770000000 1.0
C      1  0.5702920000000  0.4999880000000  0.5801200000000 1.0
C      1  0.5719680000000  0.5032380000000  0.4180100000000 1.0
C      1  0.5626160000000  0.4295850000000  0.4814940000000 1.0
C      1  0.5677010000000  0.5684960000000  0.5300840000000 1.0
C      1  0.3775150000000  0.4774480000000  0.4555640000000 1.0
C      1  0.4013140000000  0.5790320000000  0.4902620000000 1.0
C      1  0.4846560000000  0.5485090000000  0.4626540000000 1.0
C      1  0.4880760000000  0.4605830000000  0.5389980000000 1.0
C      1  0.5116680000000  0.5393010000000  0.4571670000000 1.0
C      1  0.5150280000000  0.4675670000000  0.5434920000000 1.0
C      1  0.4722840000000  0.4472900000000  0.3802900000000 1.0
C      1  0.4842270000000  0.5117840000000  0.6287530000000 1.0
C      1  0.4659900000000  0.4651710000000  0.5215860000000 1.0
C      1  0.4609850000000  0.5539310000000  0.4754130000000 1.0
C      1  0.5281970000000  0.4745510000000  0.4237500000000 1.0
C      1  0.5218150000000  0.5179810000000  0.5687070000000 1.0
C      1  0.4960740000000  0.4385380000000  0.3963370000000 1.0
C      1  0.4880210000000  0.5286180000000  0.6040440000000 1.0
C      1  0.5712000000000  0.4584330000000  0.4845310000000 1.0
C      1  0.5735380000000  0.5410820000000  0.5183750000000 1.0
C      1  0.5220000000000  0.5136100000000  0.4653840000000 1.0
C      1  0.5266030000000  0.4902000000000  0.5305550000000 1.0
C      1  0.4539550000000  0.5420300000000  0.5222130000000 1.0
C      1  0.4555580000000  0.4602710000000  0.4712550000000 1.0
C      1  0.4671000000000  0.4008800000000  0.3678280000000 1.0
C      1  0.4678350000000  0.5520900000000  0.6499670000000 1.0
C      1  0.5304700000000  0.4543880000000  0.5635390000000 1.0
C      1  0.5321970000000  0.5585800000000  0.4525920000000 1.0
C      1  0.5433610000000  0.4013900000000  0.5181230000000 1.0
C      1  0.5474010000000  0.6045130000000  0.5043410000000 1.0
C      1  0.4823880000000  0.4781850000000  0.4133030000000 1.0
C      1  0.5036250000000  0.4841420000000  0.5959320000000 1.0
C      1  0.5073160000000  0.4622310000000  0.4082070000000 1.0
C      1  0.5016400000000  0.5109180000000  0.5860930000000 1.0
C      1  0.4431080000000  0.5543790000000  0.4983340000000 1.0
C      1  0.4495310000000  0.4881870000000  0.5285950000000 1.0
C      1  0.4564900000000  0.4172370000000  0.4418000000000 1.0
C      1  0.4592830000000  0.5875840000000  0.5695100000000 1.0
C      1  0.4692410000000  0.5049070000000  0.4795640000000 1.0
C      1  0.4875620000000  0.5098590000000  0.4984730000000 1.0
C      1  0.4830660000000  0.4101690000000  0.4350810000000 1.0
C      1  0.4831420000000  0.5764220000000  0.5808450000000 1.0
C      1  0.4877340000000  0.5137270000000  0.5267790000000 1.0
C      1  0.4843380000000  0.4846080000000  0.4408050000000 1.0
C      1  0.5251970000000  0.5441450000000  0.5294770000000 1.0
C      1  0.5220690000000  0.4573790000000  0.4711640000000 1.0
C      1  0.5505810000000  0.5757900000000  0.4652670000000 1.0
C      1  0.5497950000000  0.4364620000000  0.5515290000000 1.0
C      1  0.4588300000000  0.6138820000000  0.5564410000000 1.0
C      1  0.4340380000000  0.4013420000000  0.4323300000000 1.0
C      1  0.4434340000000  0.4402200000000  0.4557270000000 1.0
C      1  0.4366300000000  0.5744320000000  0.5557830000000 1.0
C      1  0.5063840000000  0.4610590000000  0.6351260000000 1.0
C      1  0.4395760000000  0.4849590000000  0.3880540000000 1.0
C      1  0.5967010000000  0.5017630000000  0.5393690000000 1.0
C      1  0.5937510000000  0.4990660000000  0.4625220000000 1.0
C      1  0.5421450000000  0.5658460000000  0.5436170000000 1.0
C      1  0.5360980000000  0.4290480000000  0.4683040000000 1.0
C      1  0.4588370000000  0.5153250000000  0.5317500000000 1.0
C      1  0.4646030000000  0.4851970000000  0.4604140000000 1.0
C      1  0.5368450000000  0.4903610000000  0.5043930000000 1.0
C      1  0.5359640000000  0.5149030000000  0.4906960000000 1.0
C      1  0.4420290000000  0.6140640000000  0.5342140000000 1.0
C      1  0.4100290000000  0.4136490000000  0.4379630000000 1.0
C      1  0.5002680000000  0.3999680000000  0.4546140000000 1.0
C      1  0.5075800000000  0.5868590000000  0.5698270000000 1.0
C      1  0.5209750000000  0.4603360000000  0.5900920000000 1.0
C      1  0.3924020000000  0.5081050000000  0.3875250000000 1.0
C      1  0.5641260000000  0.4194580000000  0.5086560000000 1.0
C      1  0.5699870000000  0.5855300000000  0.5069200000000 1.0
C      1  0.4817200000000  0.5571480000000  0.6026430000000 1.0
C      1  0.4918390000000  0.4124930000000  0.4079020000000 1.0
C      1  0.4612600000000  0.4272150000000  0.3638180000000 1.0
C      1  0.4735020000000  0.5255470000000  0.6508820000000 1.0
C      1  0.5939890000000  0.4896220000000  0.5143120000000 1.0
C      1  0.5941400000000  0.5127750000000  0.4872410000000 1.0
C      1  0.4143730000000  0.4385840000000  0.4516990000000 1.0
C      1  0.4291770000000  0.5881840000000  0.5302930000000 1.0
C      1  0.5320740000000  0.6088780000000  0.5283720000000 1.0
C      1  0.5257040000000  0.3927270000000  0.4978320000000 1.0
C      1  0.5509930000000  0.4872080000000  0.4142350000000 1.0
C      1  0.5481880000000  0.5148830000000  0.5779250000000 1.0
C      1  0.5275500000000  0.5898460000000  0.5497900000000 1.0
C      1  0.5206630000000  0.4052710000000  0.4727180000000 1.0
C      1  0.4944510000000  0.4850850000000  0.6246110000000 1.0
C      1  0.4631900000000  0.4715560000000  0.3931260000000 1.0
C      1  0.5213930000000  0.4473440000000  0.6160690000000 1.0
C      1  0.4158680000000  0.4967540000000  0.3871660000000 1.0
C      1  0.3662630000000  0.5519390000000  0.4637150000000 1.0
C      1  0.3609280000000  0.5269850000000  0.4564140000000 1.0
C      1  0.5893010000000  0.5102100000000  0.4372320000000 1.0
C      1  0.5902590000000  0.4909750000000  0.5644750000000 1.0
C      1  0.5394430000000  0.6001660000000  0.4770030000000 1.0
C      1  0.5394480000000  0.4095150000000  0.5454060000000 1.0
C      1  0.5882400000000  0.4712730000000  0.4646180000000 1.0
C      1  0.5918680000000  0.5291370000000  0.5376290000000 1.0
C      1  0.4828350000000  0.3932160000000  0.3887790000000 1.0
C      1  0.4717830000000  0.5670360000000  0.6276410000000 1.0
C      1  0.5821230000000  0.4635930000000  0.5128220000000 1.0
C      1  0.5860360000000  0.5414000000000  0.4904350000000 1.0
C      1  0.4978530000000  0.4503720000000  0.4879700000000 1.0
C      1  0.5015970000000  0.5598550000000  0.5210320000000 1.0
C      1  0.5437990000000  0.4702600000000  0.4874740000000 1.0
C      1  0.5447880000000  0.5343620000000  0.5092270000000 1.0
END
