TITL C-3623284-6838-637 -3.21906380993585e-07 125000 -788.697473594694 0 0 133 (C1) n - 1
REM
REM in /home/nfs/bkarasulu/CARBON/AIRSS/Generating-Clusters/LCBOP/Higher-Symm/SD-CG/FIRE-CG
REM
REM
REM
REM
REM
REM ./C.cell (b20cbc046b6831c77cfcea5457e17084)
REM AIRSS Version 0.9.1 bugfix July 2018 build 013d7b7c2542+ Fri, 06 Jul 2018 19:26:36 +0100
REM compiler GCC version 9.2.1 20190827 (Red Hat 9.2.1-1)
REM options -cpp -mtune=generic -march=x86-64 -g -O0 -fpre-include=/usr/include/finclude/math-vector-fortran.h
REM seed 1162009922 1799005539 -806877332 1204225455 -702037157 -1121544727 1731075172 -1673785907 -1673776237 108895387 -98016223 663591739 1980183911 1367778281 -1404799893 203828935 1320180731 1012061778 -729024551 617411510 -1764355376 1724666145 168928369 1065398427 -2072881020 513727071 872765148 -613178661 -786513087 -547047667 1828826407 469296094 1584669647
REM
CELL 1.54180   50.00000   50.00000   50.00000   90.00000   90.00000   90.00000
LATT -1
SFAC C  
C      1  0.4780040000000  0.4541670000000  0.5027350000000 1.0
C      1  0.4517830000000  0.5000980000000  0.4752510000000 1.0
C      1  0.4998870000000  0.4756020000000  0.4571380000000 1.0
C      1  0.5277680000000  0.4500090000000  0.4901750000000 1.0
C      1  0.5217870000000  0.5434830000000  0.5005510000000 1.0
C      1  0.4734570000000  0.5465950000000  0.4984510000000 1.0
C      1  0.5440550000000  0.5101840000000  0.5311700000000 1.0
C      1  0.5450520000000  0.4979990000000  0.4802790000000 1.0
C      1  0.4535340000000  0.5001210000000  0.5247540000000 1.0
C      1  0.4884670000000  0.4724750000000  0.5512560000000 1.0
C      1  0.4989710000000  0.5247020000000  0.4527970000000 1.0
C      1  0.4984190000000  0.5241250000000  0.5515450000000 1.0
C      1  0.5012720000000  0.4595120000000  0.4830590000000 1.0
C      1  0.4750490000000  0.5003700000000  0.4531640000000 1.0
C      1  0.4542850000000  0.4755940000000  0.5014040000000 1.0
C      1  0.4881790000000  0.4517440000000  0.5312670000000 1.0
C      1  0.4980150000000  0.5473300000000  0.5268560000000 1.0
C      1  0.4975880000000  0.5468830000000  0.4763870000000 1.0
C      1  0.5266680000000  0.5115700000000  0.5546830000000 1.0
C      1  0.4758080000000  0.5002390000000  0.5488920000000 1.0
C      1  0.5238800000000  0.4991750000000  0.4556620000000 1.0
C      1  0.5499280000000  0.4689880000000  0.4897800000000 1.0
C      1  0.4509460000000  0.5242660000000  0.4993520000000 1.0
C      1  0.5317840000000  0.5144840000000  0.5037620000000 1.0
C      1  0.4641550000000  0.4262520000000  0.4958580000000 1.0
C      1  0.4229660000000  0.4934530000000  0.4615790000000 1.0
C      1  0.4967560000000  0.4576010000000  0.4333810000000 1.0
C      1  0.5349100000000  0.4222210000000  0.5020820000000 1.0
C      1  0.5416880000000  0.5652720000000  0.4975540000000 1.0
C      1  0.4580620000000  0.5723250000000  0.5043540000000 1.0
C      1  0.5695100000000  0.4987820000000  0.5377950000000 1.0
C      1  0.5729950000000  0.5046920000000  0.4667560000000 1.0
C      1  0.4267940000000  0.5045580000000  0.5408050000000 1.0
C      1  0.5008230000000  0.4617030000000  0.5756780000000 1.0
C      1  0.5067300000000  0.5376820000000  0.4234950000000 1.0
C      1  0.4936770000000  0.5399510000000  0.5800770000000 1.0
C      1  0.4865220000000  0.4001080000000  0.4426280000000 1.0
C      1  0.4630860000000  0.4935670000000  0.4232960000000 1.0
C      1  0.4294530000000  0.4580070000000  0.4958170000000 1.0
C      1  0.5003590000000  0.4271980000000  0.5419470000000 1.0
C      1  0.4940480000000  0.5768540000000  0.5391970000000 1.0
C      1  0.5057720000000  0.5764720000000  0.4635350000000 1.0
C      1  0.5396200000000  0.4987260000000  0.5807500000000 1.0
C      1  0.4576690000000  0.5057770000000  0.5745740000000 1.0
C      1  0.5419820000000  0.5037290000000  0.4310420000000 1.0
C      1  0.5772260000000  0.4596620000000  0.5024040000000 1.0
C      1  0.4208400000000  0.5378820000000  0.5049060000000 1.0
C      1  0.6003480000000  0.5596460000000  0.4850250000000 1.0
C      1  0.4113100000000  0.4837250000000  0.5513320000000 1.0
C      1  0.4853830000000  0.5541680000000  0.4112460000000 1.0
C      1  0.5526910000000  0.4068140000000  0.4836090000000 1.0
C      1  0.5869260000000  0.4825990000000  0.4547060000000 1.0
C      1  0.5898100000000  0.5169150000000  0.5449970000000 1.0
C      1  0.4123670000000  0.5166100000000  0.4461020000000 1.0
C      1  0.5197600000000  0.5523090000000  0.5892310000000 1.0
C      1  0.5161310000000  0.4493230000000  0.4152280000000 1.0
C      1  0.4830010000000  0.4477170000000  0.5928070000000 1.0
C      1  0.4518630000000  0.4117420000000  0.5169730000000 1.0
C      1  0.4493650000000  0.5894780000000  0.4838440000000 1.0
C      1  0.5493710000000  0.5848390000000  0.5156840000000 1.0
C      1  0.5531530000000  0.4839890000000  0.4146650000000 1.0
C      1  0.4112870000000  0.5557960000000  0.4833550000000 1.0
C      1  0.4839730000000  0.4092930000000  0.5563870000000 1.0
C      1  0.4466340000000  0.4847200000000  0.5895720000000 1.0
C      1  0.5621960000000  0.5163930000000  0.5896910000000 1.0
C      1  0.4472080000000  0.5158500000000  0.4116820000000 1.0
C      1  0.5978930000000  0.5627820000000  0.5131760000000 1.0
C      1  0.4129260000000  0.4469050000000  0.5154910000000 1.0
C      1  0.5905210000000  0.4390040000000  0.4852990000000 1.0
C      1  0.5148250000000  0.4035500000000  0.4409170000000 1.0
C      1  0.4857260000000  0.5887310000000  0.4454920000000 1.0
C      1  0.5169440000000  0.5866670000000  0.5556210000000 1.0
C      1  0.5457130000000  0.5603870000000  0.5810090000000 1.0
C      1  0.5621260000000  0.5814570000000  0.5402390000000 1.0
C      1  0.5853540000000  0.5425160000000  0.5565110000000 1.0
C      1  0.4593450000000  0.5622110000000  0.4177850000000 1.0
C      1  0.4573480000000  0.4380650000000  0.5843800000000 1.0
C      1  0.5414010000000  0.4384200000000  0.4204500000000 1.0
C      1  0.4400860000000  0.5829920000000  0.4578240000000 1.0
C      1  0.4399560000000  0.4181020000000  0.5422480000000 1.0
C      1  0.5607590000000  0.4146440000000  0.4576950000000 1.0
C      1  0.4196990000000  0.5426030000000  0.4382370000000 1.0
C      1  0.4185880000000  0.4582110000000  0.5612620000000 1.0
C      1  0.5811320000000  0.4573300000000  0.4424150000000 1.0
C      1  0.5851790000000  0.5645970000000  0.5385550000000 1.0
C      1  0.5439060000000  0.5808550000000  0.5617930000000 1.0
C      1  0.5676060000000  0.5421440000000  0.5793210000000 1.0
C      1  0.4196790000000  0.5631760000000  0.4576950000000 1.0
C      1  0.5818970000000  0.4339990000000  0.4587460000000 1.0
C      1  0.4195630000000  0.4379190000000  0.5414330000000 1.0
C      1  0.4595560000000  0.5825470000000  0.4374480000000 1.0
C      1  0.5405130000000  0.4156840000000  0.4376690000000 1.0
C      1  0.4578870000000  0.4171950000000  0.5644720000000 1.0
C      1  0.4395910000000  0.5421260000000  0.4181890000000 1.0
C      1  0.5619070000000  0.4580420000000  0.4215010000000 1.0
C      1  0.4376860000000  0.4586670000000  0.5824460000000 1.0
C      1  0.4522900000000  0.4259900000000  0.4696030000000 1.0
C      1  0.4297780000000  0.4662010000000  0.4487930000000 1.0
C      1  0.4708690000000  0.4459420000000  0.4313970000000 1.0
C      1  0.5468080000000  0.4304400000000  0.5293250000000 1.0
C      1  0.5531970000000  0.5676330000000  0.4717800000000 1.0
C      1  0.4465870000000  0.5710780000000  0.5309850000000 1.0
C      1  0.5667110000000  0.4721150000000  0.5484740000000 1.0
C      1  0.5738100000000  0.5301660000000  0.4535980000000 1.0
C      1  0.4266550000000  0.5314930000000  0.5523490000000 1.0
C      1  0.5277800000000  0.4519750000000  0.5705530000000 1.0
C      1  0.5337730000000  0.5504970000000  0.4306370000000 1.0
C      1  0.4665480000000  0.5532900000000  0.5732890000000 1.0
C      1  0.4681400000000  0.4219390000000  0.4464250000000 1.0
C      1  0.4503450000000  0.4661440000000  0.4291440000000 1.0
C      1  0.4315350000000  0.4460990000000  0.4693130000000 1.0
C      1  0.5274170000000  0.4316310000000  0.5502390000000 1.0
C      1  0.4665110000000  0.5724600000000  0.5520070000000 1.0
C      1  0.5332040000000  0.5699320000000  0.4513370000000 1.0
C      1  0.5484680000000  0.4713610000000  0.5705470000000 1.0
C      1  0.4462570000000  0.5327400000000  0.5729840000000 1.0
C      1  0.5539830000000  0.5301480000000  0.4326320000000 1.0
C      1  0.5676050000000  0.4505300000000  0.5295810000000 1.0
C      1  0.4259500000000  0.5514130000000  0.5320740000000 1.0
C      1  0.5777120000000  0.5538690000000  0.4684730000000 1.0
C      1  0.3968480000000  0.5193070000000  0.5089260000000 1.0
C      1  0.5135790000000  0.5192000000000  0.3997160000000 1.0
C      1  0.6250350000000  0.5623480000000  0.4734050000000 1.0
C      1  0.5988480000000  0.4810920000000  0.5049450000000 1.0
C      1  0.3981130000000  0.4863490000000  0.4785900000000 1.0
C      1  0.4861060000000  0.5241260000000  0.6058570000000 1.0
C      1  0.4893580000000  0.6015980000000  0.5214930000000 1.0
C      1  0.5112040000000  0.4032100000000  0.5042960000000 1.0
C      1  0.5221730000000  0.4950930000000  0.6051360000000 1.0
C      1  0.4821480000000  0.4872490000000  0.3998910000000 1.0
C      1  0.4763160000000  0.3747050000000  0.4404350000000 1.0
C      1  0.5109420000000  0.5996550000000  0.4828670000000 1.0
C      1  0.5046280000000  0.4995740000000  0.5062970000000 1.0
END
