TITL C-3623284-6838-1330 -1.36727906911962e-06 125000 -353.733082199296 0 0 68 (C5) n - 1
REM
REM in /home/nfs/bkarasulu/CARBON/AIRSS/Generating-Clusters/LCBOP/Higher-Symm/SD-CG/FIRE-CG
REM
REM
REM
REM
REM
REM ./C.cell (b20cbc046b6831c77cfcea5457e17084)
REM AIRSS Version 0.9.1 bugfix July 2018 build 013d7b7c2542+ Fri, 06 Jul 2018 19:26:36 +0100
REM compiler GCC version 9.2.1 20190827 (Red Hat 9.2.1-1)
REM options -cpp -mtune=generic -march=x86-64 -g -O0 -fpre-include=/usr/include/finclude/math-vector-fortran.h
REM seed 2062177891 -1225836851 107051989 1408701119 1834189962 898983707 -1408254523 -1880073250 -1200321300 -754434070 -1446554317 -1324822766 1189126363 -469060676 1564928470 659684077 398988875 651425219 -1163331928 -1586263091 -182727030 940370815 -1556365208 114969094 -602832176 -1415715444 -1487897042 -2128477819 -303038549 555720459 -614673548 1214520078 1314027086
REM
CELL 1.54180   50.00000   50.00000   50.00000   90.00000   90.00000   90.00000
LATT -1
SFAC C  
C      1  0.4999020000000  0.5139280000000  0.4144030000000 1.0
C      1  0.5814040000000  0.5139280000000  0.4728980000000 1.0
C      1  0.5509580000000  0.5139280000000  0.5684860000000 1.0
C      1  0.4506390000000  0.5139280000000  0.5690690000000 1.0
C      1  0.4190850000000  0.5139280000000  0.4738400000000 1.0
C      1  0.4998580000000  0.4864050000000  0.4143650000000 1.0
C      1  0.5814270000000  0.4864050000000  0.4728440000000 1.0
C      1  0.5510160000000  0.4864050000000  0.5684910000000 1.0
C      1  0.4506530000000  0.4864050000000  0.5691260000000 1.0
C      1  0.4190350000000  0.4864040000000  0.4738710000000 1.0
C      1  0.4911820000000  0.4327960000000  0.5261720000000 1.0
C      1  0.4724110000000  0.4327960000000  0.4991430000000 1.0
C      1  0.4923170000000  0.4327960000000  0.4729380000000 1.0
C      1  0.5233900000000  0.4327960000000  0.4837720000000 1.0
C      1  0.5226890000000  0.4327960000000  0.5166720000000 1.0
C      1  0.4911450000000  0.5676530000000  0.5261950000000 1.0
C      1  0.4723770000000  0.5676530000000  0.4991150000000 1.0
C      1  0.4923320000000  0.5676530000000  0.4728980000000 1.0
C      1  0.5234330000000  0.5676530000000  0.4837740000000 1.0
C      1  0.5227000000000  0.5676530000000  0.5167140000000 1.0
C      1  0.5440140000000  0.4505280000000  0.5319770000000 1.0
C      1  0.4832160000000  0.4505280000000  0.5511830000000 1.0
C      1  0.4461630000000  0.4505280000000  0.4992950000000 1.0
C      1  0.4840600000000  0.4505280000000  0.4480220000000 1.0
C      1  0.5445360000000  0.4505280000000  0.4682200000000 1.0
C      1  0.5440190000000  0.5498420000000  0.5320130000000 1.0
C      1  0.4831830000000  0.5498420000000  0.5511990000000 1.0
C      1  0.4461370000000  0.5498420000000  0.4992700000000 1.0
C      1  0.4840770000000  0.5498420000000  0.4479890000000 1.0
C      1  0.5445720000000  0.5498420000000  0.4682260000000 1.0
C      1  0.5354890000000  0.5362530000000  0.5578060000000 1.0
C      1  0.4560170000000  0.5362530000000  0.5510570000000 1.0
C      1  0.4378770000000  0.5362530000000  0.4733880000000 1.0
C      1  0.5061390000000  0.5362530000000  0.4321360000000 1.0
C      1  0.5664660000000  0.5362530000000  0.4843090000000 1.0
C      1  0.5355520000000  0.4640560000000  0.5578020000000 1.0
C      1  0.4560400000000  0.4640560000000  0.5511150000000 1.0
C      1  0.4378290000000  0.4640560000000  0.4734290000000 1.0
C      1  0.5060860000000  0.4640560000000  0.4321020000000 1.0
C      1  0.5664820000000  0.4640560000000  0.4842480000000 1.0
C      1  0.5054190000000  0.5168430000000  0.5308130000000 1.0
C      1  0.4723960000000  0.5168430000000  0.5141170000000 1.0
C      1  0.4780700000000  0.5168430000000  0.4775510000000 1.0
C      1  0.5146000000000  0.5168430000000  0.4716480000000 1.0
C      1  0.5315030000000  0.5168430000000  0.5045660000000 1.0
C      1  0.5054240000000  0.4836390000000  0.5308140000000 1.0
C      1  0.4723970000000  0.4836390000000  0.5141220000000 1.0
C      1  0.4780660000000  0.4836390000000  0.4775540000000 1.0
C      1  0.5145960000000  0.4836390000000  0.4716450000000 1.0
C      1  0.5315050000000  0.4836390000000  0.5045610000000 1.0
C      1  0.4625670000000  0.5287620000000  0.4566010000000 1.0
C      1  0.5297340000000  0.5287620000000  0.4504300000000 1.0
C      1  0.5563590000000  0.5287620000000  0.5124030000000 1.0
C      1  0.5056470000000  0.5287620000000  0.5568750000000 1.0
C      1  0.4476810000000  0.5287620000000  0.5223870000000 1.0
C      1  0.4625120000000  0.4716200000000  0.4565020000000 1.0
C      1  0.5298120000000  0.4716200000000  0.4503470000000 1.0
C      1  0.5564620000000  0.4716200000000  0.5124510000000 1.0
C      1  0.5056330000000  0.4716200000000  0.5569880000000 1.0
C      1  0.4475690000000  0.4716200000000  0.5224090000000 1.0
C      1  0.5436420000000  0.4997200000000  0.4388720000000 1.0
C      1  0.5011890000000  0.4997200000000  0.5744000000000 1.0
C      1  0.4296360000000  0.4997200000000  0.5235640000000 1.0
C      1  0.5716490000000  0.4997200000000  0.5220580000000 1.0
C      1  0.4558730000000  0.4997200000000  0.4398030000000 1.0
C      1  0.5003980000000  0.4658710000000  0.4997390000000 1.0
C      1  0.5003980000000  0.5346070000000  0.4997390000000 1.0
C      1  0.5003980000000  0.5002380000000  0.4997390000000 1.0
END
