TITL C-3623287-7182-319 171046.58622969 125000 -1128.33688838581 0 0 181 (C1) n - 1
REM
REM in /home/nfs/bkarasulu/CARBON/AIRSS/Generating-Clusters/LCBOP/Higher-Symm/SD-CG/FIRE-CG
REM
REM
REM
REM
REM
REM ./C.cell (b20cbc046b6831c77cfcea5457e17084)
REM AIRSS Version 0.9.1 bugfix July 2018 build 013d7b7c2542+ Fri, 06 Jul 2018 19:26:36 +0100
REM compiler GCC version 9.2.1 20190827 (Red Hat 9.2.1-1)
REM options -cpp -mtune=generic -march=x86-64 -g -O0 -fpre-include=/usr/include/finclude/math-vector-fortran.h
REM seed -1230115662 -1622479181 289911459 -380208190 1973598825 -251604349 222094341 400503325 -1478979841 -179851783 -1630196773 -266516616 1523586906 2004077337 -88285199 1907983085 1368432984 -940251579 692179012 1936900685 888338455 1934091761 -744134913 898411161 -34670987 694412103 1979998551 -1073575230 -672431335 -1554752968 316680691 -1838054243 211076424
REM
CELL 1.54180   50.00000   50.00000   50.00000   90.00000   90.00000   90.00000
LATT -1
SFAC C  
C      1  0.4304210000000  0.4723820000000  0.3964650000000 1.0
C      1  0.4740800000000  0.5697450000000  0.3960810000000 1.0
C      1  0.5735980000000  0.5272700000000  0.3963150000000 1.0
C      1  0.5267710000000  0.4272270000000  0.3955510000000 1.0
C      1  0.4299510000000  0.4721140000000  0.6035810000000 1.0
C      1  0.4730360000000  0.5731490000000  0.6049660000000 1.0
C      1  0.5733360000000  0.5274430000000  0.6053510000000 1.0
C      1  0.5267580000000  0.4269120000000  0.6039530000000 1.0
C      1  0.5594870000000  0.5706660000000  0.4493910000000 1.0
C      1  0.5748380000000  0.4365210000000  0.4452280000000 1.0
C      1  0.4353380000000  0.4267170000000  0.4484320000000 1.0
C      1  0.4286480000000  0.5614620000000  0.4475670000000 1.0
C      1  0.5608080000000  0.5727020000000  0.5528950000000 1.0
C      1  0.5730910000000  0.4389780000000  0.5523940000000 1.0
C      1  0.4361270000000  0.4289650000000  0.5506900000000 1.0
C      1  0.4309570000000  0.5574160000000  0.5503140000000 1.0
C      1  0.4783030000000  0.5405070000000  0.5754930000000 1.0
C      1  0.5402620000000  0.5255840000000  0.5757720000000 1.0
C      1  0.5261060000000  0.4605290000000  0.5748760000000 1.0
C      1  0.4619190000000  0.4751290000000  0.5724650000000 1.0
C      1  0.4765750000000  0.5389290000000  0.4284340000000 1.0
C      1  0.5386540000000  0.5244780000000  0.4236820000000 1.0
C      1  0.5275200000000  0.4604910000000  0.4252180000000 1.0
C      1  0.4612530000000  0.4726550000000  0.4289220000000 1.0
C      1  0.5178360000000  0.4218650000000  0.5124220000000 1.0
C      1  0.4216330000000  0.4910820000000  0.5129370000000 1.0
C      1  0.4866210000000  0.5810600000000  0.5141770000000 1.0
C      1  0.5759420000000  0.5055390000000  0.5140000000000 1.0
C      1  0.5141100000000  0.4200850000000  0.4851480000000 1.0
C      1  0.4216060000000  0.4955390000000  0.4857530000000 1.0
C      1  0.4907210000000  0.5835720000000  0.4867550000000 1.0
C      1  0.5731150000000  0.5099710000000  0.4867060000000 1.0
C      1  0.5412280000000  0.3826560000000  0.4424580000000 1.0
C      1  0.3824270000000  0.4575050000000  0.4415500000000 1.0
C      1  0.4587530000000  0.6160970000000  0.4415460000000 1.0
C      1  0.6151350000000  0.5400450000000  0.4434250000000 1.0
C      1  0.5410380000000  0.3840000000000  0.5566540000000 1.0
C      1  0.3824630000000  0.4579870000000  0.5583610000000 1.0
C      1  0.4595310000000  0.6145830000000  0.5582860000000 1.0
C      1  0.6158660000000  0.5407620000000  0.5582690000000 1.0
C      1  0.4369560000000  0.4512110000000  0.4640140000000 1.0
C      1  0.4523870000000  0.5580270000000  0.4636250000000 1.0
C      1  0.5490060000000  0.5476300000000  0.4656150000000 1.0
C      1  0.5527100000000  0.4440370000000  0.4619790000000 1.0
C      1  0.4375470000000  0.4543790000000  0.5368400000000 1.0
C      1  0.4553700000000  0.5489630000000  0.5342290000000 1.0
C      1  0.5510040000000  0.5500760000000  0.5351680000000 1.0
C      1  0.5499210000000  0.4461220000000  0.5367350000000 1.0
C      1  0.4575440000000  0.5213610000000  0.5237080000000 1.0
C      1  0.5234380000000  0.5533250000000  0.5251330000000 1.0
C      1  0.5356800000000  0.4848200000000  0.5261680000000 1.0
C      1  0.4821390000000  0.4509810000000  0.5237400000000 1.0
C      1  0.4648990000000  0.5116900000000  0.4775770000000 1.0
C      1  0.5218500000000  0.5504230000000  0.4769550000000 1.0
C      1  0.5323820000000  0.4860100000000  0.4790500000000 1.0
C      1  0.4846350000000  0.4545790000000  0.4746340000000 1.0
C      1  0.4814050000000  0.5515770000000  0.5501810000000 1.0
C      1  0.5502500000000  0.5237030000000  0.5498640000000 1.0
C      1  0.5242930000000  0.4497020000000  0.5494990000000 1.0
C      1  0.4494390000000  0.4783990000000  0.5479040000000 1.0
C      1  0.4781800000000  0.5523820000000  0.4528730000000 1.0
C      1  0.5466810000000  0.5214120000000  0.4500000000000 1.0
C      1  0.5271930000000  0.4495270000000  0.4507680000000 1.0
C      1  0.4476230000000  0.4748730000000  0.4528690000000 1.0
C      1  0.4595720000000  0.5700210000000  0.5139000000000 1.0
C      1  0.5698180000000  0.5456220000000  0.5128260000000 1.0
C      1  0.5454110000000  0.4318580000000  0.5131830000000 1.0
C      1  0.4222230000000  0.4615360000000  0.5140910000000 1.0
C      1  0.4526600000000  0.5698080000000  0.4881050000000 1.0
C      1  0.5692020000000  0.5391590000000  0.4866060000000 1.0
C      1  0.5521070000000  0.4345840000000  0.4874380000000 1.0
C      1  0.4228980000000  0.4549300000000  0.4875570000000 1.0
C      1  0.6136700000000  0.5137330000000  0.4387420000000 1.0
C      1  0.5147980000000  0.3848860000000  0.4382480000000 1.0
C      1  0.3860490000000  0.4839180000000  0.4376000000000 1.0
C      1  0.4852380000000  0.6142950000000  0.4370490000000 1.0
C      1  0.6142020000000  0.5144070000000  0.5627470000000 1.0
C      1  0.5145750000000  0.3856320000000  0.5609090000000 1.0
C      1  0.3859600000000  0.4842690000000  0.5630530000000 1.0
C      1  0.4859350000000  0.6148720000000  0.5631850000000 1.0
C      1  0.4314610000000  0.5455920000000  0.5774080000000 1.0
C      1  0.5479350000000  0.5715140000000  0.5794730000000 1.0
C      1  0.5717190000000  0.4520970000000  0.5791170000000 1.0
C      1  0.4523930000000  0.4291490000000  0.5758660000000 1.0
C      1  0.4302730000000  0.5461660000000  0.4224420000000 1.0
C      1  0.5475810000000  0.5704170000000  0.4223770000000 1.0
C      1  0.5728030000000  0.4510440000000  0.4194440000000 1.0
C      1  0.4520150000000  0.4278430000000  0.4234250000000 1.0
C      1  0.5536850000000  0.5442670000000  0.4091470000000 1.0
C      1  0.5454910000000  0.4461760000000  0.4075750000000 1.0
C      1  0.4483330000000  0.4545310000000  0.4105630000000 1.0
C      1  0.4572330000000  0.5510480000000  0.4105000000000 1.0
C      1  0.5541050000000  0.5449710000000  0.5920890000000 1.0
C      1  0.5448570000000  0.4461860000000  0.5915970000000 1.0
C      1  0.4486420000000  0.4554850000000  0.5889620000000 1.0
C      1  0.4572940000000  0.5530170000000  0.5908410000000 1.0
C      1  0.4232490000000  0.4986010000000  0.5996370000000 1.0
C      1  0.4997780000000  0.5798210000000  0.6009680000000 1.0
C      1  0.5790360000000  0.5005990000000  0.6007700000000 1.0
C      1  0.5000660000000  0.4213460000000  0.5984970000000 1.0
C      1  0.4235330000000  0.4986890000000  0.4011660000000 1.0
C      1  0.5002690000000  0.5773410000000  0.4005010000000 1.0
C      1  0.5794700000000  0.5003980000000  0.4000200000000 1.0
C      1  0.5002030000000  0.4213710000000  0.4012390000000 1.0
C      1  0.5933590000000  0.4100250000000  0.4853960000000 1.0
C      1  0.4085610000000  0.4059450000000  0.4858280000000 1.0
C      1  0.4078970000000  0.5875430000000  0.4857230000000 1.0
C      1  0.5866150000000  0.5908010000000  0.4872790000000 1.0
C      1  0.5927350000000  0.4113120000000  0.5129800000000 1.0
C      1  0.4094260000000  0.4069470000000  0.5132050000000 1.0
C      1  0.4093520000000  0.5855290000000  0.5130840000000 1.0
C      1  0.5876320000000  0.5916340000000  0.5145540000000 1.0
C      1  0.4910420000000  0.5191700000000  0.5858830000000 1.0
C      1  0.5200340000000  0.5111930000000  0.5867880000000 1.0
C      1  0.5132490000000  0.4819730000000  0.5848470000000 1.0
C      1  0.4823280000000  0.4888670000000  0.5833730000000 1.0
C      1  0.4883780000000  0.5162180000000  0.4197520000000 1.0
C      1  0.5186970000000  0.5108100000000  0.4118090000000 1.0
C      1  0.5114990000000  0.4798460000000  0.4150370000000 1.0
C      1  0.4830200000000  0.4868190000000  0.4216600000000 1.0
C      1  0.5864060000000  0.5811220000000  0.5415730000000 1.0
C      1  0.5820150000000  0.4132820000000  0.5403180000000 1.0
C      1  0.4108910000000  0.4178490000000  0.5401220000000 1.0
C      1  0.4211470000000  0.5829720000000  0.5396430000000 1.0
C      1  0.5848110000000  0.5794700000000  0.4606980000000 1.0
C      1  0.5832780000000  0.4108650000000  0.4576850000000 1.0
C      1  0.4097080000000  0.4159060000000  0.4584320000000 1.0
C      1  0.4180680000000  0.5869300000000  0.4582990000000 1.0
C      1  0.3870860000000  0.5263400000000  0.5393830000000 1.0
C      1  0.5280860000000  0.6146580000000  0.5397390000000 1.0
C      1  0.6133900000000  0.4720620000000  0.5399800000000 1.0
C      1  0.4717920000000  0.3861120000000  0.5385720000000 1.0
C      1  0.3866130000000  0.5263080000000  0.4610020000000 1.0
C      1  0.5274720000000  0.6144090000000  0.4607250000000 1.0
C      1  0.6118520000000  0.4716270000000  0.4616660000000 1.0
C      1  0.4721040000000  0.3855040000000  0.4608350000000 1.0
C      1  0.3955730000000  0.5112870000000  0.5618280000000 1.0
C      1  0.5133750000000  0.6065920000000  0.5626450000000 1.0
C      1  0.6053140000000  0.4873180000000  0.5622710000000 1.0
C      1  0.4874220000000  0.3944820000000  0.5603400000000 1.0
C      1  0.3953520000000  0.5110800000000  0.4387710000000 1.0
C      1  0.5126400000000  0.6057280000000  0.4381010000000 1.0
C      1  0.6046560000000  0.4866980000000  0.4389740000000 1.0
C      1  0.4876890000000  0.3938530000000  0.4390190000000 1.0
C      1  0.4355970000000  0.6052360000000  0.5502830000000 1.0
C      1  0.6081710000000  0.5655110000000  0.5512150000000 1.0
C      1  0.5659590000000  0.3914620000000  0.5496900000000 1.0
C      1  0.3886350000000  0.4329120000000  0.5502960000000 1.0
C      1  0.4336970000000  0.6090480000000  0.4488050000000 1.0
C      1  0.6069000000000  0.5644930000000  0.4508280000000 1.0
C      1  0.5664720000000  0.3893260000000  0.4490810000000 1.0
C      1  0.3879490000000  0.4319350000000  0.4485730000000 1.0
C      1  0.4992680000000  0.5644060000000  0.4680600000000 1.0
C      1  0.5537890000000  0.5002220000000  0.4678290000000 1.0
C      1  0.5061610000000  0.4391530000000  0.4663830000000 1.0
C      1  0.4429550000000  0.4976910000000  0.4682590000000 1.0
C      1  0.5005240000000  0.5662250000000  0.5345080000000 1.0
C      1  0.5570020000000  0.5013010000000  0.5339150000000 1.0
C      1  0.5046340000000  0.4376190000000  0.5326980000000 1.0
C      1  0.4410530000000  0.5004450000000  0.5318230000000 1.0
C      1  0.3814260000000  0.5315910000000  0.4867940000000 1.0
C      1  0.5324290000000  0.6191350000000  0.4867300000000 1.0
C      1  0.6170670000000  0.4667660000000  0.4874250000000 1.0
C      1  0.4660970000000  0.3810410000000  0.4863980000000 1.0
C      1  0.3816730000000  0.5314700000000  0.5136140000000 1.0
C      1  0.5325420000000  0.6191130000000  0.5136020000000 1.0
C      1  0.6178420000000  0.4668580000000  0.5141340000000 1.0
C      1  0.4660010000000  0.3812900000000  0.5130250000000 1.0
C      1  0.5856980000000  0.4787980000000  0.5823720000000 1.0
C      1  0.4786690000000  0.4146050000000  0.5795850000000 1.0
C      1  0.4162100000000  0.5198600000000  0.5811220000000 1.0
C      1  0.5217410000000  0.5865290000000  0.5827190000000 1.0
C      1  0.5861080000000  0.4782290000000  0.4178720000000 1.0
C      1  0.4787670000000  0.4139910000000  0.4198880000000 1.0
C      1  0.4158490000000  0.5199140000000  0.4195650000000 1.0
C      1  0.5215250000000  0.5852140000000  0.4187990000000 1.0
C      1  0.4760040000000  0.5156510000000  0.5028120000000 1.0
C      1  0.5197840000000  0.4906890000000  0.5037070000000 1.0
C      1  0.4750830000000  0.4587510000000  0.4992240000000 1.0
C      1  0.5180260000000  0.5380330000000  0.5020430000000 1.0
C      1  0.5037900000000  0.5139180000000  0.5047500000000 1.0
END
