TITL C-3623288-6813-1431 -991684.394676927 125000 -1006.01364157825 0 0 166 (C1) n - 1
REM
REM in /home/nfs/bkarasulu/CARBON/AIRSS/Generating-Clusters/LCBOP/Higher-Symm/SD-CG/FIRE-CG
REM
REM
REM
REM
REM
REM ./C.cell (b20cbc046b6831c77cfcea5457e17084)
REM AIRSS Version 0.9.1 bugfix July 2018 build 013d7b7c2542+ Fri, 06 Jul 2018 19:26:36 +0100
REM compiler GCC version 9.2.1 20190827 (Red Hat 9.2.1-1)
REM options -cpp -mtune=generic -march=x86-64 -g -O0 -fpre-include=/usr/include/finclude/math-vector-fortran.h
REM seed -1094505218 -191160472 2018667899 540295315 -407695283 -325150193 -1443056264 -1647837384 -1049785861 773805854 -1058090355 -2114087282 253637169 -1874456814 -372146327 -1408497846 1858088736 -432548329 590465239 1560394489 2091743221 693078314 469193064 1153478764 -672018112 -552650982 328860375 1634184287 -450331671 -1454655953 -1373951524 1705212301 1882145525
REM
CELL 1.54180   50.00000   50.00000   50.00000   90.00000   90.00000   90.00000
LATT -1
SFAC C  
C      1  0.4735100000000  0.4158090000000  0.4672450000000 1.0
C      1  0.5714910000000  0.4465210000000  0.4712930000000 1.0
C      1  0.5735030000000  0.5513550000000  0.4705730000000 1.0
C      1  0.4732390000000  0.5841550000000  0.4724550000000 1.0
C      1  0.4069430000000  0.5004690000000  0.4744220000000 1.0
C      1  0.4540390000000  0.5894210000000  0.4928920000000 1.0
C      1  0.4024590000000  0.4787280000000  0.4931870000000 1.0
C      1  0.4881280000000  0.4009240000000  0.4859260000000 1.0
C      1  0.5901660000000  0.4548550000000  0.4915380000000 1.0
C      1  0.5691870000000  0.5717870000000  0.4897940000000 1.0
C      1  0.5414590000000  0.5519150000000  0.5243290000000 1.0
C      1  0.4683960000000  0.5559200000000  0.5233160000000 1.0
C      1  0.4454770000000  0.4839730000000  0.5126020000000 1.0
C      1  0.5016400000000  0.4325370000000  0.5204140000000 1.0
C      1  0.5607690000000  0.4773090000000  0.5208410000000 1.0
C      1  0.4172840000000  0.4498090000000  0.3928290000000 1.0
C      1  0.5273420000000  0.4077350000000  0.3884820000000 1.0
C      1  0.5918650000000  0.4903300000000  0.3930730000000 1.0
C      1  0.5327430000000  0.5870950000000  0.3919930000000 1.0
C      1  0.4245590000000  0.5558340000000  0.3975890000000 1.0
C      1  0.5169460000000  0.5234010000000  0.4801120000000 1.0
C      1  0.4863330000000  0.5206820000000  0.4822130000000 1.0
C      1  0.4834140000000  0.4911780000000  0.4850120000000 1.0
C      1  0.5070430000000  0.4736450000000  0.4810940000000 1.0
C      1  0.5293980000000  0.4949550000000  0.4789220000000 1.0
C      1  0.4034510000000  0.5102290000000  0.5850220000000 1.0
C      1  0.4604530000000  0.4104320000000  0.5873370000000 1.0
C      1  0.5700210000000  0.4343250000000  0.5937680000000 1.0
C      1  0.5846630000000  0.5493680000000  0.5902440000000 1.0
C      1  0.4795840000000  0.5999850000000  0.5948280000000 1.0
C      1  0.4646930000000  0.5483360000000  0.5498090000000 1.0
C      1  0.4610730000000  0.4992660000000  0.5293590000000 1.0
C      1  0.5002330000000  0.4375970000000  0.5478720000000 1.0
C      1  0.5534330000000  0.4825630000000  0.5473300000000 1.0
C      1  0.5343020000000  0.5495670000000  0.5516040000000 1.0
C      1  0.4399490000000  0.5391810000000  0.3836970000000 1.0
C      1  0.4391930000000  0.4582330000000  0.3802950000000 1.0
C      1  0.5230860000000  0.4308350000000  0.3760480000000 1.0
C      1  0.5693360000000  0.4967270000000  0.3804410000000 1.0
C      1  0.5204930000000  0.5668700000000  0.3798190000000 1.0
C      1  0.5545620000000  0.4624190000000  0.4543950000000 1.0
C      1  0.5536690000000  0.5396030000000  0.4539160000000 1.0
C      1  0.4784320000000  0.5605320000000  0.4570540000000 1.0
C      1  0.4299320000000  0.4980870000000  0.4568490000000 1.0
C      1  0.4804560000000  0.4403320000000  0.4546130000000 1.0
C      1  0.4413350000000  0.5253520000000  0.4588740000000 1.0
C      1  0.4533200000000  0.4517490000000  0.4513590000000 1.0
C      1  0.5315030000000  0.4440810000000  0.4511060000000 1.0
C      1  0.5648040000000  0.5124380000000  0.4508060000000 1.0
C      1  0.5078190000000  0.5632060000000  0.4533100000000 1.0
C      1  0.4786750000000  0.5374230000000  0.5058560000000 1.0
C      1  0.4581180000000  0.4800230000000  0.4877780000000 1.0
C      1  0.5097290000000  0.4537830000000  0.5039390000000 1.0
C      1  0.5479980000000  0.4917530000000  0.5016580000000 1.0
C      1  0.5273510000000  0.5377730000000  0.5048560000000 1.0
C      1  0.4808210000000  0.4808430000000  0.3670790000000 1.0
C      1  0.5096630000000  0.4769050000000  0.3658650000000 1.0
C      1  0.5224910000000  0.5030220000000  0.3669140000000 1.0
C      1  0.5015340000000  0.5232200000000  0.3675800000000 1.0
C      1  0.4758220000000  0.5095340000000  0.3679850000000 1.0
C      1  0.4685290000000  0.5339340000000  0.4611170000000 1.0
C      1  0.4463910000000  0.4763140000000  0.4623940000000 1.0
C      1  0.5054240000000  0.4540280000000  0.4575580000000 1.0
C      1  0.5484910000000  0.4899930000000  0.4560500000000 1.0
C      1  0.5257300000000  0.5417880000000  0.4578990000000 1.0
C      1  0.5500810000000  0.5080080000000  0.3634350000000 1.0
C      1  0.5049510000000  0.5508680000000  0.3628640000000 1.0
C      1  0.4505290000000  0.5216310000000  0.3645740000000 1.0
C      1  0.4613640000000  0.4607220000000  0.3632770000000 1.0
C      1  0.5229030000000  0.4529530000000  0.3588820000000 1.0
C      1  0.4112550000000  0.5682440000000  0.4169940000000 1.0
C      1  0.4008640000000  0.4401690000000  0.4114700000000 1.0
C      1  0.5318170000000  0.3897590000000  0.4075460000000 1.0
C      1  0.6108630000000  0.4879280000000  0.4115840000000 1.0
C      1  0.5407600000000  0.6043830000000  0.4105570000000 1.0
C      1  0.5788460000000  0.4793640000000  0.5642730000000 1.0
C      1  0.5366840000000  0.5704220000000  0.5712150000000 1.0
C      1  0.4458720000000  0.5663870000000  0.5643740000000 1.0
C      1  0.4151020000000  0.4612120000000  0.5677240000000 1.0
C      1  0.5103670000000  0.4220970000000  0.5693560000000 1.0
C      1  0.4036340000000  0.4355480000000  0.5697580000000 1.0
C      1  0.5252840000000  0.3983830000000  0.5683630000000 1.0
C      1  0.6047490000000  0.4948480000000  0.5641150000000 1.0
C      1  0.5371770000000  0.5983310000000  0.5674750000000 1.0
C      1  0.4165840000000  0.5673820000000  0.5609460000000 1.0
C      1  0.5253540000000  0.5241380000000  0.5604080000000 1.0
C      1  0.4865250000000  0.5425500000000  0.5661290000000 1.0
C      1  0.4815370000000  0.5041890000000  0.5471360000000 1.0
C      1  0.4832810000000  0.4583890000000  0.5558280000000 1.0
C      1  0.5256540000000  0.4803840000000  0.5532070000000 1.0
C      1  0.4285040000000  0.5005370000000  0.5945500000000 1.0
C      1  0.4741620000000  0.4338150000000  0.5983300000000 1.0
C      1  0.5550020000000  0.4576870000000  0.6013120000000 1.0
C      1  0.5589570000000  0.5411770000000  0.6010290000000 1.0
C      1  0.4783410000000  0.5731400000000  0.6055170000000 1.0
C      1  0.5820880000000  0.4575740000000  0.5193840000000 1.0
C      1  0.5653960000000  0.5659540000000  0.5176330000000 1.0
C      1  0.4603170000000  0.5838150000000  0.5204090000000 1.0
C      1  0.4177040000000  0.4794740000000  0.5180650000000 1.0
C      1  0.4877680000000  0.4085570000000  0.5132780000000 1.0
C      1  0.5820320000000  0.4303410000000  0.5660510000000 1.0
C      1  0.5932270000000  0.5586040000000  0.5622130000000 1.0
C      1  0.4725510000000  0.6079190000000  0.5662700000000 1.0
C      1  0.3977380000000  0.5039560000000  0.5562030000000 1.0
C      1  0.4582950000000  0.3997960000000  0.5584300000000 1.0
C      1  0.5818830000000  0.5714660000000  0.5399040000000 1.0
C      1  0.4555700000000  0.5925870000000  0.5495180000000 1.0
C      1  0.4087920000000  0.4798350000000  0.5459440000000 1.0
C      1  0.4741760000000  0.3965920000000  0.5352420000000 1.0
C      1  0.5880380000000  0.4523000000000  0.5492570000000 1.0
C      1  0.5595920000000  0.4079250000000  0.6003750000000 1.0
C      1  0.6062040000000  0.5303020000000  0.5972330000000 1.0
C      1  0.5046620000000  0.6145310000000  0.5993830000000 1.0
C      1  0.3935070000000  0.5367690000000  0.5893460000000 1.0
C      1  0.4327210000000  0.4077620000000  0.5971100000000 1.0
C      1  0.4542900000000  0.5542360000000  0.5947850000000 1.0
C      1  0.4314340000000  0.4710750000000  0.5905790000000 1.0
C      1  0.5046640000000  0.4361010000000  0.5945930000000 1.0
C      1  0.5674690000000  0.4840570000000  0.5936740000000 1.0
C      1  0.5344580000000  0.5599040000000  0.5988290000000 1.0
C      1  0.6093510000000  0.4949600000000  0.4625590000000 1.0
C      1  0.5365280000000  0.6025040000000  0.4617440000000 1.0
C      1  0.4140730000000  0.5657340000000  0.4685210000000 1.0
C      1  0.4090060000000  0.4351010000000  0.4617290000000 1.0
C      1  0.5319770000000  0.3946600000000  0.4587460000000 1.0
C      1  0.4932870000000  0.5622890000000  0.3408640000000 1.0
C      1  0.4361500000000  0.5164740000000  0.3418410000000 1.0
C      1  0.4636910000000  0.4435360000000  0.3420760000000 1.0
C      1  0.5355650000000  0.4511640000000  0.3346630000000 1.0
C      1  0.5584010000000  0.5237070000000  0.3425830000000 1.0
C      1  0.5520740000000  0.3942240000000  0.5756800000000 1.0
C      1  0.6168760000000  0.5184020000000  0.5729720000000 1.0
C      1  0.5185610000000  0.6183370000000  0.5739070000000 1.0
C      1  0.3942440000000  0.5510990000000  0.5639960000000 1.0
C      1  0.4140860000000  0.4101080000000  0.5749290000000 1.0
C      1  0.4368660000000  0.4300450000000  0.4602850000000 1.0
C      1  0.5426270000000  0.4203880000000  0.4615130000000 1.0
C      1  0.5900570000000  0.5155460000000  0.4632170000000 1.0
C      1  0.5119890000000  0.5891430000000  0.4638260000000 1.0
C      1  0.4197680000000  0.5384380000000  0.4718870000000 1.0
C      1  0.4271330000000  0.5847440000000  0.4848850000000 1.0
C      1  0.3986370000000  0.4528060000000  0.4815840000000 1.0
C      1  0.5109320000000  0.3873980000000  0.4760560000000 1.0
C      1  0.6089300000000  0.4742030000000  0.4819250000000 1.0
C      1  0.5571890000000  0.5954970000000  0.4797080000000 1.0
C      1  0.5342070000000  0.3830880000000  0.4332810000000 1.0
C      1  0.6195270000000  0.4894640000000  0.4368300000000 1.0
C      1  0.5427810000000  0.6121150000000  0.4360540000000 1.0
C      1  0.4057020000000  0.5730630000000  0.4426640000000 1.0
C      1  0.3957890000000  0.4334590000000  0.4368670000000 1.0
C      1  0.5048480000000  0.5581450000000  0.6063880000000 1.0
C      1  0.4520290000000  0.5187490000000  0.5906270000000 1.0
C      1  0.4577610000000  0.4587010000000  0.5955170000000 1.0
C      1  0.5251510000000  0.4576670000000  0.5982750000000 1.0
C      1  0.5548600000000  0.5115690000000  0.5989950000000 1.0
C      1  0.4737410000000  0.4736660000000  0.5775120000000 1.0
C      1  0.5211600000000  0.4813090000000  0.5822550000000 1.0
C      1  0.5292210000000  0.5088790000000  0.5863880000000 1.0
C      1  0.4964530000000  0.5360040000000  0.5903800000000 1.0
C      1  0.4712850000000  0.5017430000000  0.5743800000000 1.0
C      1  0.6157110000000  0.5410780000000  0.5552600000000 1.0
C      1  0.4958740000000  0.6219000000000  0.5560500000000 1.0
C      1  0.3899560000000  0.5293790000000  0.5449080000000 1.0
C      1  0.4293430000000  0.3976060000000  0.5538370000000 1.0
C      1  0.5725460000000  0.4042750000000  0.5574810000000 1.0
C      1  0.5101380000000  0.5041280000000  0.5448510000000 1.0
END
