TITL C-3623288-6813-1749 -9.82501939040381e-07 125000 -351.841944901495 0 0 59 (Cs) n - 1
REM
REM in /home/nfs/bkarasulu/CARBON/AIRSS/Generating-Clusters/LCBOP/Higher-Symm/SD-CG/FIRE-CG
REM
REM
REM
REM
REM
REM ./C.cell (b20cbc046b6831c77cfcea5457e17084)
REM AIRSS Version 0.9.1 bugfix July 2018 build 013d7b7c2542+ Fri, 06 Jul 2018 19:26:36 +0100
REM compiler GCC version 9.2.1 20190827 (Red Hat 9.2.1-1)
REM options -cpp -mtune=generic -march=x86-64 -g -O0 -fpre-include=/usr/include/finclude/math-vector-fortran.h
REM seed 1736556221 532660552 918031749 2143565304 1558692177 1661702169 -784304144 1029296601 -907324406 1276425058 1557897829 74675496 -1395620457 -293646422 1548375166 602923676 -1215873752 -133918265 1707189274 -1841152004 1913824211 -522397268 -1299217223 1921774920 1749733617 -1650349392 1597549499 1249379763 726569653 348379989 -1076654073 -176779785 271539655
REM
CELL 1.54180   50.00000   50.00000   50.00000   90.00000   90.00000   90.00000
LATT -1
SFAC C  
C      1  0.4493880000000  0.5062880000000  0.4235250000000 1.0
C      1  0.4479530000000  0.4364650000000  0.5378490000000 1.0
C      1  0.4512950000000  0.5607130000000  0.5463720000000 1.0
C      1  0.5545890000000  0.5062920000000  0.4235260000000 1.0
C      1  0.5560280000000  0.4364700000000  0.5378500000000 1.0
C      1  0.5526760000000  0.5607170000000  0.5463730000000 1.0
C      1  0.5328500000000  0.4859430000000  0.5720260000000 1.0
C      1  0.5328220000000  0.5711600000000  0.4659430000000 1.0
C      1  0.5330330000000  0.4328530000000  0.4619250000000 1.0
C      1  0.4711280000000  0.4859400000000  0.5720260000000 1.0
C      1  0.4711500000000  0.5711570000000  0.4659430000000 1.0
C      1  0.4709500000000  0.4328510000000  0.4619240000000 1.0
C      1  0.5324370000000  0.5550010000000  0.5631830000000 1.0
C      1  0.5328030000000  0.5212560000000  0.4185050000000 1.0
C      1  0.5328890000000  0.4257530000000  0.5293550000000 1.0
C      1  0.4715350000000  0.5549980000000  0.5631820000000 1.0
C      1  0.4711740000000  0.5212540000000  0.4185050000000 1.0
C      1  0.4710940000000  0.4257500000000  0.5293540000000 1.0
C      1  0.5683980000000  0.4984090000000  0.4450980000000 1.0
C      1  0.5699410000000  0.4582540000000  0.5307720000000 1.0
C      1  0.5654730000000  0.5490410000000  0.5259190000000 1.0
C      1  0.4355800000000  0.4984030000000  0.4450970000000 1.0
C      1  0.4340390000000  0.4582480000000  0.5307710000000 1.0
C      1  0.4385000000000  0.5490360000000  0.5259180000000 1.0
C      1  0.4746650000000  0.4468710000000  0.4861200000000 1.0
C      1  0.4745430000000  0.5078690000000  0.5548010000000 1.0
C      1  0.4747330000000  0.5437310000000  0.4607340000000 1.0
C      1  0.5293160000000  0.4468730000000  0.4861200000000 1.0
C      1  0.5294330000000  0.5078710000000  0.5548010000000 1.0
C      1  0.5292410000000  0.5437330000000  0.4607340000000 1.0
C      1  0.4885160000000  0.4696110000000  0.5845180000000 1.0
C      1  0.4885090000000  0.5913260000000  0.4701070000000 1.0
C      1  0.4885130000000  0.4228190000000  0.4441080000000 1.0
C      1  0.5154620000000  0.4696120000000  0.5845180000000 1.0
C      1  0.5154610000000  0.5913270000000  0.4701080000000 1.0
C      1  0.5154710000000  0.4228200000000  0.4441080000000 1.0
C      1  0.5163280000000  0.5359510000000  0.4359470000000 1.0
C      1  0.5162590000000  0.4329240000000  0.5079110000000 1.0
C      1  0.5164090000000  0.5318850000000  0.5650580000000 1.0
C      1  0.4876470000000  0.5359500000000  0.4359470000000 1.0
C      1  0.4877230000000  0.4329220000000  0.5079110000000 1.0
C      1  0.4875650000000  0.5318840000000  0.5650580000000 1.0
C      1  0.4760150000000  0.5249630000000  0.4806290000000 1.0
C      1  0.4769140000000  0.4747810000000  0.4863120000000 1.0
C      1  0.4769690000000  0.5053770000000  0.5268810000000 1.0
C      1  0.5279610000000  0.5249650000000  0.4806300000000 1.0
C      1  0.5270650000000  0.4747830000000  0.4863120000000 1.0
C      1  0.5270070000000  0.5053790000000  0.5268810000000 1.0
C      1  0.4356910000000  0.4979930000000  0.4717910000000 1.0
C      1  0.4360070000000  0.4800040000000  0.5154750000000 1.0
C      1  0.4378490000000  0.5278420000000  0.5097130000000 1.0
C      1  0.5682870000000  0.4979980000000  0.4717920000000 1.0
C      1  0.5679710000000  0.4800100000000  0.5154760000000 1.0
C      1  0.5661250000000  0.5278470000000  0.5097140000000 1.0
C      1  0.5019890000000  0.4856720000000  0.4809210000000 1.0
C      1  0.5019880000000  0.5144460000000  0.4881060000000 1.0
C      1  0.5019880000000  0.5111150000000  0.5170940000000 1.0
C      1  0.5510330000000  0.5001550000000  0.4986340000000 1.0
C      1  0.4529440000000  0.5001510000000  0.4986330000000 1.0
END
