TITL C-3623285-6872-1491 2.67920023064658e-06 125000 -725.728084083792 0 0 121 (C1) n - 1
REM
REM in /home/nfs/bkarasulu/CARBON/AIRSS/Generating-Clusters/LCBOP/Higher-Symm/SD-CG/FIRE-CG
REM
REM
REM
REM
REM
REM ./C.cell (b20cbc046b6831c77cfcea5457e17084)
REM AIRSS Version 0.9.1 bugfix July 2018 build 013d7b7c2542+ Fri, 06 Jul 2018 19:26:36 +0100
REM compiler GCC version 9.2.1 20190827 (Red Hat 9.2.1-1)
REM options -cpp -mtune=generic -march=x86-64 -g -O0 -fpre-include=/usr/include/finclude/math-vector-fortran.h
REM seed -19818084 -1267330773 -2017400403 -323997836 -1060804237 -301412098 -2128802782 387417208 -344234057 1568226220 -1265215262 1935288710 -787898793 -707132192 -1870530705 -1801060631 499776004 64343581 -1451072738 1786990647 -226568717 -290963762 -1177991020 1966143725 1909685334 -337900687 1018765159 903957321 -775045807 582448415 1045622015 -1234762776 1653056205
REM
CELL 1.54180   50.00000   50.00000   50.00000   90.00000   90.00000   90.00000
LATT -1
SFAC C  
C      1  0.4996640000000  0.4032000000000  0.5441750000000 1.0
C      1  0.5350630000000  0.4119450000000  0.4994040000000 1.0
C      1  0.4815130000000  0.4559580000000  0.5220060000000 1.0
C      1  0.5173720000000  0.4189180000000  0.5572050000000 1.0
C      1  0.5622580000000  0.5426640000000  0.4760580000000 1.0
C      1  0.5601890000000  0.5309380000000  0.5014140000000 1.0
C      1  0.5434140000000  0.4760520000000  0.4048950000000 1.0
C      1  0.5470500000000  0.4794090000000  0.5343980000000 1.0
C      1  0.5448540000000  0.5206160000000  0.5857110000000 1.0
C      1  0.4037890000000  0.4768820000000  0.4705480000000 1.0
C      1  0.4079070000000  0.5641350000000  0.5916180000000 1.0
C      1  0.5577920000000  0.6046720000000  0.4930200000000 1.0
C      1  0.5304630000000  0.4390310000000  0.5073540000000 1.0
C      1  0.5475160000000  0.6004360000000  0.4688190000000 1.0
C      1  0.4367100000000  0.4404420000000  0.5575060000000 1.0
C      1  0.5793260000000  0.5845990000000  0.5381080000000 1.0
C      1  0.4317560000000  0.3935500000000  0.5498200000000 1.0
C      1  0.4540120000000  0.5049090000000  0.5025420000000 1.0
C      1  0.5532810000000  0.3949180000000  0.5115360000000 1.0
C      1  0.4296570000000  0.4201290000000  0.5392790000000 1.0
C      1  0.5230360000000  0.4948620000000  0.5363210000000 1.0
C      1  0.4549110000000  0.6008840000000  0.4970800000000 1.0
C      1  0.4809090000000  0.5887880000000  0.4940920000000 1.0
C      1  0.4564520000000  0.4505080000000  0.5725250000000 1.0
C      1  0.5869870000000  0.4579440000000  0.5143710000000 1.0
C      1  0.5461850000000  0.4582820000000  0.4928600000000 1.0
C      1  0.4384060000000  0.4217570000000  0.5116490000000 1.0
C      1  0.4534230000000  0.5513500000000  0.5115790000000 1.0
C      1  0.5845740000000  0.5370290000000  0.5559380000000 1.0
C      1  0.6108510000000  0.6069270000000  0.5757460000000 1.0
C      1  0.4194830000000  0.5394080000000  0.5512460000000 1.0
C      1  0.5125920000000  0.4923240000000  0.5629230000000 1.0
C      1  0.4761490000000  0.5356280000000  0.5919840000000 1.0
C      1  0.5269300000000  0.5024050000000  0.4604350000000 1.0
C      1  0.4066920000000  0.5460360000000  0.5041070000000 1.0
C      1  0.4524810000000  0.5165780000000  0.4179710000000 1.0
C      1  0.3919000000000  0.5254090000000  0.4912780000000 1.0
C      1  0.5669690000000  0.4699550000000  0.4176420000000 1.0
C      1  0.4110300000000  0.4606110000000  0.4938750000000 1.0
C      1  0.5196680000000  0.4047970000000  0.4769180000000 1.0
C      1  0.6046110000000  0.5445400000000  0.4549290000000 1.0
C      1  0.5519800000000  0.4553110000000  0.5505880000000 1.0
C      1  0.4987130000000  0.5542320000000  0.5367830000000 1.0
C      1  0.4593630000000  0.4350730000000  0.4200940000000 1.0
C      1  0.4390280000000  0.6001060000000  0.5210000000000 1.0
C      1  0.4637360000000  0.4073880000000  0.5073170000000 1.0
C      1  0.4887760000000  0.4785030000000  0.4056860000000 1.0
C      1  0.5186930000000  0.4824340000000  0.4421890000000 1.0
C      1  0.5693530000000  0.5275320000000  0.5775730000000 1.0
C      1  0.4384720000000  0.5303220000000  0.4385040000000 1.0
C      1  0.5748650000000  0.5063560000000  0.5060350000000 1.0
C      1  0.4244610000000  0.4957600000000  0.5694250000000 1.0
C      1  0.5053490000000  0.4470340000000  0.5165570000000 1.0
C      1  0.4945820000000  0.4162020000000  0.4699310000000 1.0
C      1  0.5774930000000  0.5521170000000  0.4544920000000 1.0
C      1  0.5990860000000  0.4529920000000  0.4885680000000 1.0
C      1  0.6033550000000  0.5210530000000  0.5418780000000 1.0
C      1  0.4299050000000  0.4251060000000  0.4631950000000 1.0
C      1  0.4906300000000  0.5645090000000  0.4859370000000 1.0
C      1  0.4727510000000  0.5527120000000  0.5303020000000 1.0
C      1  0.5779030000000  0.4458350000000  0.5398070000000 1.0
C      1  0.4713630000000  0.5010290000000  0.4068650000000 1.0
C      1  0.4322450000000  0.5530930000000  0.4921850000000 1.0
C      1  0.4885280000000  0.5373490000000  0.4856490000000 1.0
C      1  0.4391590000000  0.5961680000000  0.4736590000000 1.0
C      1  0.5247220000000  0.5529580000000  0.5307610000000 1.0
C      1  0.4560280000000  0.3813480000000  0.5467900000000 1.0
C      1  0.4192950000000  0.5844090000000  0.5315480000000 1.0
C      1  0.4876260000000  0.4855970000000  0.4787940000000 1.0
C      1  0.4223990000000  0.4694680000000  0.4488880000000 1.0
C      1  0.5734350000000  0.5711730000000  0.4094180000000 1.0
C      1  0.5701380000000  0.3789110000000  0.5233120000000 1.0
C      1  0.5439970000000  0.4521740000000  0.4657870000000 1.0
C      1  0.6208540000000  0.5310700000000  0.4715650000000 1.0
C      1  0.4263870000000  0.5504580000000  0.5768080000000 1.0
C      1  0.4523750000000  0.5461350000000  0.5865270000000 1.0
C      1  0.4920910000000  0.5780970000000  0.4285850000000 1.0
C      1  0.4268880000000  0.5119070000000  0.5471190000000 1.0
C      1  0.5176610000000  0.5836200000000  0.4337560000000 1.0
C      1  0.5431260000000  0.5854650000000  0.4454250000000 1.0
C      1  0.5649650000000  0.5695440000000  0.4359090000000 1.0
C      1  0.4142820000000  0.4663810000000  0.4230830000000 1.0
C      1  0.5181920000000  0.5118980000000  0.5828270000000 1.0
C      1  0.4183820000000  0.4759490000000  0.5164430000000 1.0
C      1  0.4345230000000  0.4986710000000  0.5228130000000 1.0
C      1  0.5719980000000  0.5573260000000  0.5401560000000 1.0
C      1  0.4757280000000  0.3951780000000  0.5312200000000 1.0
C      1  0.5511720000000  0.5472130000000  0.5233210000000 1.0
C      1  0.4999330000000  0.5138500000000  0.6274010000000 1.0
C      1  0.4349350000000  0.5686480000000  0.4681070000000 1.0
C      1  0.4750830000000  0.4636930000000  0.4653490000000 1.0
C      1  0.4980420000000  0.5206070000000  0.6009050000000 1.0
C      1  0.5842320000000  0.4640780000000  0.4379140000000 1.0
C      1  0.4450340000000  0.5574580000000  0.4440000000000 1.0
C      1  0.4727270000000  0.4016450000000  0.4809500000000 1.0
C      1  0.4816030000000  0.4574660000000  0.5782080000000 1.0
C      1  0.4268120000000  0.5159400000000  0.4600280000000 1.0
C      1  0.5956640000000  0.4575460000000  0.4617960000000 1.0
C      1  0.4757440000000  0.4529670000000  0.4080030000000 1.0
C      1  0.4631720000000  0.3794810000000  0.4679050000000 1.0
C      1  0.4011670000000  0.5068710000000  0.4716850000000 1.0
C      1  0.5955640000000  0.5965650000000  0.5573590000000 1.0
C      1  0.5283460000000  0.5062880000000  0.4873380000000 1.0
C      1  0.4668660000000  0.5697720000000  0.4311480000000 1.0
C      1  0.6019060000000  0.5116810000000  0.5151360000000 1.0
C      1  0.5812030000000  0.5724060000000  0.3845730000000 1.0
C      1  0.4244990000000  0.4347130000000  0.4898800000000 1.0
C      1  0.5120600000000  0.5051780000000  0.5118460000000 1.0
C      1  0.5277640000000  0.4449320000000  0.5628600000000 1.0
C      1  0.6205510000000  0.5180850000000  0.4950720000000 1.0
C      1  0.4490540000000  0.4739800000000  0.4602840000000 1.0
C      1  0.4944570000000  0.4432650000000  0.4600020000000 1.0
C      1  0.4843460000000  0.5084660000000  0.4987290000000 1.0
C      1  0.5196290000000  0.4557740000000  0.4526820000000 1.0
C      1  0.5637060000000  0.4780210000000  0.5090400000000 1.0
C      1  0.5697340000000  0.5994420000000  0.5162280000000 1.0
C      1  0.4094470000000  0.5571110000000  0.5309790000000 1.0
C      1  0.5164720000000  0.4818190000000  0.4138120000000 1.0
C      1  0.4431630000000  0.4250130000000  0.4394240000000 1.0
C      1  0.5077230000000  0.4649230000000  0.5708500000000 1.0
C      1  0.4454880000000  0.4997190000000  0.4745480000000 1.0
END
