TITL C-3623288-6813-40 -3.10355680041141e-07 125000 -699.186348363332 0 0 115 (C5) n - 1
REM
REM in /home/nfs/bkarasulu/CARBON/AIRSS/Generating-Clusters/LCBOP/Higher-Symm/SD-CG/FIRE-CG
REM
REM
REM
REM
REM
REM ./C.cell (b20cbc046b6831c77cfcea5457e17084)
REM AIRSS Version 0.9.1 bugfix July 2018 build 013d7b7c2542+ Fri, 06 Jul 2018 19:26:36 +0100
REM compiler GCC version 9.2.1 20190827 (Red Hat 9.2.1-1)
REM options -cpp -mtune=generic -march=x86-64 -g -O0 -fpre-include=/usr/include/finclude/math-vector-fortran.h
REM seed 1252597412 -1913979139 746718009 -2130308920 -1299859217 1593167160 -1798605499 -2076462468 -1113329723 -702517044 -1714236729 -145339055 -24207781 -1720374254 1258735584 1902306800 1032175838 -1273524566 759258953 -1396213064 1632181542 1502233474 -1074128447 1666467472 -1085179820 2032469239 1093547301 -1036995524 961176028 47367828 -2073187551 292638556 1496680750
REM
CELL 1.54180   50.00000   50.00000   50.00000   90.00000   90.00000   90.00000
LATT -1
SFAC C  
C      1  0.4386050000000  0.5683110000000  0.5225590000000 1.0
C      1  0.5459960000000  0.5794980000000  0.5225620000000 1.0
C      1  0.5898210000000  0.4808200000000  0.5225590000000 1.0
C      1  0.5095160000000  0.4086470000000  0.5225550000000 1.0
C      1  0.4160590000000  0.4627190000000  0.5225550000000 1.0
C      1  0.4476670000000  0.5141020000000  0.4781580000000 1.0
C      1  0.4972390000000  0.5541300000000  0.4781610000000 1.0
C      1  0.5506270000000  0.5193540000000  0.4781610000000 1.0
C      1  0.5340510000000  0.4578320000000  0.4781580000000 1.0
C      1  0.4704180000000  0.4545860000000  0.4781560000000 1.0
C      1  0.4857240000000  0.5215320000000  0.5078230000000 1.0
C      1  0.5160670000000  0.5202310000000  0.5078240000000 1.0
C      1  0.5242060000000  0.4909710000000  0.5078230000000 1.0
C      1  0.4988930000000  0.4741890000000  0.5078220000000 1.0
C      1  0.4751100000000  0.4930760000000  0.5078220000000 1.0
C      1  0.5594160000000  0.4380640000000  0.5191070000000 1.0
C      1  0.4594560000000  0.4243520000000  0.5191040000000 1.0
C      1  0.4155260000000  0.5151820000000  0.5191060000000 1.0
C      1  0.4883350000000  0.5850300000000  0.5191110000000 1.0
C      1  0.5772640000000  0.5373680000000  0.5191110000000 1.0
C      1  0.4362250000000  0.4446840000000  0.4397580000000 1.0
C      1  0.4276820000000  0.5435630000000  0.4397620000000 1.0
C      1  0.5190820000000  0.5822430000000  0.4397650000000 1.0
C      1  0.5841130000000  0.5072700000000  0.4397640000000 1.0
C      1  0.5329050000000  0.4222530000000  0.4397590000000 1.0
C      1  0.5579350000000  0.5339010000000  0.5636950000000 1.0
C      1  0.5501460000000  0.4553730000000  0.5636920000000 1.0
C      1  0.4730550000000  0.4385150000000  0.5636890000000 1.0
C      1  0.4331990000000  0.5066230000000  0.5636910000000 1.0
C      1  0.4856580000000  0.5655750000000  0.5636950000000 1.0
C      1  0.4744840000000  0.5447010000000  0.4929640000000 1.0
C      1  0.5346290000000  0.5380810000000  0.4929650000000 1.0
C      1  0.5469170000000  0.4788340000000  0.4929630000000 1.0
C      1  0.4943680000000  0.4488390000000  0.4929610000000 1.0
C      1  0.4496020000000  0.4895470000000  0.4929610000000 1.0
C      1  0.5225090000000  0.4138910000000  0.4974090000000 1.0
C      1  0.4250610000000  0.4519840000000  0.4974090000000 1.0
C      1  0.4311760000000  0.5564330000000  0.4974130000000 1.0
C      1  0.5324030000000  0.5828940000000  0.4974160000000 1.0
C      1  0.5888500000000  0.4947980000000  0.4974140000000 1.0
C      1  0.4747600000000  0.5096350000000  0.4604620000000 1.0
C      1  0.5013630000000  0.5269840000000  0.4604640000000 1.0
C      1  0.5260840000000  0.5070440000000  0.4604630000000 1.0
C      1  0.5147590000000  0.4773710000000  0.4604620000000 1.0
C      1  0.4830390000000  0.4789730000000  0.4604610000000 1.0
C      1  0.4293410000000  0.4730510000000  0.4784980000000 1.0
C      1  0.4525340000000  0.5588740000000  0.4785020000000 1.0
C      1  0.5413250000000  0.5633370000000  0.4785040000000 1.0
C      1  0.5730070000000  0.4802710000000  0.4785010000000 1.0
C      1  0.5037970000000  0.4244710000000  0.4784980000000 1.0
C      1  0.4810360000000  0.4058260000000  0.5204090000000 1.0
C      1  0.4045750000000  0.4889330000000  0.5204100000000 1.0
C      1  0.4599870000000  0.5873330000000  0.5204160000000 1.0
C      1  0.5706950000000  0.5650410000000  0.5204170000000 1.0
C      1  0.5837040000000  0.4528630000000  0.5204130000000 1.0
C      1  0.5020310000000  0.4329290000000  0.5657000000000 1.0
C      1  0.4368410000000  0.4773390000000  0.5657010000000 1.0
C      1  0.4589320000000  0.5530620000000  0.5657040000000 1.0
C      1  0.5377760000000  0.5554520000000  0.5657060000000 1.0
C      1  0.5644120000000  0.4812050000000  0.5657040000000 1.0
C      1  0.5010490000000  0.5783920000000  0.5441220000000 1.0
C      1  0.5748800000000  0.5232240000000  0.5441220000000 1.0
C      1  0.5452280000000  0.4359590000000  0.5441170000000 1.0
C      1  0.4530710000000  0.4371940000000  0.5441150000000 1.0
C      1  0.4257670000000  0.5252220000000  0.5441180000000 1.0
C      1  0.4578840000000  0.4293420000000  0.4351590000000 1.0
C      1  0.4197850000000  0.5182230000000  0.4351610000000 1.0
C      1  0.4925420000000  0.5819240000000  0.4351660000000 1.0
C      1  0.5756080000000  0.5324120000000  0.4351660000000 1.0
C      1  0.5541880000000  0.4381110000000  0.4351610000000 1.0
C      1  0.5762590000000  0.5207110000000  0.4951660000000 1.0
C      1  0.5432630000000  0.4338730000000  0.4951610000000 1.0
C      1  0.4504790000000  0.4384210000000  0.4951590000000 1.0
C      1  0.4261320000000  0.5280690000000  0.4951630000000 1.0
C      1  0.5038680000000  0.5789270000000  0.4951660000000 1.0
C      1  0.5611510000000  0.4652090000000  0.4311540000000 1.0
C      1  0.4858070000000  0.4310950000000  0.4311510000000 1.0
C      1  0.4300800000000  0.4922090000000  0.4311520000000 1.0
C      1  0.4709820000000  0.5640940000000  0.4311560000000 1.0
C      1  0.5519880000000  0.5474070000000  0.4311580000000 1.0
C      1  0.4283920000000  0.4702340000000  0.4498580000000 1.0
C      1  0.4495620000000  0.5589080000000  0.4498620000000 1.0
C      1  0.5404370000000  0.5661760000000  0.4498640000000 1.0
C      1  0.5754320000000  0.4819940000000  0.4498620000000 1.0
C      1  0.5061840000000  0.4226990000000  0.4498580000000 1.0
C      1  0.4494610000000  0.4901320000000  0.4104990000000 1.0
C      1  0.4749950000000  0.5450210000000  0.4105010000000 1.0
C      1  0.5350890000000  0.5376980000000  0.4105030000000 1.0
C      1  0.5466940000000  0.4782830000000  0.4105000000000 1.0
C      1  0.4937730000000  0.4488850000000  0.4104980000000 1.0
C      1  0.4596420000000  0.4997080000000  0.5990310000000 1.0
C      1  0.4872530000000  0.5382880000000  0.5990330000000 1.0
C      1  0.5324770000000  0.5239500000000  0.5990340000000 1.0
C      1  0.5328160000000  0.4765080000000  0.5990320000000 1.0
C      1  0.4878010000000  0.4615260000000  0.5990300000000 1.0
C      1  0.4630080000000  0.5261180000000  0.5810030000000 1.0
C      1  0.5134100000000  0.5432480000000  0.5810050000000 1.0
C      1  0.5452770000000  0.5006070000000  0.5810040000000 1.0
C      1  0.5145700000000  0.4571220000000  0.5810010000000 1.0
C      1  0.4637250000000  0.4728890000000  0.5810010000000 1.0
C      1  0.4878400000000  0.5215890000000  0.4024230000000 1.0
C      1  0.5167720000000  0.5182410000000  0.4024230000000 1.0
C      1  0.5225290000000  0.4896910000000  0.4024220000000 1.0
C      1  0.4971550000000  0.4753930000000  0.4024210000000 1.0
C      1  0.4757160000000  0.4951070000000  0.4024220000000 1.0
C      1  0.5801840000000  0.4947480000000  0.5456910000000 1.0
C      1  0.5197840000000  0.4221150000000  0.5456870000000 1.0
C      1  0.4320420000000  0.4571140000000  0.5456860000000 1.0
C      1  0.4382140000000  0.5513770000000  0.5456900000000 1.0
C      1  0.5297710000000  0.5746360000000  0.5456930000000 1.0
C      1  0.4800990000000  0.5134210000000  0.5593380000000 1.0
C      1  0.5066160000000  0.5230710000000  0.5593390000000 1.0
C      1  0.5239880000000  0.5008340000000  0.5593380000000 1.0
C      1  0.5082070000000  0.4774410000000  0.5593370000000 1.0
C      1  0.4810820000000  0.4852200000000  0.5593370000000 1.0
END
