TITL C-3623285-6872-609 5244.38789819249 125000 -640.096165399544 0 0 107 (C1) n - 1
REM
REM in /home/nfs/bkarasulu/CARBON/AIRSS/Generating-Clusters/LCBOP/Higher-Symm/SD-CG/FIRE-CG
REM
REM
REM
REM
REM
REM ./C.cell (b20cbc046b6831c77cfcea5457e17084)
REM AIRSS Version 0.9.1 bugfix July 2018 build 013d7b7c2542+ Fri, 06 Jul 2018 19:26:36 +0100
REM compiler GCC version 9.2.1 20190827 (Red Hat 9.2.1-1)
REM options -cpp -mtune=generic -march=x86-64 -g -O0 -fpre-include=/usr/include/finclude/math-vector-fortran.h
REM seed -419721466 353585072 436710334 -1055082342 267638015 -536219382 -271279493 427522933 1252145265 979590650 458852626 -1905907653 -2121584570 1856693227 -1654418257 1116000759 629581469 -1754092278 -1863427019 1016053656 1907971271 -1880097333 -758461878 1857344779 -1787385602 1215709782 720992781 -1560439378 1558938198 -1576224080 -759082405 1559551427 -1415275912
REM
CELL 1.54180   50.00000   50.00000   50.00000   90.00000   90.00000   90.00000
LATT -1
SFAC C  
C      1  0.4573420000000  0.4211060000000  0.4640370000000 1.0
C      1  0.4424850000000  0.5578270000000  0.4587920000000 1.0
C      1  0.5818780000000  0.5431110000000  0.4659510000000 1.0
C      1  0.4608610000000  0.4168010000000  0.5394000000000 1.0
C      1  0.4443920000000  0.5551590000000  0.5328700000000 1.0
C      1  0.5836950000000  0.5398790000000  0.5374980000000 1.0
C      1  0.4742620000000  0.4178810000000  0.4398490000000 1.0
C      1  0.4390310000000  0.5402350000000  0.4355620000000 1.0
C      1  0.5648840000000  0.5492350000000  0.4426450000000 1.0
C      1  0.4804450000000  0.4124600000000  0.5610050000000 1.0
C      1  0.4390550000000  0.5380850000000  0.5563010000000 1.0
C      1  0.5681260000000  0.5447790000000  0.5620880000000 1.0
C      1  0.5093850000000  0.4542380000000  0.5323820000000 1.0
C      1  0.4756180000000  0.5061790000000  0.5312090000000 1.0
C      1  0.5374950000000  0.5089630000000  0.5323210000000 1.0
C      1  0.5104770000000  0.4551470000000  0.4667850000000 1.0
C      1  0.4763450000000  0.5077390000000  0.4671940000000 1.0
C      1  0.5383210000000  0.5097150000000  0.4687300000000 1.0
C      1  0.4742330000000  0.5165690000000  0.5827000000000 1.0
C      1  0.5414710000000  0.5103740000000  0.5850050000000 1.0
C      1  0.4970520000000  0.4521490000000  0.5848510000000 1.0
C      1  0.4770520000000  0.5179320000000  0.4149540000000 1.0
C      1  0.5431670000000  0.5131750000000  0.4164020000000 1.0
C      1  0.4968490000000  0.4542870000000  0.4148930000000 1.0
C      1  0.6429200000000  0.5008100000000  0.4762130000000 1.0
C      1  0.4092740000000  0.4766030000000  0.4905700000000 1.0
C      1  0.4863080000000  0.6244200000000  0.4516470000000 1.0
C      1  0.6123070000000  0.4737330000000  0.5195920000000 1.0
C      1  0.3904770000000  0.4524540000000  0.5537320000000 1.0
C      1  0.5096910000000  0.5901640000000  0.5093230000000 1.0
C      1  0.5042400000000  0.4623270000000  0.5593810000000 1.0
C      1  0.4840500000000  0.5064540000000  0.5582550000000 1.0
C      1  0.5325010000000  0.5020690000000  0.5594940000000 1.0
C      1  0.5056510000000  0.4638380000000  0.4400330000000 1.0
C      1  0.4854690000000  0.5082790000000  0.4402100000000 1.0
C      1  0.5340380000000  0.5034270000000  0.4413160000000 1.0
C      1  0.5730990000000  0.5586540000000  0.4885210000000 1.0
C      1  0.4687870000000  0.4059140000000  0.4860540000000 1.0
C      1  0.4293090000000  0.5461290000000  0.4815860000000 1.0
C      1  0.5747560000000  0.5579190000000  0.5168750000000 1.0
C      1  0.4703960000000  0.4047770000000  0.5148240000000 1.0
C      1  0.4302770000000  0.5444470000000  0.5100710000000 1.0
C      1  0.5526240000000  0.5749170000000  0.5276580000000 1.0
C      1  0.4950670000000  0.3888050000000  0.5220510000000 1.0
C      1  0.4165300000000  0.5188680000000  0.5182610000000 1.0
C      1  0.5494090000000  0.5755140000000  0.4807360000000 1.0
C      1  0.4919580000000  0.3901400000000  0.4748450000000 1.0
C      1  0.4150240000000  0.5214450000000  0.4720400000000 1.0
C      1  0.4649280000000  0.4067490000000  0.6315830000000 1.0
C      1  0.4420730000000  0.5687660000000  0.6219960000000 1.0
C      1  0.5976110000000  0.5299380000000  0.6268280000000 1.0
C      1  0.4462920000000  0.4232730000000  0.3730800000000 1.0
C      1  0.4504420000000  0.5687590000000  0.3700790000000 1.0
C      1  0.5933050000000  0.5469160000000  0.3759500000000 1.0
C      1  0.4878200000000  0.5059630000000  0.6047130000000 1.0
C      1  0.5239830000000  0.5018020000000  0.6054520000000 1.0
C      1  0.5005550000000  0.4716230000000  0.6051600000000 1.0
C      1  0.4914630000000  0.5070590000000  0.3937200000000 1.0
C      1  0.5274590000000  0.5028850000000  0.3951230000000 1.0
C      1  0.5034480000000  0.4727670000000  0.3942980000000 1.0
C      1  0.4180050000000  0.4541420000000  0.4791440000000 1.0
C      1  0.4710490000000  0.6035440000000  0.4549530000000 1.0
C      1  0.6183290000000  0.5080260000000  0.4859030000000 1.0
C      1  0.4133710000000  0.4411630000000  0.5484470000000 1.0
C      1  0.4855090000000  0.5867200000000  0.5199910000000 1.0
C      1  0.6105730000000  0.5000800000000  0.5122620000000 1.0
C      1  0.4881940000000  0.4603320000000  0.5135270000000 1.0
C      1  0.4915230000000  0.5225400000000  0.5138080000000 1.0
C      1  0.5440480000000  0.4871120000000  0.5146250000000 1.0
C      1  0.4889400000000  0.4611160000000  0.4851000000000 1.0
C      1  0.4918440000000  0.5235090000000  0.4855480000000 1.0
C      1  0.5445120000000  0.4875150000000  0.4860930000000 1.0
C      1  0.4345250000000  0.4367280000000  0.4675600000000 1.0
C      1  0.4563680000000  0.5817670000000  0.4584210000000 1.0
C      1  0.6010130000000  0.5233580000000  0.4699590000000 1.0
C      1  0.4363970000000  0.4293630000000  0.5427680000000 1.0
C      1  0.4639460000000  0.5748090000000  0.5301390000000 1.0
C      1  0.6006410000000  0.5189760000000  0.5305240000000 1.0
C      1  0.5359020000000  0.4611530000000  0.5244190000000 1.0
C      1  0.4691010000000  0.4797490000000  0.5230780000000 1.0
C      1  0.5180580000000  0.5278870000000  0.5237410000000 1.0
C      1  0.5368430000000  0.4617790000000  0.4753700000000 1.0
C      1  0.4704680000000  0.4811140000000  0.4752810000000 1.0
C      1  0.5187630000000  0.5287400000000  0.4768720000000 1.0
C      1  0.4616750000000  0.4275610000000  0.3936730000000 1.0
C      1  0.4531540000000  0.5532100000000  0.3908150000000 1.0
C      1  0.5776420000000  0.5415050000000  0.3960630000000 1.0
C      1  0.4743070000000  0.4163150000000  0.6092300000000 1.0
C      1  0.4470500000000  0.5523790000000  0.6023530000000 1.0
C      1  0.5809310000000  0.5296690000000  0.6068070000000 1.0
C      1  0.4995630000000  0.3937490000000  0.5497710000000 1.0
C      1  0.4207060000000  0.5176240000000  0.5465540000000 1.0
C      1  0.5512010000000  0.5676330000000  0.5553320000000 1.0
C      1  0.4933990000000  0.3972210000000  0.4473210000000 1.0
C      1  0.4199420000000  0.5201980000000  0.4439890000000 1.0
C      1  0.5468750000000  0.5702410000000  0.4525040000000 1.0
C      1  0.4839080000000  0.4268660000000  0.5852500000000 1.0
C      1  0.4532570000000  0.5358130000000  0.5808100000000 1.0
C      1  0.5636460000000  0.5284070000000  0.5849640000000 1.0
C      1  0.4775610000000  0.4331190000000  0.4159390000000 1.0
C      1  0.4562850000000  0.5372450000000  0.4134680000000 1.0
C      1  0.5619200000000  0.5348030000000  0.4181190000000 1.0
C      1  0.5364520000000  0.5835190000000  0.5053550000000 1.0
C      1  0.4101510000000  0.5041670000000  0.4944230000000 1.0
C      1  0.5062740000000  0.3800150000000  0.4973340000000 1.0
C      1  0.5070220000000  0.4903000000000  0.5610880000000 1.0
C      1  0.5086210000000  0.4918020000000  0.4386480000000 1.0
END
