TITL C-3623283-6828-34 -3174.36764953082 125000 -835.173126546608 0 0 143 (C2) n - 1
REM
REM in /home/nfs/bkarasulu/CARBON/AIRSS/Generating-Clusters/LCBOP/Higher-Symm/SD-CG/FIRE-CG
REM
REM
REM
REM
REM
REM ./C.cell (b20cbc046b6831c77cfcea5457e17084)
REM AIRSS Version 0.9.1 bugfix July 2018 build 013d7b7c2542+ Fri, 06 Jul 2018 19:26:36 +0100
REM compiler GCC version 9.2.1 20190827 (Red Hat 9.2.1-1)
REM options -cpp -mtune=generic -march=x86-64 -g -O0 -fpre-include=/usr/include/finclude/math-vector-fortran.h
REM seed 127545661 1631257165 1458931911 -872481756 2076861127 577123875 1929978373 1449483554 320041071 -114877072 -170611725 1141737601 1699487725 -127605970 1690673178 -76396464 766614115 -542018103 -800015625 1591881410 1141170967 1400174992 1065057823 293344283 -163461602 35692870 -1271511149 1824677441 1266306894 1982167169 -1847639919 -1686021518 -870908175
REM
CELL 1.54180   50.00000   50.00000   50.00000   90.00000   90.00000   90.00000
LATT -1
SFAC C  
C      1  0.4737000000000  0.4920500000000  0.4423000000000 1.0
C      1  0.5077910000000  0.5319230000000  0.4398530000000 1.0
C      1  0.5249970000000  0.4750000000000  0.4403290000000 1.0
C      1  0.4685860000000  0.5092880000000  0.5610080000000 1.0
C      1  0.5092760000000  0.4659230000000  0.5605320000000 1.0
C      1  0.5201630000000  0.5188730000000  0.5585610000000 1.0
C      1  0.4716070000000  0.4433060000000  0.5317930000000 1.0
C      1  0.4618150000000  0.5542350000000  0.5391680000000 1.0
C      1  0.5605760000000  0.5034920000000  0.5313210000000 1.0
C      1  0.4722540000000  0.5602620000000  0.4616940000000 1.0
C      1  0.4668100000000  0.4493610000000  0.4695390000000 1.0
C      1  0.5634200000000  0.4963110000000  0.4690670000000 1.0
C      1  0.3991670000000  0.5063010000000  0.5583150000000 1.0
C      1  0.5551220000000  0.5826200000000  0.5566950000000 1.0
C      1  0.5451160000000  0.4107290000000  0.5586430000000 1.0
C      1  0.4010130000000  0.4936530000000  0.4441660000000 1.0
C      1  0.5548730000000  0.4163630000000  0.4422150000000 1.0
C      1  0.5450910000000  0.5905460000000  0.4425460000000 1.0
C      1  0.5584710000000  0.4794050000000  0.5896770000000 1.0
C      1  0.4531260000000  0.4593290000000  0.5898700000000 1.0
C      1  0.4886420000000  0.5610370000000  0.5907220000000 1.0
C      1  0.5587860000000  0.5203290000000  0.4109900000000 1.0
C      1  0.4529480000000  0.5404320000000  0.4101390000000 1.0
C      1  0.4887210000000  0.4391400000000  0.4111830000000 1.0
C      1  0.5558290000000  0.4256540000000  0.5366260000000 1.0
C      1  0.4088230000000  0.4897780000000  0.5370870000000 1.0
C      1  0.5351230000000  0.5822570000000  0.5360940000000 1.0
C      1  0.5545720000000  0.5739210000000  0.4637750000000 1.0
C      1  0.4113290000000  0.5107910000000  0.4647680000000 1.0
C      1  0.5365910000000  0.4145480000000  0.4642330000000 1.0
C      1  0.4701040000000  0.5975280000000  0.5225270000000 1.0
C      1  0.5987810000000  0.4787540000000  0.5220900000000 1.0
C      1  0.4305150000000  0.4258170000000  0.5225370000000 1.0
C      1  0.4691290000000  0.4039060000000  0.4787690000000 1.0
C      1  0.5991140000000  0.5231510000000  0.4783240000000 1.0
C      1  0.4306170000000  0.5747330000000  0.4783350000000 1.0
C      1  0.4799950000000  0.4026300000000  0.5085390000000 1.0
C      1  0.4257460000000  0.5660390000000  0.5086000000000 1.0
C      1  0.5914090000000  0.5321700000000  0.5075720000000 1.0
C      1  0.4800680000000  0.5974000000000  0.4922620000000 1.0
C      1  0.4265570000000  0.4370000000000  0.4932880000000 1.0
C      1  0.5944530000000  0.4687080000000  0.4923230000000 1.0
C      1  0.5823300000000  0.5264140000000  0.4253910000000 1.0
C      1  0.4812450000000  0.4159840000000  0.4257670000000 1.0
C      1  0.4354490000000  0.5581220000000  0.4242440000000 1.0
C      1  0.5822620000000  0.4743000000000  0.5750930000000 1.0
C      1  0.4820730000000  0.5850370000000  0.5766180000000 1.0
C      1  0.4360830000000  0.4419840000000  0.5754690000000 1.0
C      1  0.5563520000000  0.3988960000000  0.4214110000000 1.0
C      1  0.3834530000000  0.5001960000000  0.4245550000000 1.0
C      1  0.5600540000000  0.6022290000000  0.4231270000000 1.0
C      1  0.5582380000000  0.6010980000000  0.5763070000000 1.0
C      1  0.3815670000000  0.4991860000000  0.5777350000000 1.0
C      1  0.5595030000000  0.4007140000000  0.5794470000000 1.0
C      1  0.4871360000000  0.5962140000000  0.5485330000000 1.0
C      1  0.5907990000000  0.4638310000000  0.5477290000000 1.0
C      1  0.4227050000000  0.4405820000000  0.5482460000000 1.0
C      1  0.4860430000000  0.4033560000000  0.4531310000000 1.0
C      1  0.5902340000000  0.5372980000000  0.4526140000000 1.0
C      1  0.4232380000000  0.5593260000000  0.4523290000000 1.0
C      1  0.4706770000000  0.5108920000000  0.5909210000000 1.0
C      1  0.5233390000000  0.5184590000000  0.5886940000000 1.0
C      1  0.5050780000000  0.4681730000000  0.5901860000000 1.0
C      1  0.4724700000000  0.4890940000000  0.4121660000000 1.0
C      1  0.5251480000000  0.4797620000000  0.4106740000000 1.0
C      1  0.5053560000000  0.5309150000000  0.4099400000000 1.0
C      1  0.4479600000000  0.5774820000000  0.5269240000000 1.0
C      1  0.5883310000000  0.5069460000000  0.5240050000000 1.0
C      1  0.4593530000000  0.4177670000000  0.5252640000000 1.0
C      1  0.4499410000000  0.4270520000000  0.4768560000000 1.0
C      1  0.5916650000000  0.4941530000000  0.4755960000000 1.0
C      1  0.4590500000000  0.5838850000000  0.4739380000000 1.0
C      1  0.5652900000000  0.4524590000000  0.5392720000000 1.0
C      1  0.4267600000000  0.4681990000000  0.5398530000000 1.0
C      1  0.5077160000000  0.5771230000000  0.5403500000000 1.0
C      1  0.5642900000000  0.5475970000000  0.4610080000000 1.0
C      1  0.4294790000000  0.5319570000000  0.4605120000000 1.0
C      1  0.5086470000000  0.4197600000000  0.4615870000000 1.0
C      1  0.5217520000000  0.4732690000000  0.5359500000000 1.0
C      1  0.4679380000000  0.4945760000000  0.5368050000000 1.0
C      1  0.5060220000000  0.5279870000000  0.5350560000000 1.0
C      1  0.5208560000000  0.5251270000000  0.4640550000000 1.0
C      1  0.4728780000000  0.5088540000000  0.4658050000000 1.0
C      1  0.5123970000000  0.4678700000000  0.4649100000000 1.0
C      1  0.5748390000000  0.5561140000000  0.5209070000000 1.0
C      1  0.5114670000000  0.4039930000000  0.5232980000000 1.0
C      1  0.4121040000000  0.5380080000000  0.5233530000000 1.0
C      1  0.5775310000000  0.4421320000000  0.4775590000000 1.0
C      1  0.5111650000000  0.5951970000000  0.4775090000000 1.0
C      1  0.4141080000000  0.4633240000000  0.4799540000000 1.0
C      1  0.5421350000000  0.4141160000000  0.5130120000000 1.0
C      1  0.4081930000000  0.5075400000000  0.5134540000000 1.0
C      1  0.5507930000000  0.5749580000000  0.5120280000000 1.0
C      1  0.5395050000000  0.5833470000000  0.4874080000000 1.0
C      1  0.4098130000000  0.4935710000000  0.4888340000000 1.0
C      1  0.5534310000000  0.4206370000000  0.4878470000000 1.0
C      1  0.5695010000000  0.5409170000000  0.5735290000000 1.0
C      1  0.5019270000000  0.4173250000000  0.5776250000000 1.0
C      1  0.4276100000000  0.5388160000000  0.5779390000000 1.0
C      1  0.5707570000000  0.4570630000000  0.4232350000000 1.0
C      1  0.5027100000000  0.5821730000000  0.4229220000000 1.0
C      1  0.4299370000000  0.4603480000000  0.4273310000000 1.0
C      1  0.5430470000000  0.5172700000000  0.5144220000000 1.0
C      1  0.4932870000000  0.4479640000000  0.5140270000000 1.0
C      1  0.4571660000000  0.5344920000000  0.5188310000000 1.0
C      1  0.5485460000000  0.4798660000000  0.4868330000000 1.0
C      1  0.4916750000000  0.5544150000000  0.4820300000000 1.0
C      1  0.4636450000000  0.4714310000000  0.4864390000000 1.0
C      1  0.4957950000000  0.4683520000000  0.4049060000000 1.0
C      1  0.4755000000000  0.5201090000000  0.4047720000000 1.0
C      1  0.5302370000000  0.5110610000000  0.4047610000000 1.0
C      1  0.4949640000000  0.5313440000000  0.5960890000000 1.0
C      1  0.4754280000000  0.4794170000000  0.5960990000000 1.0
C      1  0.5296360000000  0.4878870000000  0.5959540000000 1.0
C      1  0.4128780000000  0.4671110000000  0.4490920000000 1.0
C      1  0.5157740000000  0.5934170000000  0.4458830000000 1.0
C      1  0.5725730000000  0.4397880000000  0.4459950000000 1.0
C      1  0.4113400000000  0.5331260000000  0.5549780000000 1.0
C      1  0.5159800000000  0.4071150000000  0.5548630000000 1.0
C      1  0.5721750000000  0.5590730000000  0.5517690000000 1.0
C      1  0.4588100000000  0.5338890000000  0.4591850000000 1.0
C      1  0.5500080000000  0.5222350000000  0.4626380000000 1.0
C      1  0.4945470000000  0.4455230000000  0.4627500000000 1.0
C      1  0.4558640000000  0.4678850000000  0.5382220000000 1.0
C      1  0.5500310000000  0.4775530000000  0.5381100000000 1.0
C      1  0.4913760000000  0.5526890000000  0.5416760000000 1.0
C      1  0.4462000000000  0.4735840000000  0.4097970000000 1.0
C      1  0.5051980000000  0.5613230000000  0.4049920000000 1.0
C      1  0.5519890000000  0.4656040000000  0.4048440000000 1.0
C      1  0.4444230000000  0.5262350000000  0.5958700000000 1.0
C      1  0.5039170000000  0.4378500000000  0.5960170000000 1.0
C      1  0.5499060000000  0.5334530000000  0.5910630000000 1.0
C      1  0.4520860000000  0.5077310000000  0.5142910000000 1.0
C      1  0.5245900000000  0.5385650000000  0.5139370000000 1.0
C      1  0.5213830000000  0.4514620000000  0.5141330000000 1.0
C      1  0.4544320000000  0.4980630000000  0.4869240000000 1.0
C      1  0.5314670000000  0.4572830000000  0.4867270000000 1.0
C      1  0.5173910000000  0.5454320000000  0.4865700000000 1.0
C      1  0.4762630000000  0.5412630000000  0.5004310000000 1.0
C      1  0.4860060000000  0.4735060000000  0.5030150000000 1.0
C      1  0.5300680000000  0.4989430000000  0.4978450000000 1.0
C      1  0.4944080000000  0.4936810000000  0.5239500000000 1.0
C      1  0.5083950000000  0.5017560000000  0.4769110000000 1.0
END
