TITL C-3623284-6838-108 -181960.512815102 125000 -905.383700652656 0 0 147 (C1) n - 1
REM
REM in /home/nfs/bkarasulu/CARBON/AIRSS/Generating-Clusters/LCBOP/Higher-Symm/SD-CG/FIRE-CG
REM
REM
REM
REM
REM
REM ./C.cell (b20cbc046b6831c77cfcea5457e17084)
REM AIRSS Version 0.9.1 bugfix July 2018 build 013d7b7c2542+ Fri, 06 Jul 2018 19:26:36 +0100
REM compiler GCC version 9.2.1 20190827 (Red Hat 9.2.1-1)
REM options -cpp -mtune=generic -march=x86-64 -g -O0 -fpre-include=/usr/include/finclude/math-vector-fortran.h
REM seed 375758197 1346085803 -202411764 -650390941 1818445238 -1979439970 373368206 28715644 33483379 -323577154 1296453693 404495824 121933299 -978308139 1729246972 1336216293 1011621329 -824585621 1364244574 1022515580 -719006788 -1948968685 2039536360 131107553 2072149835 -773698609 1436246199 -2057076100 1512852940 824838870 -1132001397 -691600554 879394936
REM
CELL 1.54180   50.00000   50.00000   50.00000   90.00000   90.00000   90.00000
LATT -1
SFAC C  
C      1  0.5605370000000  0.5225770000000  0.5375730000000 1.0
C      1  0.4340660000000  0.5261300000000  0.4659420000000 1.0
C      1  0.4568670000000  0.4845570000000  0.5382330000000 1.0
C      1  0.5604080000000  0.4785440000000  0.4652690000000 1.0
C      1  0.4428680000000  0.5367990000000  0.4917500000000 1.0
C      1  0.5541350000000  0.5315440000000  0.5103380000000 1.0
C      1  0.5525230000000  0.4690630000000  0.4916750000000 1.0
C      1  0.4473390000000  0.4636070000000  0.4891410000000 1.0
C      1  0.4304790000000  0.4864210000000  0.5322290000000 1.0
C      1  0.5850850000000  0.4812010000000  0.4517410000000 1.0
C      1  0.5853960000000  0.5198610000000  0.5508070000000 1.0
C      1  0.4087630000000  0.5225750000000  0.4540280000000 1.0
C      1  0.5043640000000  0.5291110000000  0.4616870000000 1.0
C      1  0.4979660000000  0.5295880000000  0.5405540000000 1.0
C      1  0.4912610000000  0.4646010000000  0.4608720000000 1.0
C      1  0.5037290000000  0.4720250000000  0.5379220000000 1.0
C      1  0.5151900000000  0.5175650000000  0.5601230000000 1.0
C      1  0.4724730000000  0.5149880000000  0.4352550000000 1.0
C      1  0.4821610000000  0.4808030000000  0.5761020000000 1.0
C      1  0.5201940000000  0.4892320000000  0.4389950000000 1.0
C      1  0.4255740000000  0.5503060000000  0.5136200000000 1.0
C      1  0.5720190000000  0.5465140000000  0.4894670000000 1.0
C      1  0.5710370000000  0.4548920000000  0.5124320000000 1.0
C      1  0.4242770000000  0.4473660000000  0.4789990000000 1.0
C      1  0.5090340000000  0.5165040000000  0.5169610000000 1.0
C      1  0.4843750000000  0.5201970000000  0.4808680000000 1.0
C      1  0.4798900000000  0.4797850000000  0.5198740000000 1.0
C      1  0.5060280000000  0.4791710000000  0.4805350000000 1.0
C      1  0.4411840000000  0.4069510000000  0.5239480000000 1.0
C      1  0.5585410000000  0.4063030000000  0.4766590000000 1.0
C      1  0.5597450000000  0.5950130000000  0.5256650000000 1.0
C      1  0.4416200000000  0.5958250000000  0.4775830000000 1.0
C      1  0.4856870000000  0.5561020000000  0.5867010000000 1.0
C      1  0.5152090000000  0.5533420000000  0.4161090000000 1.0
C      1  0.5179050000000  0.4476260000000  0.5876490000000 1.0
C      1  0.4851270000000  0.4448580000000  0.4146500000000 1.0
C      1  0.4474670000000  0.5173880000000  0.5923570000000 1.0
C      1  0.5551620000000  0.5142640000000  0.4134110000000 1.0
C      1  0.5565490000000  0.4881300000000  0.5876260000000 1.0
C      1  0.4458100000000  0.4831120000000  0.4102850000000 1.0
C      1  0.5155010000000  0.5544000000000  0.4685420000000 1.0
C      1  0.4851540000000  0.5542610000000  0.5335140000000 1.0
C      1  0.4836150000000  0.4373550000000  0.4671400000000 1.0
C      1  0.5149340000000  0.4463270000000  0.5324160000000 1.0
C      1  0.4520710000000  0.5325970000000  0.4437590000000 1.0
C      1  0.5411080000000  0.5309170000000  0.5579860000000 1.0
C      1  0.5410410000000  0.4706010000000  0.4447960000000 1.0
C      1  0.4605240000000  0.4708460000000  0.5628410000000 1.0
C      1  0.4390750000000  0.4205400000000  0.4737880000000 1.0
C      1  0.5575290000000  0.4285030000000  0.5225220000000 1.0
C      1  0.5579860000000  0.5728230000000  0.4797830000000 1.0
C      1  0.4423870000000  0.5747800000000  0.5239660000000 1.0
C      1  0.5070620000000  0.5739450000000  0.5782220000000 1.0
C      1  0.4922970000000  0.5703450000000  0.4245760000000 1.0
C      1  0.4943730000000  0.4304780000000  0.5784740000000 1.0
C      1  0.5070560000000  0.4274780000000  0.4228400000000 1.0
C      1  0.4726030000000  0.6118800000000  0.5055000000000 1.0
C      1  0.5293460000000  0.6111880000000  0.4970510000000 1.0
C      1  0.5283920000000  0.3897810000000  0.5054090000000 1.0
C      1  0.4710580000000  0.3868700000000  0.4968500000000 1.0
C      1  0.4731940000000  0.5117460000000  0.6061990000000 1.0
C      1  0.5306440000000  0.5077080000000  0.3990680000000 1.0
C      1  0.5333160000000  0.4948440000000  0.6037540000000 1.0
C      1  0.4712500000000  0.4904570000000  0.3978990000000 1.0
C      1  0.6040290000000  0.5192370000000  0.4660540000000 1.0
C      1  0.3976070000000  0.5170510000000  0.5343530000000 1.0
C      1  0.3953980000000  0.4799810000000  0.4610210000000 1.0
C      1  0.6039010000000  0.4821380000000  0.5350940000000 1.0
C      1  0.5501640000000  0.4431000000000  0.4394360000000 1.0
C      1  0.4494220000000  0.4445960000000  0.5624120000000 1.0
C      1  0.4454090000000  0.5605310000000  0.4390120000000 1.0
C      1  0.5509110000000  0.5583080000000  0.5631540000000 1.0
C      1  0.4186080000000  0.5675540000000  0.4505200000000 1.0
C      1  0.5783130000000  0.5634160000000  0.5522790000000 1.0
C      1  0.5775710000000  0.4375190000000  0.4497200000000 1.0
C      1  0.4236430000000  0.4415440000000  0.5492760000000 1.0
C      1  0.5963280000000  0.5578090000000  0.5315740000000 1.0
C      1  0.4007980000000  0.5619230000000  0.4717070000000 1.0
C      1  0.4074350000000  0.4455630000000  0.5274100000000 1.0
C      1  0.5955880000000  0.4430950000000  0.4703110000000 1.0
C      1  0.4392610000000  0.5359600000000  0.5709810000000 1.0
C      1  0.5614470000000  0.5338660000000  0.4340110000000 1.0
C      1  0.5620430000000  0.4680550000000  0.5673140000000 1.0
C      1  0.4378550000000  0.4623490000000  0.4291670000000 1.0
C      1  0.4622260000000  0.5671570000000  0.5445930000000 1.0
C      1  0.5385750000000  0.5671320000000  0.4582150000000 1.0
C      1  0.5380230000000  0.4348980000000  0.5438270000000 1.0
C      1  0.4605130000000  0.4269500000000  0.4543070000000 1.0
C      1  0.6086150000000  0.5154800000000  0.4952450000000 1.0
C      1  0.3910290000000  0.5168000000000  0.5051850000000 1.0
C      1  0.3930470000000  0.4839030000000  0.4907990000000 1.0
C      1  0.6081660000000  0.4857900000000  0.5059330000000 1.0
C      1  0.4858710000000  0.4849870000000  0.6036170000000 1.0
C      1  0.5187690000000  0.4810120000000  0.3944700000000 1.0
C      1  0.5206890000000  0.5213800000000  0.6075980000000 1.0
C      1  0.4832710000000  0.5171080000000  0.3924360000000 1.0
C      1  0.4189680000000  0.5362480000000  0.5423860000000 1.0
C      1  0.5786840000000  0.5337160000000  0.4603090000000 1.0
C      1  0.5785490000000  0.4678900000000  0.5410720000000 1.0
C      1  0.4172790000000  0.4619470000000  0.4520630000000 1.0
C      1  0.4459990000000  0.4023460000000  0.4954610000000 1.0
C      1  0.5527020000000  0.4061250000000  0.5051000000000 1.0
C      1  0.5536820000000  0.5950610000000  0.4972910000000 1.0
C      1  0.4478140000000  0.5966930000000  0.5058970000000 1.0
C      1  0.5181760000000  0.6123750000000  0.5245880000000 1.0
C      1  0.4837850000000  0.6117350000000  0.4778470000000 1.0
C      1  0.4825140000000  0.3886100000000  0.5244250000000 1.0
C      1  0.5171310000000  0.3882800000000  0.4777790000000 1.0
C      1  0.4869110000000  0.4365810000000  0.4954650000000 1.0
C      1  0.5127140000000  0.4407760000000  0.5051230000000 1.0
C      1  0.5132350000000  0.5576620000000  0.4962500000000 1.0
C      1  0.4870460000000  0.5588130000000  0.5060100000000 1.0
C      1  0.4031710000000  0.4566430000000  0.5009810000000 1.0
C      1  0.5978520000000  0.4585220000000  0.4952290000000 1.0
C      1  0.5989090000000  0.5428920000000  0.5062360000000 1.0
C      1  0.3981760000000  0.5462430000000  0.4970440000000 1.0
C      1  0.4906710000000  0.6174110000000  0.5262460000000 1.0
C      1  0.5113860000000  0.6162200000000  0.4760870000000 1.0
C      1  0.5102720000000  0.3845730000000  0.5262520000000 1.0
C      1  0.4898170000000  0.3816050000000  0.4764310000000 1.0
C      1  0.5272190000000  0.5349060000000  0.5064990000000 1.0
C      1  0.4699250000000  0.5411090000000  0.4922440000000 1.0
C      1  0.4690320000000  0.4567550000000  0.5048130000000 1.0
C      1  0.5256050000000  0.4626750000000  0.4922730000000 1.0
C      1  0.5424080000000  0.4463310000000  0.5695760000000 1.0
C      1  0.4584730000000  0.4410980000000  0.4290850000000 1.0
C      1  0.4596090000000  0.5571240000000  0.5709000000000 1.0
C      1  0.5414120000000  0.5555500000000  0.4321460000000 1.0
C      1  0.5303320000000  0.4221980000000  0.4388280000000 1.0
C      1  0.4699450000000  0.4237750000000  0.5625360000000 1.0
C      1  0.4682420000000  0.5785420000000  0.4391850000000 1.0
C      1  0.5311340000000  0.5792250000000  0.5632830000000 1.0
C      1  0.3917410000000  0.5035340000000  0.4467290000000 1.0
C      1  0.6071870000000  0.5044300000000  0.5512020000000 1.0
C      1  0.6067500000000  0.4966500000000  0.4501810000000 1.0
C      1  0.4063970000000  0.4918580000000  0.5424550000000 1.0
C      1  0.4651940000000  0.4043610000000  0.5414850000000 1.0
C      1  0.5345630000000  0.4026570000000  0.4595500000000 1.0
C      1  0.5358560000000  0.5986050000000  0.5427670000000 1.0
C      1  0.4655910000000  0.5980980000000  0.4600990000000 1.0
C      1  0.5097100000000  0.5288470000000  0.3993480000000 1.0
C      1  0.4934670000000  0.5326140000000  0.6032930000000 1.0
C      1  0.4920660000000  0.4697420000000  0.4000100000000 1.0
C      1  0.5132850000000  0.4729400000000  0.6059360000000 1.0
C      1  0.5006470000000  0.5102120000000  0.4409800000000 1.0
C      1  0.5051760000000  0.4895790000000  0.5605180000000 1.0
C      1  0.4931670000000  0.4989470000000  0.4994190000000 1.0
END
