TITL C-3623285-6872-981 -5.57329354430291e-07 125000 -127.820113719268 0 0 22 (C1) n - 1
REM
REM in /home/nfs/bkarasulu/CARBON/AIRSS/Generating-Clusters/LCBOP/Higher-Symm/SD-CG/FIRE-CG
REM
REM
REM
REM
REM
REM ./C.cell (b20cbc046b6831c77cfcea5457e17084)
REM AIRSS Version 0.9.1 bugfix July 2018 build 013d7b7c2542+ Fri, 06 Jul 2018 19:26:36 +0100
REM compiler GCC version 9.2.1 20190827 (Red Hat 9.2.1-1)
REM options -cpp -mtune=generic -march=x86-64 -g -O0 -fpre-include=/usr/include/finclude/math-vector-fortran.h
REM seed 231392541 411388149 -1241817218 1713873370 1570411204 -1559642197 -326158251 377481010 -1726609998 1710807537 -1729764400 506490316 1224408728 -379061610 1369981922 75806963 1999726595 223284820 -1840949435 1002131822 -267651914 1465025953 797020779 -820700909 -1137737868 -561342630 -2126482881 -1215765075 -1494852928 912295683 1918726417 -2126115851 570005313
REM
CELL 1.54180   50.00000   50.00000   50.00000   90.00000   90.00000   90.00000
LATT -1
SFAC C  
C      1  0.4780550000000  0.5142110000000  0.5317990000000 1.0
C      1  0.5209810000000  0.4875650000000  0.5292690000000 1.0
C      1  0.4622670000000  0.5299550000000  0.4846980000000 1.0
C      1  0.5229120000000  0.4765580000000  0.4763050000000 1.0
C      1  0.5299820000000  0.5316090000000  0.5252730000000 1.0
C      1  0.4502230000000  0.4679370000000  0.5197130000000 1.0
C      1  0.5482500000000  0.5273410000000  0.4741640000000 1.0
C      1  0.4712650000000  0.4766180000000  0.4728090000000 1.0
C      1  0.4603500000000  0.5215840000000  0.4587980000000 1.0
C      1  0.5389370000000  0.4851550000000  0.4543650000000 1.0
C      1  0.4637100000000  0.4999540000000  0.5520430000000 1.0
C      1  0.5439710000000  0.4931630000000  0.5471540000000 1.0
C      1  0.5500040000000  0.5100070000000  0.4532600000000 1.0
C      1  0.4635700000000  0.4952040000000  0.4524510000000 1.0
C      1  0.5495110000000  0.5210050000000  0.5451990000000 1.0
C      1  0.4510570000000  0.4766000000000  0.5455870000000 1.0
C      1  0.4607280000000  0.4835360000000  0.4985390000000 1.0
C      1  0.5365030000000  0.5199510000000  0.4986860000000 1.0
C      1  0.5284150000000  0.4903570000000  0.5007250000000 1.0
C      1  0.4659410000000  0.5116040000000  0.5059360000000 1.0
C      1  0.5060940000000  0.5142980000000  0.5324740000000 1.0
C      1  0.4972740000000  0.4657860000000  0.4720130000000 1.0
END
