TITL C-3623287-7182-1328 -1865.16106369217 125000 -1043.59343322719 0 0 167 (C1) n - 1
REM
REM in /home/nfs/bkarasulu/CARBON/AIRSS/Generating-Clusters/LCBOP/Higher-Symm/SD-CG/FIRE-CG
REM
REM
REM
REM
REM
REM ./C.cell (b20cbc046b6831c77cfcea5457e17084)
REM AIRSS Version 0.9.1 bugfix July 2018 build 013d7b7c2542+ Fri, 06 Jul 2018 19:26:36 +0100
REM compiler GCC version 9.2.1 20190827 (Red Hat 9.2.1-1)
REM options -cpp -mtune=generic -march=x86-64 -g -O0 -fpre-include=/usr/include/finclude/math-vector-fortran.h
REM seed 1041924805 1802575992 -1328832975 423919669 542023743 -1698417853 2135521989 -998100156 1938623747 1583121920 -1087256785 679686167 -584936511 -2012897877 -1961893253 837259600 1766510899 -1940949040 -476120688 864203110 2013478719 -945304043 708212531 -2120741666 -1787293147 1569560145 -164793297 -1619487437 -168026865 378855230 1115518946 -1056003858 198376110
REM
CELL 1.54180   50.00000   50.00000   50.00000   90.00000   90.00000   90.00000
LATT -1
SFAC C  
C      1  0.5788970000000  0.5483650000000  0.5874530000000 1.0
C      1  0.5722490000000  0.6020420000000  0.4833810000000 1.0
C      1  0.5774580000000  0.4951880000000  0.3968830000000 1.0
C      1  0.5681400000000  0.3873900000000  0.4511040000000 1.0
C      1  0.5605590000000  0.4158930000000  0.5753320000000 1.0
C      1  0.5273220000000  0.6134040000000  0.4615950000000 1.0
C      1  0.5287480000000  0.4890440000000  0.3814570000000 1.0
C      1  0.5216520000000  0.3717030000000  0.4614330000000 1.0
C      1  0.5268230000000  0.4308920000000  0.6078480000000 1.0
C      1  0.5365270000000  0.5786340000000  0.5811730000000 1.0
C      1  0.4372120000000  0.5678240000000  0.4493930000000 1.0
C      1  0.4363600000000  0.4741140000000  0.4196730000000 1.0
C      1  0.4379640000000  0.4150040000000  0.5018490000000 1.0
C      1  0.4399520000000  0.4787950000000  0.5844960000000 1.0
C      1  0.4383190000000  0.5725430000000  0.5460750000000 1.0
C      1  0.5427670000000  0.5091590000000  0.5761750000000 1.0
C      1  0.5456090000000  0.5627520000000  0.5251840000000 1.0
C      1  0.5474470000000  0.5320310000000  0.4289540000000 1.0
C      1  0.5417050000000  0.4444220000000  0.4429110000000 1.0
C      1  0.5232740000000  0.4348540000000  0.5159250000000 1.0
C      1  0.4526720000000  0.4308490000000  0.4062640000000 1.0
C      1  0.4551160000000  0.3903730000000  0.5396370000000 1.0
C      1  0.4620440000000  0.5095130000000  0.6167580000000 1.0
C      1  0.4459940000000  0.6182140000000  0.5330510000000 1.0
C      1  0.4582050000000  0.5669750000000  0.4061310000000 1.0
C      1  0.5821680000000  0.4219200000000  0.4847330000000 1.0
C      1  0.5681690000000  0.4566490000000  0.5489520000000 1.0
C      1  0.5843620000000  0.5275470000000  0.5445120000000 1.0
C      1  0.5908410000000  0.5581010000000  0.4751020000000 1.0
C      1  0.5932100000000  0.4823510000000  0.4408360000000 1.0
C      1  0.4381040000000  0.5244470000000  0.4161100000000 1.0
C      1  0.4362130000000  0.4279710000000  0.4519300000000 1.0
C      1  0.4377440000000  0.4330560000000  0.5586280000000 1.0
C      1  0.4422140000000  0.5369830000000  0.5824200000000 1.0
C      1  0.4344830000000  0.5909370000000  0.4945200000000 1.0
C      1  0.5901310000000  0.4501620000000  0.4828440000000 1.0
C      1  0.5651930000000  0.4656200000000  0.5215650000000 1.0
C      1  0.5629990000000  0.5133540000000  0.5297090000000 1.0
C      1  0.5577020000000  0.5224560000000  0.5023010000000 1.0
C      1  0.5610900000000  0.5201770000000  0.4742170000000 1.0
C      1  0.5012230000000  0.5229800000000  0.5543350000000 1.0
C      1  0.4924920000000  0.5563190000000  0.4957790000000 1.0
C      1  0.4897900000000  0.5051480000000  0.4486460000000 1.0
C      1  0.4893420000000  0.4489190000000  0.4785110000000 1.0
C      1  0.4892180000000  0.4586380000000  0.5427400000000 1.0
C      1  0.5400500000000  0.5445810000000  0.5052440000000 1.0
C      1  0.5384480000000  0.5222130000000  0.4547960000000 1.0
C      1  0.5305020000000  0.4637270000000  0.4620840000000 1.0
C      1  0.5384720000000  0.4630930000000  0.5094660000000 1.0
C      1  0.5410350000000  0.5030010000000  0.5465370000000 1.0
C      1  0.5735140000000  0.5702110000000  0.5210080000000 1.0
C      1  0.5769870000000  0.5284190000000  0.4321880000000 1.0
C      1  0.5692170000000  0.4382350000000  0.4443320000000 1.0
C      1  0.5485870000000  0.4190130000000  0.5257200000000 1.0
C      1  0.5699380000000  0.5005930000000  0.5812710000000 1.0
C      1  0.5096930000000  0.5232380000000  0.4627970000000 1.0
C      1  0.5024630000000  0.4613940000000  0.4566890000000 1.0
C      1  0.4852790000000  0.4982180000000  0.5009510000000 1.0
C      1  0.5130000000000  0.4965340000000  0.5456720000000 1.0
C      1  0.5123790000000  0.5368460000000  0.5092130000000 1.0
C      1  0.5031670000000  0.4343150000000  0.5385890000000 1.0
C      1  0.5171570000000  0.5231950000000  0.5822850000000 1.0
C      1  0.4934240000000  0.5818380000000  0.5168310000000 1.0
C      1  0.5282870000000  0.5415740000000  0.4103710000000 1.0
C      1  0.5225930000000  0.4281150000000  0.4283410000000 1.0
C      1  0.4559030000000  0.6021560000000  0.4774180000000 1.0
C      1  0.4601120000000  0.5130050000000  0.3998880000000 1.0
C      1  0.4581600000000  0.4088240000000  0.4568060000000 1.0
C      1  0.4591640000000  0.4335030000000  0.5793880000000 1.0
C      1  0.4650720000000  0.5565190000000  0.5824750000000 1.0
C      1  0.5005410000000  0.5541360000000  0.4658310000000 1.0
C      1  0.4951690000000  0.4796730000000  0.4369340000000 1.0
C      1  0.5035080000000  0.4279500000000  0.4930600000000 1.0
C      1  0.5022120000000  0.4751890000000  0.5616330000000 1.0
C      1  0.5112960000000  0.5459460000000  0.5384830000000 1.0
C      1  0.4240480000000  0.4597240000000  0.5643100000000 1.0
C      1  0.4249540000000  0.5482500000000  0.5606240000000 1.0
C      1  0.4221140000000  0.5707700000000  0.4764370000000 1.0
C      1  0.4233550000000  0.5007530000000  0.4273580000000 1.0
C      1  0.4227380000000  0.4298280000000  0.4792160000000 1.0
C      1  0.5000590000000  0.3883910000000  0.4656200000000 1.0
C      1  0.5035130000000  0.4397080000000  0.5957630000000 1.0
C      1  0.5091890000000  0.5757750000000  0.5749680000000 1.0
C      1  0.5014940000000  0.6037600000000  0.4639710000000 1.0
C      1  0.5034660000000  0.4938620000000  0.3916550000000 1.0
C      1  0.4515740000000  0.4583980000000  0.5125840000000 1.0
C      1  0.4544350000000  0.4967770000000  0.5455230000000 1.0
C      1  0.4541820000000  0.5390080000000  0.5197790000000 1.0
C      1  0.4529260000000  0.5280660000000  0.4708850000000 1.0
C      1  0.4516560000000  0.4774920000000  0.4666320000000 1.0
C      1  0.5490210000000  0.4186580000000  0.5992950000000 1.0
C      1  0.5603120000000  0.5679260000000  0.5877020000000 1.0
C      1  0.5524820000000  0.6139370000000  0.4701310000000 1.0
C      1  0.5553430000000  0.4896750000000  0.3829660000000 1.0
C      1  0.5472750000000  0.3710520000000  0.4541600000000 1.0
C      1  0.5756550000000  0.4132000000000  0.4577420000000 1.0
C      1  0.5598990000000  0.4290990000000  0.5508250000000 1.0
C      1  0.5846650000000  0.5242990000000  0.5732290000000 1.0
C      1  0.5813460000000  0.5777200000000  0.4939140000000 1.0
C      1  0.5863890000000  0.5029290000000  0.4224620000000 1.0
C      1  0.5915340000000  0.5531540000000  0.5346970000000 1.0
C      1  0.5826080000000  0.5351580000000  0.4606680000000 1.0
C      1  0.5866500000000  0.4592520000000  0.4551600000000 1.0
C      1  0.5675490000000  0.4111790000000  0.5061910000000 1.0
C      1  0.5752330000000  0.4743350000000  0.5705060000000 1.0
C      1  0.4143430000000  0.4731660000000  0.5406150000000 1.0
C      1  0.4154400000000  0.5284080000000  0.5417590000000 1.0
C      1  0.4148670000000  0.5458810000000  0.4890210000000 1.0
C      1  0.4145650000000  0.5021050000000  0.4547420000000 1.0
C      1  0.4132280000000  0.4560590000000  0.4868370000000 1.0
C      1  0.4612870000000  0.4042720000000  0.4869260000000 1.0
C      1  0.4636380000000  0.4618530000000  0.5896530000000 1.0
C      1  0.4660490000000  0.5703500000000  0.5560720000000 1.0
C      1  0.4611620000000  0.5836760000000  0.4548370000000 1.0
C      1  0.4599310000000  0.4832010000000  0.4049310000000 1.0
C      1  0.4640390000000  0.5040540000000  0.4600180000000 1.0
C      1  0.4640740000000  0.4592100000000  0.4858720000000 1.0
C      1  0.4649270000000  0.4703620000000  0.5348140000000 1.0
C      1  0.4684090000000  0.5216540000000  0.5410280000000 1.0
C      1  0.4656120000000  0.5431430000000  0.4938700000000 1.0
C      1  0.4722340000000  0.6242570000000  0.5290380000000 1.0
C      1  0.4844470000000  0.5652020000000  0.3997040000000 1.0
C      1  0.4785530000000  0.4232950000000  0.4038370000000 1.0
C      1  0.4815640000000  0.3900160000000  0.5455550000000 1.0
C      1  0.4866880000000  0.5200530000000  0.6203280000000 1.0
C      1  0.4216500000000  0.4601450000000  0.5150650000000 1.0
C      1  0.4241870000000  0.5007230000000  0.5452830000000 1.0
C      1  0.4240590000000  0.5405570000000  0.5164960000000 1.0
C      1  0.4230910000000  0.5262000000000  0.4690670000000 1.0
C      1  0.4217100000000  0.4767140000000  0.4677990000000 1.0
C      1  0.4440910000000  0.5083540000000  0.5937990000000 1.0
C      1  0.4349010000000  0.5929680000000  0.5245300000000 1.0
C      1  0.4402290000000  0.5528700000000  0.4238750000000 1.0
C      1  0.4376690000000  0.4447980000000  0.4267730000000 1.0
C      1  0.4394060000000  0.4142190000000  0.5331210000000 1.0
C      1  0.4908100000000  0.4023300000000  0.4895010000000 1.0
C      1  0.4933170000000  0.4663720000000  0.5879730000000 1.0
C      1  0.4962540000000  0.5715090000000  0.5458150000000 1.0
C      1  0.4903210000000  0.5784100000000  0.4534130000000 1.0
C      1  0.4880090000000  0.4771820000000  0.4097400000000 1.0
C      1  0.4914830000000  0.5599660000000  0.5934670000000 1.0
C      1  0.4820200000000  0.6128550000000  0.4836830000000 1.0
C      1  0.4882910000000  0.5188140000000  0.3923890000000 1.0
C      1  0.4840390000000  0.4011230000000  0.4449960000000 1.0
C      1  0.4857760000000  0.4217080000000  0.5808750000000 1.0
C      1  0.4953400000000  0.4124680000000  0.5555140000000 1.0
C      1  0.5027570000000  0.5354600000000  0.6029880000000 1.0
C      1  0.4880730000000  0.6091380000000  0.5110030000000 1.0
C      1  0.5019090000000  0.5429800000000  0.3991900000000 1.0
C      1  0.4968110000000  0.4160130000000  0.4241600000000 1.0
C      1  0.6297870000000  0.5017840000000  0.5105770000000 1.0
C      1  0.6696250000000  0.5697210000000  0.5030490000000 1.0
C      1  0.4315390000000  0.5003350000000  0.5026720000000 1.0
C      1  0.3775690000000  0.5016080000000  0.5031570000000 1.0
C      1  0.6099970000000  0.4841790000000  0.5110440000000 1.0
C      1  0.6588070000000  0.5456830000000  0.5058170000000 1.0
C      1  0.4586820000000  0.4997350000000  0.5028430000000 1.0
C      1  0.5886360000000  0.4672690000000  0.5052130000000 1.0
C      1  0.3245970000000  0.5028110000000  0.5035680000000 1.0
C      1  0.2980980000000  0.5033890000000  0.5037950000000 1.0
C      1  0.6798730000000  0.5935330000000  0.5002890000000 1.0
C      1  0.4041700000000  0.5010050000000  0.5029490000000 1.0
C      1  0.2720350000000  0.5039580000000  0.5040380000000 1.0
C      1  0.5108080000000  0.5093140000000  0.4918010000000 1.0
C      1  0.5310350000000  0.4788980000000  0.4873780000000 1.0
C      1  0.3510880000000  0.5022230000000  0.5033590000000 1.0
C      1  0.6460100000000  0.5226250000000  0.5084130000000 1.0
END
