TITL C-3623286-7563-215 -54.2121353461442 125000 -496.541168336798 0 0 84 (C1) n - 1
REM
REM in /home/nfs/bkarasulu/CARBON/AIRSS/Generating-Clusters/LCBOP/Higher-Symm/SD-CG/FIRE-CG
REM
REM
REM
REM
REM
REM ./C.cell (b20cbc046b6831c77cfcea5457e17084)
REM AIRSS Version 0.9.1 bugfix July 2018 build 013d7b7c2542+ Fri, 06 Jul 2018 19:26:36 +0100
REM compiler GCC version 9.2.1 20190827 (Red Hat 9.2.1-1)
REM options -cpp -mtune=generic -march=x86-64 -g -O0 -fpre-include=/usr/include/finclude/math-vector-fortran.h
REM seed -973478936 49111090 -602451771 -1604389268 -711201722 501343362 -1263842470 971751615 294263754 1254135167 -857964527 1006327656 -443825238 506832365 -1113488222 1262424463 -307276110 -447118512 -575177821 -2044583626 1710028484 -670656729 234662788 -753526948 -713453954 1272726141 -1201392499 681756249 -1206408221 -570867514 -801338326 300357951 1162552290
REM
CELL 1.54180   50.00000   50.00000   50.00000   90.00000   90.00000   90.00000
LATT -1
SFAC C  
C      1  0.4557890000000  0.4755230000000  0.4488190000000 1.0
C      1  0.5060350000000  0.4488000000000  0.4528360000000 1.0
C      1  0.5452060000000  0.4887810000000  0.4586700000000 1.0
C      1  0.5249170000000  0.5401930000000  0.4608430000000 1.0
C      1  0.4673010000000  0.5368710000000  0.4614020000000 1.0
C      1  0.4982550000000  0.4665190000000  0.4765140000000 1.0
C      1  0.5233720000000  0.4860120000000  0.4828060000000 1.0
C      1  0.5182300000000  0.5190240000000  0.4877890000000 1.0
C      1  0.4881190000000  0.5316180000000  0.4913570000000 1.0
C      1  0.4765030000000  0.4863270000000  0.4679490000000 1.0
C      1  0.4810160000000  0.5596520000000  0.4502870000000 1.0
C      1  0.4373500000000  0.4973970000000  0.4450320000000 1.0
C      1  0.4821480000000  0.4364350000000  0.4419890000000 1.0
C      1  0.5514560000000  0.4633210000000  0.4468670000000 1.0
C      1  0.5508170000000  0.5360530000000  0.4506210000000 1.0
C      1  0.5480560000000  0.5768790000000  0.5334710000000 1.0
C      1  0.4479630000000  0.5711720000000  0.5324280000000 1.0
C      1  0.4265930000000  0.4690410000000  0.5336030000000 1.0
C      1  0.5098560000000  0.4110290000000  0.5297640000000 1.0
C      1  0.5863370000000  0.4806300000000  0.5312880000000 1.0
C      1  0.5661520000000  0.5602320000000  0.4901230000000 1.0
C      1  0.4664720000000  0.5863970000000  0.4889060000000 1.0
C      1  0.4170450000000  0.4922810000000  0.4897750000000 1.0
C      1  0.4804090000000  0.4132040000000  0.4886040000000 1.0
C      1  0.5794790000000  0.4584270000000  0.4867420000000 1.0
C      1  0.5054080000000  0.5475400000000  0.4404790000000 1.0
C      1  0.4560070000000  0.5194530000000  0.4388430000000 1.0
C      1  0.4691720000000  0.4597850000000  0.4288280000000 1.0
C      1  0.5259910000000  0.4578600000000  0.4340290000000 1.0
C      1  0.5472210000000  0.5099800000000  0.4390320000000 1.0
C      1  0.5194300000000  0.5762230000000  0.5393440000000 1.0
C      1  0.4423810000000  0.5438370000000  0.5414590000000 1.0
C      1  0.4462370000000  0.4509360000000  0.5462870000000 1.0
C      1  0.5314490000000  0.4301620000000  0.5338320000000 1.0
C      1  0.5742060000000  0.5062970000000  0.5384220000000 1.0
C      1  0.5690160000000  0.5540130000000  0.4625360000000 1.0
C      1  0.4714300000000  0.5837570000000  0.4611680000000 1.0
C      1  0.4145230000000  0.4955890000000  0.4616970000000 1.0
C      1  0.4745600000000  0.4156770000000  0.4604490000000 1.0
C      1  0.5750580000000  0.4534460000000  0.4590060000000 1.0
C      1  0.5598890000000  0.4360660000000  0.5282840000000 1.0
C      1  0.5789630000000  0.5350130000000  0.5322700000000 1.0
C      1  0.4953480000000  0.5924410000000  0.5317410000000 1.0
C      1  0.4337930000000  0.5199230000000  0.5270850000000 1.0
C      1  0.4627860000000  0.4306480000000  0.5332030000000 1.0
C      1  0.4259980000000  0.4966610000000  0.5433840000000 1.0
C      1  0.4850270000000  0.4156370000000  0.5451320000000 1.0
C      1  0.5772080000000  0.4548820000000  0.5431480000000 1.0
C      1  0.5677840000000  0.5585970000000  0.5462330000000 1.0
C      1  0.4693530000000  0.5876520000000  0.5452280000000 1.0
C      1  0.5260840000000  0.5068020000000  0.4185570000000 1.0
C      1  0.5034750000000  0.5269520000000  0.4187500000000 1.0
C      1  0.4765090000000  0.5117830000000  0.4163270000000 1.0
C      1  0.4848920000000  0.4808620000000  0.4136050000000 1.0
C      1  0.5150040000000  0.4791220000000  0.4160760000000 1.0
C      1  0.5446780000000  0.5066570000000  0.5361650000000 1.0
C      1  0.5071700000000  0.5496820000000  0.5360030000000 1.0
C      1  0.4513090000000  0.5372140000000  0.5677740000000 1.0
C      1  0.4572240000000  0.4608420000000  0.5709230000000 1.0
C      1  0.5211000000000  0.4577150000000  0.5314150000000 1.0
C      1  0.4747520000000  0.4771470000000  0.5803360000000 1.0
C      1  0.5075340000000  0.4665300000000  0.5535770000000 1.0
C      1  0.5303190000000  0.5029530000000  0.5594240000000 1.0
C      1  0.5004090000000  0.5343050000000  0.5574500000000 1.0
C      1  0.4662030000000  0.5203790000000  0.5803020000000 1.0
C      1  0.5562320000000  0.5822310000000  0.5057860000000 1.0
C      1  0.4434100000000  0.5800620000000  0.5050870000000 1.0
C      1  0.4144180000000  0.4691490000000  0.5071340000000 1.0
C      1  0.5030080000000  0.4015460000000  0.5028740000000 1.0
C      1  0.5950390000000  0.4761290000000  0.5035370000000 1.0
C      1  0.5343540000000  0.4690960000000  0.5067980000000 1.0
C      1  0.5394430000000  0.5221750000000  0.5106760000000 1.0
C      1  0.4928450000000  0.5517650000000  0.5105020000000 1.0
C      1  0.4632580000000  0.4976370000000  0.4930060000000 1.0
C      1  0.4850250000000  0.4584590000000  0.5021970000000 1.0
C      1  0.5645540000000  0.5368560000000  0.5060380000000 1.0
C      1  0.4893140000000  0.5804410000000  0.5047600000000 1.0
C      1  0.4382090000000  0.5095470000000  0.5002730000000 1.0
C      1  0.4706240000000  0.4346320000000  0.5056190000000 1.0
C      1  0.5570350000000  0.4507510000000  0.5023400000000 1.0
C      1  0.4951030000000  0.4997020000000  0.5628030000000 1.0
C      1  0.4758720000000  0.4829160000000  0.5139810000000 1.0
C      1  0.4948550000000  0.5045910000000  0.4546540000000 1.0
C      1  0.4808730000000  0.4968790000000  0.5369280000000 1.0
END
