TITL C-3623285-6872-1250 -6.64275379319617e-07 125000 -459.480960012518 0 0 77 (C1) n - 1
REM
REM in /home/nfs/bkarasulu/CARBON/AIRSS/Generating-Clusters/LCBOP/Higher-Symm/SD-CG/FIRE-CG
REM
REM
REM
REM
REM
REM ./C.cell (b20cbc046b6831c77cfcea5457e17084)
REM AIRSS Version 0.9.1 bugfix July 2018 build 013d7b7c2542+ Fri, 06 Jul 2018 19:26:36 +0100
REM compiler GCC version 9.2.1 20190827 (Red Hat 9.2.1-1)
REM options -cpp -mtune=generic -march=x86-64 -g -O0 -fpre-include=/usr/include/finclude/math-vector-fortran.h
REM seed 384875515 -1008550498 76694751 -881568501 -961672109 1769908397 -414939404 2071191786 -1109404343 -103926226 -1904707008 1883726121 2096602665 -459107726 -297812028 -176628387 2075465606 2083492694 1829857035 2110664098 1606356566 -482264580 -1020909239 -480818307 -637456310 1408683506 2015914183 25309274 1740212786 922778572 -915296058 -430553032 1563282841
REM
CELL 1.54180   50.00000   50.00000   50.00000   90.00000   90.00000   90.00000
LATT -1
SFAC C  
C      1  0.5209490000000  0.5285130000000  0.5250570000000 1.0
C      1  0.5218800000000  0.4840240000000  0.5354260000000 1.0
C      1  0.5225000000000  0.4644470000000  0.4967670000000 1.0
C      1  0.5221150000000  0.4935070000000  0.4645210000000 1.0
C      1  0.5217080000000  0.5341500000000  0.4820610000000 1.0
C      1  0.4772440000000  0.4722690000000  0.5242200000000 1.0
C      1  0.4768710000000  0.5143730000000  0.5347820000000 1.0
C      1  0.4764460000000  0.5354940000000  0.4968280000000 1.0
C      1  0.4772900000000  0.5070350000000  0.4640600000000 1.0
C      1  0.4774850000000  0.4659720000000  0.4813220000000 1.0
C      1  0.4336760000000  0.5520530000000  0.4523990000000 1.0
C      1  0.4315650000000  0.5612470000000  0.5352850000000 1.0
C      1  0.4331880000000  0.4845870000000  0.5691940000000 1.0
C      1  0.4297550000000  0.4294870000000  0.5082140000000 1.0
C      1  0.4336380000000  0.4699480000000  0.4355760000000 1.0
C      1  0.5657760000000  0.4486610000000  0.4525180000000 1.0
C      1  0.5699380000000  0.4387120000000  0.5345260000000 1.0
C      1  0.5652650000000  0.5140870000000  0.5698960000000 1.0
C      1  0.5684010000000  0.5705160000000  0.5099970000000 1.0
C      1  0.5656670000000  0.5310350000000  0.4363130000000 1.0
C      1  0.5438460000000  0.4358080000000  0.5761400000000 1.0
C      1  0.5169630000000  0.4351460000000  0.4626430000000 1.0
C      1  0.5172850000000  0.5166240000000  0.4249000000000 1.0
C      1  0.5431920000000  0.5973730000000  0.4773610000000 1.0
C      1  0.5164920000000  0.5313480000000  0.5708620000000 1.0
C      1  0.4804980000000  0.5571760000000  0.5517850000000 1.0
C      1  0.4825250000000  0.5653540000000  0.4632050000000 1.0
C      1  0.4822960000000  0.4839810000000  0.4245980000000 1.0
C      1  0.4557650000000  0.4030290000000  0.4758710000000 1.0
C      1  0.4826520000000  0.4688330000000  0.5689470000000 1.0
C      1  0.4527450000000  0.5509900000000  0.4944970000000 1.0
C      1  0.4526960000000  0.5213590000000  0.5468870000000 1.0
C      1  0.4534850000000  0.4609150000000  0.5347610000000 1.0
C      1  0.4534520000000  0.4524450000000  0.4752800000000 1.0
C      1  0.4535100000000  0.5091200000000  0.4495860000000 1.0
C      1  0.5462470000000  0.4490080000000  0.4947070000000 1.0
C      1  0.5460180000000  0.4764390000000  0.5480050000000 1.0
C      1  0.5449050000000  0.5380730000000  0.5357170000000 1.0
C      1  0.5456350000000  0.5479740000000  0.4761700000000 1.0
C      1  0.5459350000000  0.4915980000000  0.4500090000000 1.0
C      1  0.5688970000000  0.4767340000000  0.4569970000000 1.0
C      1  0.5683390000000  0.5348530000000  0.4643990000000 1.0
C      1  0.5686370000000  0.5449780000000  0.5221030000000 1.0
C      1  0.5684240000000  0.4942920000000  0.5496710000000 1.0
C      1  0.5700860000000  0.4517710000000  0.5094550000000 1.0
C      1  0.4305460000000  0.5239680000000  0.4567800000000 1.0
C      1  0.4308870000000  0.4659480000000  0.4636330000000 1.0
C      1  0.4296560000000  0.4547180000000  0.5209880000000 1.0
C      1  0.4298090000000  0.5050250000000  0.5494340000000 1.0
C      1  0.4291210000000  0.5486360000000  0.5098290000000 1.0
C      1  0.5458830000000  0.5122340000000  0.4291800000000 1.0
C      1  0.5518050000000  0.5736190000000  0.4873070000000 1.0
C      1  0.5450060000000  0.5329730000000  0.5645870000000 1.0
C      1  0.5526410000000  0.4492940000000  0.5542680000000 1.0
C      1  0.5456950000000  0.4360420000000  0.4681350000000 1.0
C      1  0.4536370000000  0.4886050000000  0.4286060000000 1.0
C      1  0.4469410000000  0.4266680000000  0.4859110000000 1.0
C      1  0.4539060000000  0.4658610000000  0.5639040000000 1.0
C      1  0.4520390000000  0.5502820000000  0.5513420000000 1.0
C      1  0.4537090000000  0.5644990000000  0.4682270000000 1.0
C      1  0.5841150000000  0.4761820000000  0.5050810000000 1.0
C      1  0.5838690000000  0.4884820000000  0.4783950000000 1.0
C      1  0.5830370000000  0.5177710000000  0.4820960000000 1.0
C      1  0.5830750000000  0.5230560000000  0.5110730000000 1.0
C      1  0.5832330000000  0.4974960000000  0.5253600000000 1.0
C      1  0.4147170000000  0.5243100000000  0.5051650000000 1.0
C      1  0.4155300000000  0.5122100000000  0.4782010000000 1.0
C      1  0.4161760000000  0.4828880000000  0.4814750000000 1.0
C      1  0.4154820000000  0.4770670000000  0.5103180000000 1.0
C      1  0.4148780000000  0.5024050000000  0.5250750000000 1.0
C      1  0.4987280000000  0.5326770000000  0.5452420000000 1.0
C      1  0.4976840000000  0.4737390000000  0.5443430000000 1.0
C      1  0.5020250000000  0.4533720000000  0.4798260000000 1.0
C      1  0.4971790000000  0.5468320000000  0.4803510000000 1.0
C      1  0.4997480000000  0.5002080000000  0.4449180000000 1.0
C      1  0.5170650000000  0.5008790000000  0.5009610000000 1.0
C      1  0.4819710000000  0.4992100000000  0.5000800000000 1.0
END
