TITL C-3623286-7563-1801 97.976807683501 125000 -764.313182954444 0 0 124 (C1) n - 1
REM
REM in /home/nfs/bkarasulu/CARBON/AIRSS/Generating-Clusters/LCBOP/Higher-Symm/SD-CG/FIRE-CG
REM
REM
REM
REM
REM
REM ./C.cell (b20cbc046b6831c77cfcea5457e17084)
REM AIRSS Version 0.9.1 bugfix July 2018 build 013d7b7c2542+ Fri, 06 Jul 2018 19:26:36 +0100
REM compiler GCC version 9.2.1 20190827 (Red Hat 9.2.1-1)
REM options -cpp -mtune=generic -march=x86-64 -g -O0 -fpre-include=/usr/include/finclude/math-vector-fortran.h
REM seed -1841726205 -31071213 1185943155 -58677643 1247439405 299599484 1421678008 -2054943956 -854795262 -308973723 -1372417183 2102177597 1995037634 559657375 1499098970 -2136579331 -1270563005 -1188693903 -1547516701 -1269194489 872053975 -87717254 -2096569904 -1937836914 -1407635668 -617052007 608697897 1135658928 792498983 1182246513 -1924816475 495295951 409876899
REM
CELL 1.54180   50.00000   50.00000   50.00000   90.00000   90.00000   90.00000
LATT -1
SFAC C  
C      1  0.4830960000000  0.5414520000000  0.4139410000000 1.0
C      1  0.5450570000000  0.4132350000000  0.4813640000000 1.0
C      1  0.4105530000000  0.4839940000000  0.5480730000000 1.0
C      1  0.4833390000000  0.4544660000000  0.5865330000000 1.0
C      1  0.5166600000000  0.5439770000000  0.5870340000000 1.0
C      1  0.5172070000000  0.4518010000000  0.4102190000000 1.0
C      1  0.5423470000000  0.5866140000000  0.5168030000000 1.0
C      1  0.4536720000000  0.4135050000000  0.5167820000000 1.0
C      1  0.4540540000000  0.5881290000000  0.4839980000000 1.0
C      1  0.4148760000000  0.5184100000000  0.4572890000000 1.0
C      1  0.5880560000000  0.4831790000000  0.4553530000000 1.0
C      1  0.5886060000000  0.5181810000000  0.5466070000000 1.0
C      1  0.4837310000000  0.4136080000000  0.5423850000000 1.0
C      1  0.5451290000000  0.4801050000000  0.4132760000000 1.0
C      1  0.4107780000000  0.5474990000000  0.4841330000000 1.0
C      1  0.4819800000000  0.5840030000000  0.4560960000000 1.0
C      1  0.5167960000000  0.5877570000000  0.5469130000000 1.0
C      1  0.5163720000000  0.4109700000000  0.4540050000000 1.0
C      1  0.5443410000000  0.5156950000000  0.5879770000000 1.0
C      1  0.4526580000000  0.5161790000000  0.4109820000000 1.0
C      1  0.4554340000000  0.4826850000000  0.5875820000000 1.0
C      1  0.4150970000000  0.4584950000000  0.5179570000000 1.0
C      1  0.5881620000000  0.4550540000000  0.4832190000000 1.0
C      1  0.5876210000000  0.5461910000000  0.5183520000000 1.0
C      1  0.4223180000000  0.5448070000000  0.5091880000000 1.0
C      1  0.5457020000000  0.5007800000000  0.4312690000000 1.0
C      1  0.5072170000000  0.4243650000000  0.5321070000000 1.0
C      1  0.4286890000000  0.4651690000000  0.4951150000000 1.0
C      1  0.5718200000000  0.5458070000000  0.4955910000000 1.0
C      1  0.5780130000000  0.4646060000000  0.5071490000000 1.0
C      1  0.5359940000000  0.4916830000000  0.5768350000000 1.0
C      1  0.4569560000000  0.5060990000000  0.5728510000000 1.0
C      1  0.4603000000000  0.4919160000000  0.4200080000000 1.0
C      1  0.5017100000000  0.5652060000000  0.4562620000000 1.0
C      1  0.4910200000000  0.4221200000000  0.4583770000000 1.0
C      1  0.4950320000000  0.5728880000000  0.5412520000000 1.0
C      1  0.4195430000000  0.5087120000000  0.5422160000000 1.0
C      1  0.5445860000000  0.4315690000000  0.5014600000000 1.0
C      1  0.5070570000000  0.5312170000000  0.4239960000000 1.0
C      1  0.4324240000000  0.4973850000000  0.4585400000000 1.0
C      1  0.5737970000000  0.4948130000000  0.5458500000000 1.0
C      1  0.5781040000000  0.5073840000000  0.4651170000000 1.0
C      1  0.5323520000000  0.5754510000000  0.4931930000000 1.0
C      1  0.4580410000000  0.5774090000000  0.5093740000000 1.0
C      1  0.4594670000000  0.4290360000000  0.4955100000000 1.0
C      1  0.5055850000000  0.4548620000000  0.5703230000000 1.0
C      1  0.4919670000000  0.4540180000000  0.4219380000000 1.0
C      1  0.4941010000000  0.5376680000000  0.5730220000000 1.0
C      1  0.5513070000000  0.5053460000000  0.4821840000000 1.0
C      1  0.5036950000000  0.4700580000000  0.5429890000000 1.0
C      1  0.4689260000000  0.5502570000000  0.5105110000000 1.0
C      1  0.5460500000000  0.4970840000000  0.5317490000000 1.0
C      1  0.4504890000000  0.5062220000000  0.5216430000000 1.0
C      1  0.4613030000000  0.5010010000000  0.4701310000000 1.0
C      1  0.5062030000000  0.5141600000000  0.4516910000000 1.0
C      1  0.4919260000000  0.4671530000000  0.4479040000000 1.0
C      1  0.4975250000000  0.5209160000000  0.5452210000000 1.0
C      1  0.4793550000000  0.4540790000000  0.4965850000000 1.0
C      1  0.5179030000000  0.5462700000000  0.4964930000000 1.0
C      1  0.5310050000000  0.4595140000000  0.4976100000000 1.0
C      1  0.5515280000000  0.4820440000000  0.5057260000000 1.0
C      1  0.4988440000000  0.5378440000000  0.4711010000000 1.0
C      1  0.4692010000000  0.5039470000000  0.5444800000000 1.0
C      1  0.5445530000000  0.5305800000000  0.4980940000000 1.0
C      1  0.4484520000000  0.5318380000000  0.5098920000000 1.0
C      1  0.4577110000000  0.4818810000000  0.4974890000000 1.0
C      1  0.5050520000000  0.4532990000000  0.5168710000000 1.0
C      1  0.4910240000000  0.4494470000000  0.4688890000000 1.0
C      1  0.4967570000000  0.5468430000000  0.5223860000000 1.0
C      1  0.4821560000000  0.4938520000000  0.4487130000000 1.0
C      1  0.5209670000000  0.4943940000000  0.5486610000000 1.0
C      1  0.5317860000000  0.4970950000000  0.4590270000000 1.0
C      1  0.4592390000000  0.5793500000000  0.4401140000000 1.0
C      1  0.5803990000000  0.4390590000000  0.4606330000000 1.0
C      1  0.4392930000000  0.4599010000000  0.5816230000000 1.0
C      1  0.4615570000000  0.4200250000000  0.5598020000000 1.0
C      1  0.5397270000000  0.5803210000000  0.5614840000000 1.0
C      1  0.5393840000000  0.4171890000000  0.4378060000000 1.0
C      1  0.5806490000000  0.5617760000000  0.5410880000000 1.0
C      1  0.4205670000000  0.4413600000000  0.5398680000000 1.0
C      1  0.4177700000000  0.5624540000000  0.4609240000000 1.0
C      1  0.4385750000000  0.5391340000000  0.4199520000000 1.0
C      1  0.5610180000000  0.4574910000000  0.4189660000000 1.0
C      1  0.5604270000000  0.5386460000000  0.5812690000000 1.0
C      1  0.4604020000000  0.4387740000000  0.5806660000000 1.0
C      1  0.5804440000000  0.4601990000000  0.4393900000000 1.0
C      1  0.4381300000000  0.5816840000000  0.4610410000000 1.0
C      1  0.4610550000000  0.5587290000000  0.4209580000000 1.0
C      1  0.5393310000000  0.5598080000000  0.5807620000000 1.0
C      1  0.5400410000000  0.4364080000000  0.4175210000000 1.0
C      1  0.5811010000000  0.5407250000000  0.5622690000000 1.0
C      1  0.4193500000000  0.5407540000000  0.4405470000000 1.0
C      1  0.4189190000000  0.4608950000000  0.5622600000000 1.0
C      1  0.4393120000000  0.4205300000000  0.5399370000000 1.0
C      1  0.5607730000000  0.4186620000000  0.4585770000000 1.0
C      1  0.5596700000000  0.5803230000000  0.5392720000000 1.0
C      1  0.4460470000000  0.5330180000000  0.5736710000000 1.0
C      1  0.5284740000000  0.5675050000000  0.4454090000000 1.0
C      1  0.5751820000000  0.4495330000000  0.5327810000000 1.0
C      1  0.4467110000000  0.4666440000000  0.4248310000000 1.0
C      1  0.5548410000000  0.5284620000000  0.4294750000000 1.0
C      1  0.5507320000000  0.4651470000000  0.5740280000000 1.0
C      1  0.5334790000000  0.4256200000000  0.5468260000000 1.0
C      1  0.4682470000000  0.5734510000000  0.5547230000000 1.0
C      1  0.4634690000000  0.4227440000000  0.4459510000000 1.0
C      1  0.5704830000000  0.5556230000000  0.4683740000000 1.0
C      1  0.4280700000000  0.4516310000000  0.4691640000000 1.0
C      1  0.4229560000000  0.5576790000000  0.5363070000000 1.0
C      1  0.4452940000000  0.5778460000000  0.5365520000000 1.0
C      1  0.5320760000000  0.4433490000000  0.5698200000000 1.0
C      1  0.5743590000000  0.5332690000000  0.4502800000000 1.0
C      1  0.4456780000000  0.4287180000000  0.4689960000000 1.0
C      1  0.5550240000000  0.4293240000000  0.5284400000000 1.0
C      1  0.5469660000000  0.5729340000000  0.4666360000000 1.0
C      1  0.5326200000000  0.5462700000000  0.4262720000000 1.0
C      1  0.4679960000000  0.5514820000000  0.5733640000000 1.0
C      1  0.4641400000000  0.4425580000000  0.4231340000000 1.0
C      1  0.5731000000000  0.4673740000000  0.5554400000000 1.0
C      1  0.4294320000000  0.4703720000000  0.4478100000000 1.0
C      1  0.4238220000000  0.5346840000000  0.5549440000000 1.0
C      1  0.4703980000000  0.5289590000000  0.4746670000000 1.0
C      1  0.5281990000000  0.4687830000000  0.4686610000000 1.0
C      1  0.4753070000000  0.4758760000000  0.5428800000000 1.0
C      1  0.5446580000000  0.5254570000000  0.5266200000000 1.0
END
