TITL C-3623282-6910-1401 -1583.37869950021 125000 -1070.14198849775 0 0 174 (C1) n - 1
REM
REM in /home/nfs/bkarasulu/CARBON/AIRSS/Generating-Clusters/LCBOP/Higher-Symm/SD-CG/FIRE-CG
REM
REM
REM
REM
REM
REM ./C.cell (b20cbc046b6831c77cfcea5457e17084)
REM AIRSS Version 0.9.1 bugfix July 2018 build 013d7b7c2542+ Fri, 06 Jul 2018 19:26:36 +0100
REM compiler GCC version 9.2.1 20190827 (Red Hat 9.2.1-1)
REM options -cpp -mtune=generic -march=x86-64 -g -O0 -fpre-include=/usr/include/finclude/math-vector-fortran.h
REM seed -437765762 -365181050 -1840335057 -309361770 32266438 -293920393 1348617755 710262404 1805839770 1760028912 1893703196 -1029858081 2047090415 118129845 -1567437096 -1587784975 436229445 1208322439 -917073132 -39716786 -1193099779 526643202 1219594453 -2126666177 1737342188 966734560 -1320481798 -1455781055 461313574 -401602036 2146278844 -3545097 -2115833164
REM
CELL 1.54180   50.00000   50.00000   50.00000   90.00000   90.00000   90.00000
LATT -1
SFAC C  
C      1  0.4544280000000  0.4459790000000  0.5402580000000 1.0
C      1  0.5485350000000  0.4400950000000  0.4842760000000 1.0
C      1  0.5081160000000  0.5771850000000  0.5894480000000 1.0
C      1  0.4748480000000  0.5211020000000  0.5735810000000 1.0
C      1  0.5275980000000  0.4461120000000  0.4641020000000 1.0
C      1  0.4748530000000  0.5399340000000  0.5517170000000 1.0
C      1  0.3723180000000  0.5143120000000  0.4902230000000 1.0
C      1  0.6058230000000  0.4106760000000  0.4575720000000 1.0
C      1  0.4220540000000  0.5607380000000  0.5595020000000 1.0
C      1  0.4487760000000  0.4705850000000  0.6019420000000 1.0
C      1  0.5969660000000  0.5258290000000  0.5558340000000 1.0
C      1  0.4542320000000  0.5330800000000  0.5338050000000 1.0
C      1  0.4378860000000  0.5182070000000  0.4923020000000 1.0
C      1  0.3901930000000  0.5562550000000  0.5056400000000 1.0
C      1  0.5136610000000  0.3665280000000  0.5137600000000 1.0
C      1  0.5552450000000  0.4572240000000  0.5062990000000 1.0
C      1  0.4412970000000  0.4891270000000  0.5286670000000 1.0
C      1  0.6167310000000  0.5415200000000  0.4838040000000 1.0
C      1  0.4011120000000  0.5487690000000  0.4308720000000 1.0
C      1  0.4408420000000  0.4876570000000  0.5568100000000 1.0
C      1  0.5044240000000  0.5419110000000  0.4133120000000 1.0
C      1  0.4053040000000  0.5432250000000  0.5758650000000 1.0
C      1  0.5569540000000  0.3930950000000  0.4991720000000 1.0
C      1  0.5197670000000  0.5007950000000  0.3915390000000 1.0
C      1  0.5276280000000  0.5194910000000  0.5534590000000 1.0
C      1  0.3803270000000  0.5397460000000  0.5293610000000 1.0
C      1  0.5969210000000  0.4812890000000  0.5757680000000 1.0
C      1  0.4256280000000  0.4987630000000  0.4761860000000 1.0
C      1  0.4458980000000  0.4499710000000  0.4235880000000 1.0
C      1  0.5504120000000  0.6075810000000  0.4610390000000 1.0
C      1  0.5403680000000  0.5685880000000  0.4319390000000 1.0
C      1  0.5691690000000  0.3922250000000  0.5250700000000 1.0
C      1  0.4133790000000  0.5741640000000  0.5025160000000 1.0
C      1  0.4213120000000  0.5297630000000  0.4202390000000 1.0
C      1  0.5623640000000  0.4150160000000  0.4809630000000 1.0
C      1  0.5408860000000  0.5738130000000  0.5540630000000 1.0
C      1  0.5746470000000  0.5587100000000  0.5212160000000 1.0
C      1  0.5317650000000  0.6171840000000  0.5296070000000 1.0
C      1  0.5338680000000  0.3759330000000  0.4980660000000 1.0
C      1  0.4605480000000  0.5887050000000  0.5943900000000 1.0
C      1  0.4845620000000  0.5766060000000  0.4411190000000 1.0
C      1  0.5699730000000  0.4731710000000  0.5785830000000 1.0
C      1  0.5298800000000  0.5606160000000  0.5783890000000 1.0
C      1  0.3725930000000  0.5134700000000  0.5186700000000 1.0
C      1  0.5290440000000  0.4928370000000  0.5494460000000 1.0
C      1  0.3752410000000  0.4913630000000  0.5357080000000 1.0
C      1  0.4876600000000  0.4764100000000  0.5151810000000 1.0
C      1  0.5211290000000  0.4970250000000  0.4623270000000 1.0
C      1  0.5779150000000  0.5725710000000  0.4960700000000 1.0
C      1  0.5764810000000  0.5008120000000  0.4961710000000 1.0
C      1  0.6316180000000  0.4072290000000  0.4589420000000 1.0
C      1  0.4531860000000  0.4286560000000  0.5621550000000 1.0
C      1  0.4755290000000  0.5468430000000  0.6138040000000 1.0
C      1  0.5570350000000  0.5198510000000  0.5895160000000 1.0
C      1  0.4164210000000  0.4191900000000  0.4819160000000 1.0
C      1  0.4524780000000  0.6032290000000  0.5054860000000 1.0
C      1  0.4034900000000  0.4809010000000  0.4732900000000 1.0
C      1  0.5566090000000  0.3915410000000  0.5492820000000 1.0
C      1  0.4467610000000  0.5577270000000  0.4640390000000 1.0
C      1  0.5292160000000  0.4969410000000  0.4920040000000 1.0
C      1  0.5106190000000  0.5651970000000  0.4935900000000 1.0
C      1  0.5297930000000  0.5333650000000  0.5286900000000 1.0
C      1  0.3804630000000  0.5416320000000  0.4805060000000 1.0
C      1  0.5181270000000  0.4696660000000  0.4496830000000 1.0
C      1  0.3793590000000  0.4954280000000  0.4699590000000 1.0
C      1  0.4812740000000  0.5899100000000  0.5537810000000 1.0
C      1  0.4872210000000  0.4734200000000  0.5637550000000 1.0
C      1  0.4295190000000  0.5433760000000  0.5383690000000 1.0
C      1  0.5561650000000  0.4443830000000  0.4175130000000 1.0
C      1  0.4619270000000  0.4770100000000  0.4545790000000 1.0
C      1  0.4558710000000  0.5352680000000  0.4775680000000 1.0
C      1  0.6061410000000  0.4980690000000  0.5547330000000 1.0
C      1  0.5426950000000  0.3997660000000  0.4284210000000 1.0
C      1  0.6546410000000  0.5745280000000  0.3829390000000 1.0
C      1  0.4559090000000  0.5939450000000  0.5663410000000 1.0
C      1  0.5379320000000  0.4790570000000  0.3884490000000 1.0
C      1  0.4176220000000  0.5225840000000  0.5936440000000 1.0
C      1  0.4782350000000  0.4625390000000  0.5384370000000 1.0
C      1  0.3821810000000  0.5406940000000  0.5582200000000 1.0
C      1  0.5175710000000  0.4124830000000  0.4210220000000 1.0
C      1  0.4626650000000  0.3853040000000  0.4994770000000 1.0
C      1  0.5200410000000  0.4174590000000  0.5343870000000 1.0
C      1  0.5689650000000  0.4525470000000  0.5316050000000 1.0
C      1  0.5149270000000  0.5155920000000  0.5098700000000 1.0
C      1  0.4845700000000  0.5067110000000  0.5061170000000 1.0
C      1  0.4594330000000  0.5607680000000  0.4383160000000 1.0
C      1  0.4980960000000  0.4708180000000  0.4272050000000 1.0
C      1  0.5032940000000  0.4174610000000  0.5137570000000 1.0
C      1  0.6025090000000  0.5011920000000  0.5074000000000 1.0
C      1  0.4691880000000  0.4048730000000  0.4458060000000 1.0
C      1  0.4705420000000  0.4645070000000  0.4308950000000 1.0
C      1  0.5099520000000  0.5661300000000  0.4287420000000 1.0
C      1  0.4553490000000  0.5108770000000  0.5156210000000 1.0
C      1  0.4747650000000  0.6083880000000  0.4876430000000 1.0
C      1  0.4499530000000  0.4214470000000  0.4307140000000 1.0
C      1  0.5001140000000  0.4595440000000  0.4973500000000 1.0
C      1  0.4918190000000  0.4308110000000  0.4907960000000 1.0
C      1  0.6395240000000  0.5617430000000  0.3998980000000 1.0
C      1  0.5296830000000  0.3987260000000  0.5536890000000 1.0
C      1  0.5050590000000  0.5979710000000  0.5676910000000 1.0
C      1  0.3842810000000  0.5088640000000  0.4441060000000 1.0
C      1  0.4626030000000  0.4350150000000  0.4869060000000 1.0
C      1  0.4258540000000  0.5719040000000  0.4764650000000 1.0
C      1  0.5965150000000  0.5414820000000  0.5308220000000 1.0
C      1  0.4202070000000  0.4674820000000  0.4290970000000 1.0
C      1  0.5405640000000  0.6217070000000  0.4814440000000 1.0
C      1  0.5304030000000  0.4491510000000  0.5649610000000 1.0
C      1  0.4436000000000  0.4972410000000  0.4541220000000 1.0
C      1  0.5248160000000  0.4535280000000  0.3837760000000 1.0
C      1  0.5067540000000  0.4264320000000  0.4654610000000 1.0
C      1  0.4806700000000  0.5210110000000  0.4779250000000 1.0
C      1  0.6076440000000  0.4845900000000  0.5295570000000 1.0
C      1  0.4630960000000  0.4016210000000  0.5547680000000 1.0
C      1  0.4068770000000  0.4593700000000  0.4542240000000 1.0
C      1  0.5691780000000  0.5257360000000  0.4858220000000 1.0
C      1  0.4691910000000  0.3855350000000  0.5286900000000 1.0
C      1  0.4150820000000  0.4805580000000  0.5659800000000 1.0
C      1  0.4379070000000  0.4270710000000  0.4980410000000 1.0
C      1  0.4963490000000  0.5137630000000  0.4562230000000 1.0
C      1  0.3904980000000  0.4807560000000  0.5550460000000 1.0
C      1  0.4310190000000  0.5902140000000  0.5207580000000 1.0
C      1  0.5060460000000  0.3836470000000  0.5609100000000 1.0
C      1  0.4676760000000  0.4938690000000  0.5675830000000 1.0
C      1  0.4944740000000  0.5660390000000  0.5145480000000 1.0
C      1  0.6018900000000  0.5499710000000  0.4603120000000 1.0
C      1  0.5602870000000  0.4739740000000  0.4085900000000 1.0
C      1  0.5414180000000  0.5156460000000  0.4510580000000 1.0
C      1  0.5537890000000  0.5192560000000  0.4263820000000 1.0
C      1  0.5538010000000  0.4844970000000  0.4994290000000 1.0
C      1  0.4812730000000  0.5965000000000  0.4619680000000 1.0
C      1  0.6242040000000  0.5487770000000  0.4171900000000 1.0
C      1  0.5233300000000  0.6235220000000  0.5035510000000 1.0
C      1  0.5288450000000  0.5998550000000  0.5511750000000 1.0
C      1  0.4848630000000  0.3973520000000  0.5760280000000 1.0
C      1  0.4956850000000  0.6242160000000  0.4982850000000 1.0
C      1  0.4416500000000  0.5059100000000  0.6034960000000 1.0
C      1  0.5524980000000  0.4912660000000  0.5936020000000 1.0
C      1  0.4953520000000  0.3724240000000  0.5351400000000 1.0
C      1  0.5297090000000  0.5541370000000  0.4789970000000 1.0
C      1  0.4035370000000  0.4329510000000  0.4628040000000 1.0
C      1  0.5005660000000  0.4949680000000  0.4124840000000 1.0
C      1  0.4091390000000  0.5011510000000  0.4255830000000 1.0
C      1  0.6115220000000  0.5287840000000  0.5087530000000 1.0
C      1  0.5816590000000  0.5305240000000  0.5794800000000 1.0
C      1  0.5110630000000  0.4659790000000  0.5780270000000 1.0
C      1  0.5804440000000  0.5694820000000  0.4668640000000 1.0
C      1  0.5479190000000  0.5347230000000  0.4708590000000 1.0
C      1  0.5252620000000  0.4819360000000  0.5975680000000 1.0
C      1  0.4653170000000  0.5241540000000  0.6007240000000 1.0
C      1  0.4944610000000  0.5187470000000  0.4280910000000 1.0
C      1  0.4592980000000  0.4388890000000  0.5894910000000 1.0
C      1  0.4603250000000  0.4605580000000  0.4760890000000 1.0
C      1  0.3845200000000  0.5382930000000  0.4515790000000 1.0
C      1  0.5725450000000  0.4984200000000  0.4193100000000 1.0
C      1  0.4973540000000  0.4128320000000  0.4422110000000 1.0
C      1  0.5783560000000  0.4148210000000  0.4570160000000 1.0
C      1  0.5639480000000  0.4195670000000  0.4328610000000 1.0
C      1  0.6075500000000  0.5356870000000  0.4356380000000 1.0
C      1  0.4829300000000  0.5722190000000  0.6034070000000 1.0
C      1  0.4636160000000  0.3899500000000  0.4716710000000 1.0
C      1  0.5480790000000  0.5563600000000  0.5321220000000 1.0
C      1  0.4850010000000  0.5648180000000  0.5407790000000 1.0
C      1  0.4794640000000  0.4180020000000  0.5970740000000 1.0
C      1  0.5284200000000  0.4352360000000  0.4053710000000 1.0
C      1  0.4328630000000  0.5862190000000  0.5508160000000 1.0
C      1  0.5969860000000  0.4582330000000  0.5295520000000 1.0
C      1  0.5575590000000  0.4554210000000  0.5585290000000 1.0
C      1  0.5583450000000  0.5822290000000  0.4511430000000 1.0
C      1  0.5538390000000  0.5465890000000  0.4182320000000 1.0
C      1  0.5344520000000  0.5327130000000  0.5777630000000 1.0
C      1  0.5173400000000  0.5298700000000  0.3895990000000 1.0
C      1  0.4338920000000  0.4403940000000  0.5221020000000 1.0
C      1  0.4470950000000  0.5428470000000  0.4190510000000 1.0
C      1  0.5978110000000  0.5094820000000  0.4278670000000 1.0
END
