TITL C-3623287-7182-1304 3658.16164202205 125000 -597.514572168384 0 0 99 (C1) n - 1
REM
REM in /home/nfs/bkarasulu/CARBON/AIRSS/Generating-Clusters/LCBOP/Higher-Symm/SD-CG/FIRE-CG
REM
REM
REM
REM
REM
REM ./C.cell (b20cbc046b6831c77cfcea5457e17084)
REM AIRSS Version 0.9.1 bugfix July 2018 build 013d7b7c2542+ Fri, 06 Jul 2018 19:26:36 +0100
REM compiler GCC version 9.2.1 20190827 (Red Hat 9.2.1-1)
REM options -cpp -mtune=generic -march=x86-64 -g -O0 -fpre-include=/usr/include/finclude/math-vector-fortran.h
REM seed -1971267474 1695058033 -1502886678 1082198207 -395077382 -593917035 -1922490652 -1291543910 -1565295567 -1549782132 1822145808 1923234357 1252765096 -758757111 -965518360 589427007 1810174845 -113946808 -894923972 1728394138 1464168190 1439642181 429169155 388265415 -788622386 -1086921945 -778321222 1070753251 1292025034 -1464816586 -1994396566 -1338855137 2076097531
REM
CELL 1.54180   50.00000   50.00000   50.00000   90.00000   90.00000   90.00000
LATT -1
SFAC C  
C      1  0.4344930000000  0.5373280000000  0.4773130000000 1.0
C      1  0.5673230000000  0.5445860000000  0.4797640000000 1.0
C      1  0.4998050000000  0.4230850000000  0.4771280000000 1.0
C      1  0.4790240000000  0.5200600000000  0.5892160000000 1.0
C      1  0.5284670000000  0.5085320000000  0.5908650000000 1.0
C      1  0.4938620000000  0.4713730000000  0.5897160000000 1.0
C      1  0.4584290000000  0.5804460000000  0.4765000000000 1.0
C      1  0.5885860000000  0.5000630000000  0.4764850000000 1.0
C      1  0.4501710000000  0.4230760000000  0.4765580000000 1.0
C      1  0.5835150000000  0.4408220000000  0.4539840000000 1.0
C      1  0.3989320000000  0.4591590000000  0.4579970000000 1.0
C      1  0.5129950000000  0.6123330000000  0.4603380000000 1.0
C      1  0.5211470000000  0.5654590000000  0.5194710000000 1.0
C      1  0.5450980000000  0.4500540000000  0.5184180000000 1.0
C      1  0.4363770000000  0.4862260000000  0.5170960000000 1.0
C      1  0.4753780000000  0.4106350000000  0.5457830000000 1.0
C      1  0.4335580000000  0.5651790000000  0.5455000000000 1.0
C      1  0.5899620000000  0.5249020000000  0.5470520000000 1.0
C      1  0.5034290000000  0.4374800000000  0.3771880000000 1.0
C      1  0.4845220000000  0.4820710000000  0.4430210000000 1.0
C      1  0.5097140000000  0.5234840000000  0.4420370000000 1.0
C      1  0.4149350000000  0.5833000000000  0.5559420000000 1.0
C      1  0.6152050000000  0.5297270000000  0.5581620000000 1.0
C      1  0.4670190000000  0.3862740000000  0.5567850000000 1.0
C      1  0.4388550000000  0.5413340000000  0.5600440000000 1.0
C      1  0.5669370000000  0.5329210000000  0.5617180000000 1.0
C      1  0.4949200000000  0.4258020000000  0.5598480000000 1.0
C      1  0.5036830000000  0.5619970000000  0.4762100000000 1.0
C      1  0.5466830000000  0.4728000000000  0.4770380000000 1.0
C      1  0.4485480000000  0.4729000000000  0.4739200000000 1.0
C      1  0.4203830000000  0.5105310000000  0.4744170000000 1.0
C      1  0.5499560000000  0.5704090000000  0.4773300000000 1.0
C      1  0.5301890000000  0.4286590000000  0.4738800000000 1.0
C      1  0.3973390000000  0.6000830000000  0.5653140000000 1.0
C      1  0.6387650000000  0.5345290000000  0.5682110000000 1.0
C      1  0.4594630000000  0.3633820000000  0.5666850000000 1.0
C      1  0.4826120000000  0.4908240000000  0.5340760000000 1.0
C      1  0.5019080000000  0.5208470000000  0.5345570000000 1.0
C      1  0.5174770000000  0.4874650000000  0.5398960000000 1.0
C      1  0.4946550000000  0.5706490000000  0.4500080000000 1.0
C      1  0.5565890000000  0.4787760000000  0.4504400000000 1.0
C      1  0.4441590000000  0.4590870000000  0.4485490000000 1.0
C      1  0.5266830000000  0.5347450000000  0.4244700000000 1.0
C      1  0.5068900000000  0.4345070000000  0.4028440000000 1.0
C      1  0.4688360000000  0.4996360000000  0.4293910000000 1.0
C      1  0.5055120000000  0.6052890000000  0.4880940000000 1.0
C      1  0.5835740000000  0.4472420000000  0.4828640000000 1.0
C      1  0.4083750000000  0.4559370000000  0.4858630000000 1.0
C      1  0.4242610000000  0.4828260000000  0.4897840000000 1.0
C      1  0.5228450000000  0.5794440000000  0.4924920000000 1.0
C      1  0.5528910000000  0.4452490000000  0.4894540000000 1.0
C      1  0.4660890000000  0.5662550000000  0.4516410000000 1.0
C      1  0.5721660000000  0.5030380000000  0.4522240000000 1.0
C      1  0.4587450000000  0.4342190000000  0.4506640000000 1.0
C      1  0.5652800000000  0.5317670000000  0.4518000000000 1.0
C      1  0.4879380000000  0.4291550000000  0.4490240000000 1.0
C      1  0.4502320000000  0.5412350000000  0.4507430000000 1.0
C      1  0.5172030000000  0.5887490000000  0.4432380000000 1.0
C      1  0.5595550000000  0.4509490000000  0.4399770000000 1.0
C      1  0.4188000000000  0.4723330000000  0.4407110000000 1.0
C      1  0.5064780000000  0.5267130000000  0.5928890000000 1.0
C      1  0.5204060000000  0.4813120000000  0.5937680000000 1.0
C      1  0.4741900000000  0.4919530000000  0.5915850000000 1.0
C      1  0.5428800000000  0.5743860000000  0.4474460000000 1.0
C      1  0.5352230000000  0.4349020000000  0.4443040000000 1.0
C      1  0.4224870000000  0.5015720000000  0.4447960000000 1.0
C      1  0.4361680000000  0.4268230000000  0.5197960000000 1.0
C      1  0.4657280000000  0.5927630000000  0.5199480000000 1.0
C      1  0.5955430000000  0.4843730000000  0.5185910000000 1.0
C      1  0.4460780000000  0.5712230000000  0.5208780000000 1.0
C      1  0.5883820000000  0.5125630000000  0.5216570000000 1.0
C      1  0.4642840000000  0.4189140000000  0.5211280000000 1.0
C      1  0.5823600000000  0.5238460000000  0.4951800000000 1.0
C      1  0.4753800000000  0.4184530000000  0.4938660000000 1.0
C      1  0.4415140000000  0.5612020000000  0.4936170000000 1.0
C      1  0.5313180000000  0.4873670000000  0.4947680000000 1.0
C      1  0.4715470000000  0.4727280000000  0.4893360000000 1.0
C      1  0.4998680000000  0.5380330000000  0.4887300000000 1.0
C      1  0.4228400000000  0.4974630000000  0.5384790000000 1.0
C      1  0.5379950000000  0.5705550000000  0.5409240000000 1.0
C      1  0.5414940000000  0.4303840000000  0.5376800000000 1.0
C      1  0.4264350000000  0.4327380000000  0.4929530000000 1.0
C      1  0.4765090000000  0.5983260000000  0.4934690000000 1.0
C      1  0.5938430000000  0.4742650000000  0.4913450000000 1.0
C      1  0.5490330000000  0.5485120000000  0.4347020000000 1.0
C      1  0.5098520000000  0.4329360000000  0.4303520000000 1.0
C      1  0.4466610000000  0.5163610000000  0.4355270000000 1.0
C      1  0.5096230000000  0.4949670000000  0.4803160000000 1.0
C      1  0.4916760000000  0.4770830000000  0.4704830000000 1.0
C      1  0.5061650000000  0.5192190000000  0.4696140000000 1.0
C      1  0.5327270000000  0.4761050000000  0.5206810000000 1.0
C      1  0.4649010000000  0.4815030000000  0.5157360000000 1.0
C      1  0.5064720000000  0.5404820000000  0.5163810000000 1.0
C      1  0.4231240000000  0.5189210000000  0.5541020000000 1.0
C      1  0.5559600000000  0.5580950000000  0.5560510000000 1.0
C      1  0.5218500000000  0.4214610000000  0.5532750000000 1.0
C      1  0.4601450000000  0.5374040000000  0.5779580000000 1.0
C      1  0.5528920000000  0.5165650000000  0.5797650000000 1.0
C      1  0.4890330000000  0.4463050000000  0.5781820000000 1.0
END
