TITL C-3623282-6910-736 -9.14555688823014e-07 125000 -655.48530860872 0 0 107 (C1) n - 1
REM
REM in /home/nfs/bkarasulu/CARBON/AIRSS/Generating-Clusters/LCBOP/Higher-Symm/SD-CG/FIRE-CG
REM
REM
REM
REM
REM
REM ./C.cell (b20cbc046b6831c77cfcea5457e17084)
REM AIRSS Version 0.9.1 bugfix July 2018 build 013d7b7c2542+ Fri, 06 Jul 2018 19:26:36 +0100
REM compiler GCC version 9.2.1 20190827 (Red Hat 9.2.1-1)
REM options -cpp -mtune=generic -march=x86-64 -g -O0 -fpre-include=/usr/include/finclude/math-vector-fortran.h
REM seed -528930739 1372155008 -1490983477 795344685 863514082 1366898307 945126265 -834958579 776552181 713306898 27241267 -1255742477 -308519019 1204809775 -535863097 1102092641 -1060126919 399642620 1500254984 1075468281 -146215740 -688696926 2086075586 -117345232 1919720879 -1382980312 -1946169715 2029184496 -1656747900 1788366292 1603740028 -900594591 -154843165
REM
CELL 1.54180   50.00000   50.00000   50.00000   90.00000   90.00000   90.00000
LATT -1
SFAC C  
C      1  0.5879640000000  0.4957260000000  0.5585570000000 1.0
C      1  0.4104640000000  0.4432300000000  0.4975140000000 1.0
C      1  0.5848170000000  0.5126510000000  0.4403060000000 1.0
C      1  0.4134850000000  0.5591910000000  0.5099060000000 1.0
C      1  0.4891910000000  0.4385960000000  0.5708190000000 1.0
C      1  0.5182640000000  0.4301100000000  0.4363670000000 1.0
C      1  0.4831430000000  0.5629290000000  0.4274350000000 1.0
C      1  0.5136380000000  0.5705890000000  0.5603290000000 1.0
C      1  0.4303750000000  0.4641230000000  0.4586110000000 1.0
C      1  0.5702430000000  0.5520490000000  0.4653840000000 1.0
C      1  0.4285360000000  0.5339250000000  0.5480620000000 1.0
C      1  0.5728300000000  0.4571290000000  0.5343610000000 1.0
C      1  0.5221800000000  0.4551720000000  0.5032360000000 1.0
C      1  0.4792550000000  0.4985870000000  0.4591370000000 1.0
C      1  0.5142490000000  0.5361050000000  0.4951600000000 1.0
C      1  0.4825000000000  0.5043430000000  0.5410440000000 1.0
C      1  0.5028860000000  0.5235860000000  0.5394810000000 1.0
C      1  0.4995010000000  0.4665550000000  0.5187120000000 1.0
C      1  0.5019530000000  0.4822960000000  0.4706310000000 1.0
C      1  0.4938410000000  0.5388380000000  0.4762000000000 1.0
C      1  0.4579090000000  0.4993110000000  0.5285200000000 1.0
C      1  0.5446330000000  0.4716560000000  0.4996950000000 1.0
C      1  0.4555350000000  0.5023590000000  0.4739930000000 1.0
C      1  0.5385820000000  0.5200940000000  0.4934010000000 1.0
C      1  0.5366370000000  0.4396330000000  0.5596440000000 1.0
C      1  0.4703690000000  0.4393380000000  0.4401380000000 1.0
C      1  0.5307670000000  0.5650850000000  0.4396670000000 1.0
C      1  0.4663130000000  0.5594510000000  0.5634060000000 1.0
C      1  0.6061930000000  0.5050810000000  0.5385540000000 1.0
C      1  0.3900990000000  0.4625020000000  0.5020260000000 1.0
C      1  0.5946310000000  0.4971400000000  0.4621670000000 1.0
C      1  0.4038920000000  0.5373880000000  0.4942860000000 1.0
C      1  0.4154010000000  0.5348020000000  0.4680410000000 1.0
C      1  0.6271070000000  0.5224310000000  0.5442730000000 1.0
C      1  0.3661170000000  0.4571510000000  0.5148330000000 1.0
C      1  0.5835970000000  0.4707250000000  0.4645610000000 1.0
C      1  0.5088490000000  0.5442080000000  0.5216490000000 1.0
C      1  0.4927640000000  0.4777110000000  0.5455800000000 1.0
C      1  0.5120400000000  0.4531030000000  0.4758330000000 1.0
C      1  0.4877860000000  0.5248140000000  0.4528860000000 1.0
C      1  0.5296700000000  0.5848230000000  0.4836150000000 1.0
C      1  0.4677170000000  0.5152820000000  0.5843800000000 1.0
C      1  0.5372820000000  0.4169100000000  0.5153120000000 1.0
C      1  0.4668300000000  0.4837660000000  0.4200240000000 1.0
C      1  0.4932630000000  0.5558990000000  0.5744800000000 1.0
C      1  0.5104950000000  0.4271510000000  0.5555250000000 1.0
C      1  0.4960660000000  0.4457400000000  0.4269450000000 1.0
C      1  0.5034770000000  0.5754910000000  0.4437390000000 1.0
C      1  0.5539210000000  0.4341010000000  0.5352310000000 1.0
C      1  0.4514250000000  0.4626290000000  0.4377020000000 1.0
C      1  0.5477170000000  0.5715060000000  0.4640720000000 1.0
C      1  0.4495720000000  0.5345770000000  0.5693090000000 1.0
C      1  0.5245910000000  0.4927400000000  0.4530540000000 1.0
C      1  0.4719940000000  0.5527320000000  0.4874900000000 1.0
C      1  0.5257310000000  0.5150450000000  0.5543550000000 1.0
C      1  0.4768270000000  0.4477140000000  0.5122370000000 1.0
C      1  0.5260010000000  0.5183350000000  0.4130940000000 1.0
C      1  0.4711700000000  0.5888710000000  0.5176110000000 1.0
C      1  0.5291400000000  0.4845130000000  0.5897150000000 1.0
C      1  0.4778680000000  0.4094730000000  0.4848330000000 1.0
C      1  0.4329190000000  0.4908110000000  0.5383000000000 1.0
C      1  0.5705210000000  0.4662800000000  0.4891380000000 1.0
C      1  0.4297870000000  0.5106360000000  0.4646940000000 1.0
C      1  0.5615820000000  0.5352320000000  0.5057950000000 1.0
C      1  0.5016430000000  0.5866140000000  0.4722530000000 1.0
C      1  0.4952360000000  0.5281550000000  0.5871200000000 1.0
C      1  0.5091480000000  0.4153750000000  0.5278420000000 1.0
C      1  0.4958230000000  0.4740270000000  0.4181830000000 1.0
C      1  0.4381410000000  0.5528300000000  0.5255540000000 1.0
C      1  0.5628680000000  0.4801550000000  0.5531100000000 1.0
C      1  0.4345350000000  0.4508020000000  0.4843980000000 1.0
C      1  0.5607770000000  0.5290790000000  0.4462360000000 1.0
C      1  0.4133770000000  0.4872700000000  0.4664140000000 1.0
C      1  0.5836910000000  0.5378230000000  0.4880210000000 1.0
C      1  0.4133860000000  0.5114000000000  0.5358570000000 1.0
C      1  0.5876760000000  0.4687220000000  0.5119860000000 1.0
C      1  0.5427180000000  0.5116000000000  0.4646540000000 1.0
C      1  0.4559010000000  0.5378870000000  0.5044030000000 1.0
C      1  0.5433880000000  0.4992360000000  0.5390120000000 1.0
C      1  0.4556970000000  0.4602370000000  0.4997790000000 1.0
C      1  0.5188370000000  0.5105340000000  0.5819620000000 1.0
C      1  0.4859080000000  0.4205120000000  0.5100900000000 1.0
C      1  0.5173510000000  0.4932550000000  0.4247940000000 1.0
C      1  0.4792110000000  0.5804750000000  0.4910170000000 1.0
C      1  0.4638990000000  0.5126570000000  0.4150350000000 1.0
C      1  0.5313760000000  0.5849480000000  0.5122650000000 1.0
C      1  0.4681380000000  0.4860570000000  0.5850430000000 1.0
C      1  0.5378080000000  0.4149560000000  0.4856430000000 1.0
C      1  0.5859740000000  0.4518070000000  0.4451140000000 1.0
C      1  0.4124190000000  0.5534720000000  0.4484470000000 1.0
C      1  0.6465260000000  0.5392010000000  0.5488340000000 1.0
C      1  0.3436290000000  0.4527230000000  0.5272350000000 1.0
C      1  0.5984690000000  0.5119310000000  0.4873270000000 1.0
C      1  0.4003310000000  0.5122200000000  0.5089760000000 1.0
C      1  0.6010820000000  0.4950330000000  0.5121370000000 1.0
C      1  0.3973620000000  0.4881640000000  0.4916590000000 1.0
C      1  0.5395540000000  0.5399580000000  0.4269010000000 1.0
C      1  0.4584800000000  0.5723440000000  0.5379360000000 1.0
C      1  0.5434180000000  0.4655010000000  0.5726110000000 1.0
C      1  0.4701970000000  0.4189260000000  0.4603300000000 1.0
C      1  0.4767610000000  0.5350460000000  0.4287020000000 1.0
C      1  0.5193160000000  0.5686350000000  0.5323100000000 1.0
C      1  0.4821310000000  0.4660350000000  0.5692990000000 1.0
C      1  0.5245250000000  0.4302040000000  0.4640910000000 1.0
C      1  0.5370930000000  0.4965250000000  0.5108650000000 1.0
C      1  0.4611840000000  0.4979870000000  0.5011010000000 1.0
C      1  0.4968370000000  0.4907730000000  0.5004950000000 1.0
END
