TITL C-3623282-6910-610 92026.0461571625 125000 -356.73558022828 0 0 62 (C1) n - 1
REM
REM in /home/nfs/bkarasulu/CARBON/AIRSS/Generating-Clusters/LCBOP/Higher-Symm/SD-CG/FIRE-CG
REM
REM
REM
REM
REM
REM ./C.cell (b20cbc046b6831c77cfcea5457e17084)
REM AIRSS Version 0.9.1 bugfix July 2018 build 013d7b7c2542+ Fri, 06 Jul 2018 19:26:36 +0100
REM compiler GCC version 9.2.1 20190827 (Red Hat 9.2.1-1)
REM options -cpp -mtune=generic -march=x86-64 -g -O0 -fpre-include=/usr/include/finclude/math-vector-fortran.h
REM seed 531893787 -627380352 -1092260521 11686947 -643053345 -266390587 297583465 1595322481 241605539 1735672247 -1588683144 1527042072 1357694492 1870508967 1602187087 -396001030 -2128415514 65509369 -854147621 -801778122 -565795822 -459736427 -142303929 350687104 -859151707 703537154 -168953187 518818557 1526066937 116003580 -1155921748 -314751012 -1075632985
REM
CELL 1.54180   50.00000   50.00000   50.00000   90.00000   90.00000   90.00000
LATT -1
SFAC C  
C      1  0.4844030000000  0.4829550000000  0.5704670000000 1.0
C      1  0.5171330000000  0.5187640000000  0.5704960000000 1.0
C      1  0.4816680000000  0.4822690000000  0.4281390000000 1.0
C      1  0.5178450000000  0.5135270000000  0.4273130000000 1.0
C      1  0.5154050000000  0.4836850000000  0.5699780000000 1.0
C      1  0.4811610000000  0.5121470000000  0.5718290000000 1.0
C      1  0.5175330000000  0.4831400000000  0.4279340000000 1.0
C      1  0.4857120000000  0.5160140000000  0.4282020000000 1.0
C      1  0.5338760000000  0.4413330000000  0.5429580000000 1.0
C      1  0.4577870000000  0.5544090000000  0.5596410000000 1.0
C      1  0.5313520000000  0.4387580000000  0.4560690000000 1.0
C      1  0.4711640000000  0.5618740000000  0.4548550000000 1.0
C      1  0.4678260000000  0.4389780000000  0.5437630000000 1.0
C      1  0.5304340000000  0.5630070000000  0.5369580000000 1.0
C      1  0.4669820000000  0.4403310000000  0.4569820000000 1.0
C      1  0.5399250000000  0.5570020000000  0.4471750000000 1.0
C      1  0.5559810000000  0.5173360000000  0.5355020000000 1.0
C      1  0.4405220000000  0.4823230000000  0.5384320000000 1.0
C      1  0.5601220000000  0.5123630000000  0.4595620000000 1.0
C      1  0.4424530000000  0.4859360000000  0.4620030000000 1.0
C      1  0.4392440000000  0.5121230000000  0.5393080000000 1.0
C      1  0.5565340000000  0.4870130000000  0.5368220000000 1.0
C      1  0.4436250000000  0.5164160000000  0.4622370000000 1.0
C      1  0.5590980000000  0.4825340000000  0.4608800000000 1.0
C      1  0.4887840000000  0.5246580000000  0.4736380000000 1.0
C      1  0.5147500000000  0.4776020000000  0.4735860000000 1.0
C      1  0.4821870000000  0.5246460000000  0.5273840000000 1.0
C      1  0.5123620000000  0.4776480000000  0.5247920000000 1.0
C      1  0.5168570000000  0.5242020000000  0.4721630000000 1.0
C      1  0.4869140000000  0.4782000000000  0.4735400000000 1.0
C      1  0.5102790000000  0.5242600000000  0.5254370000000 1.0
C      1  0.4844890000000  0.4773080000000  0.5247930000000 1.0
C      1  0.5313130000000  0.4709110000000  0.5472110000000 1.0
C      1  0.4641150000000  0.5269780000000  0.5515290000000 1.0
C      1  0.5324550000000  0.4686940000000  0.4510410000000 1.0
C      1  0.4702840000000  0.5317560000000  0.4510000000000 1.0
C      1  0.4675670000000  0.4687670000000  0.5481050000000 1.0
C      1  0.5299200000000  0.5335310000000  0.5459510000000 1.0
C      1  0.4676740000000  0.4700760000000  0.4518470000000 1.0
C      1  0.5350990000000  0.5277500000000  0.4481590000000 1.0
C      1  0.5698760000000  0.4721240000000  0.4861190000000 1.0
C      1  0.4317540000000  0.5272230000000  0.4870910000000 1.0
C      1  0.5693360000000  0.4746220000000  0.5133510000000 1.0
C      1  0.4292450000000  0.5245840000000  0.5143520000000 1.0
C      1  0.4299930000000  0.4741700000000  0.4859330000000 1.0
C      1  0.5710940000000  0.5248520000000  0.4839120000000 1.0
C      1  0.4297300000000  0.4716890000000  0.5131950000000 1.0
C      1  0.5686630000000  0.5274930000000  0.5110520000000 1.0
C      1  0.5242520000000  0.4259320000000  0.5225730000000 1.0
C      1  0.4547810000000  0.5801850000000  0.5619580000000 1.0
C      1  0.5216600000000  0.4247880000000  0.4736860000000 1.0
C      1  0.4863560000000  0.5754440000000  0.4737400000000 1.0
C      1  0.4782740000000  0.4243410000000  0.5231360000000 1.0
C      1  0.5205350000000  0.5747420000000  0.5137280000000 1.0
C      1  0.4765900000000  0.4253810000000  0.4737580000000 1.0
C      1  0.5333090000000  0.5753430000000  0.4660890000000 1.0
C      1  0.4744840000000  0.5010250000000  0.5128250000000 1.0
C      1  0.5207860000000  0.5015540000000  0.5127260000000 1.0
C      1  0.4781220000000  0.5018310000000  0.4860950000000 1.0
C      1  0.5248310000000  0.5008470000000  0.4861460000000 1.0
C      1  0.5126860000000  0.5773280000000  0.4857990000000 1.0
C      1  0.5008080000000  0.4232770000000  0.5025830000000 1.0
END
