TITL C-3623288-6813-551 -8.10513682606296e-05 125000 -702.69536218119 0 0 114 (C1) n - 1
REM
REM in /home/nfs/bkarasulu/CARBON/AIRSS/Generating-Clusters/LCBOP/Higher-Symm/SD-CG/FIRE-CG
REM
REM
REM
REM
REM
REM ./C.cell (b20cbc046b6831c77cfcea5457e17084)
REM AIRSS Version 0.9.1 bugfix July 2018 build 013d7b7c2542+ Fri, 06 Jul 2018 19:26:36 +0100
REM compiler GCC version 9.2.1 20190827 (Red Hat 9.2.1-1)
REM options -cpp -mtune=generic -march=x86-64 -g -O0 -fpre-include=/usr/include/finclude/math-vector-fortran.h
REM seed 1786757218 796954265 440938440 -993823416 1983631022 166300264 561479874 1926840898 1923292524 -986644606 -1177693447 -34447407 1540387085 1361524002 2037312904 -434255848 -1069067617 -39179224 -29103043 1212922757 239575381 -1506578449 129387479 -1826447107 446465604 -369918390 -1214399627 -1401044530 464587772 702128798 -910753954 -1690388588 -144270244
REM
CELL 1.54180   50.00000   50.00000   50.00000   90.00000   90.00000   90.00000
LATT -1
SFAC C  
C      1  0.4943050000000  0.6685740000000  0.5516010000000 1.0
C      1  0.5856750000000  0.4921660000000  0.4733030000000 1.0
C      1  0.4058540000000  0.5165690000000  0.5357530000000 1.0
C      1  0.4948450000000  0.4053670000000  0.6410710000000 1.0
C      1  0.4933530000000  0.5395860000000  0.5287020000000 1.0
C      1  0.5448200000000  0.5581920000000  0.5610340000000 1.0
C      1  0.5196590000000  0.5358560000000  0.5184830000000 1.0
C      1  0.5447830000000  0.4863330000000  0.4108860000000 1.0
C      1  0.4877540000000  0.6156550000000  0.5429920000000 1.0
C      1  0.4937870000000  0.5759320000000  0.4733190000000 1.0
C      1  0.4963710000000  0.4339610000000  0.5721050000000 1.0
C      1  0.4351920000000  0.4429880000000  0.5471930000000 1.0
C      1  0.5761030000000  0.4636080000000  0.5119260000000 1.0
C      1  0.5038810000000  0.5567660000000  0.4151160000000 1.0
C      1  0.4500490000000  0.5275420000000  0.5387990000000 1.0
C      1  0.4944650000000  0.4035920000000  0.5339710000000 1.0
C      1  0.4765730000000  0.5169800000000  0.4102810000000 1.0
C      1  0.4566040000000  0.5595310000000  0.5802720000000 1.0
C      1  0.4810020000000  0.5989130000000  0.5645440000000 1.0
C      1  0.5213120000000  0.4467370000000  0.4932490000000 1.0
C      1  0.5712970000000  0.5024480000000  0.4496590000000 1.0
C      1  0.5035910000000  0.5325840000000  0.5739650000000 1.0
C      1  0.4546260000000  0.4352260000000  0.3765840000000 1.0
C      1  0.5047550000000  0.4280850000000  0.5986150000000 1.0
C      1  0.5612780000000  0.5798190000000  0.4517160000000 1.0
C      1  0.4763460000000  0.4484330000000  0.3688690000000 1.0
C      1  0.4911820000000  0.6053020000000  0.5169950000000 1.0
C      1  0.4961550000000  0.4660700000000  0.3678100000000 1.0
C      1  0.5801090000000  0.4223020000000  0.4604580000000 1.0
C      1  0.4326270000000  0.5441990000000  0.5760420000000 1.0
C      1  0.4911580000000  0.6430520000000  0.5473690000000 1.0
C      1  0.5238770000000  0.5020620000000  0.3519470000000 1.0
C      1  0.5025510000000  0.4758180000000  0.4547930000000 1.0
C      1  0.5295460000000  0.4400470000000  0.6054630000000 1.0
C      1  0.4046720000000  0.4426080000000  0.4320450000000 1.0
C      1  0.5569740000000  0.4881610000000  0.5528470000000 1.0
C      1  0.5614640000000  0.4407420000000  0.5222950000000 1.0
C      1  0.5029970000000  0.4579270000000  0.5127910000000 1.0
C      1  0.4937370000000  0.5942410000000  0.4928410000000 1.0
C      1  0.4791130000000  0.4641310000000  0.4437390000000 1.0
C      1  0.5136350000000  0.4874310000000  0.3726590000000 1.0
C      1  0.4656490000000  0.5420530000000  0.5186930000000 1.0
C      1  0.4032550000000  0.5359510000000  0.4838410000000 1.0
C      1  0.5483350000000  0.4598860000000  0.4527360000000 1.0
C      1  0.5066770000000  0.4982440000000  0.4964910000000 1.0
C      1  0.5331790000000  0.5344950000000  0.5721830000000 1.0
C      1  0.4867580000000  0.4144960000000  0.6160320000000 1.0
C      1  0.5313250000000  0.5495610000000  0.4974560000000 1.0
C      1  0.5547820000000  0.5548820000000  0.4386140000000 1.0
C      1  0.4290360000000  0.4882660000000  0.4830790000000 1.0
C      1  0.4913680000000  0.5192740000000  0.5515780000000 1.0
C      1  0.4156130000000  0.5346670000000  0.4574620000000 1.0
C      1  0.4276860000000  0.5070870000000  0.4188530000000 1.0
C      1  0.5794050000000  0.5591800000000  0.5225400000000 1.0
C      1  0.4615960000000  0.4737660000000  0.4256240000000 1.0
C      1  0.5640450000000  0.4392640000000  0.5505590000000 1.0
C      1  0.4552390000000  0.5872270000000  0.5701330000000 1.0
C      1  0.5485800000000  0.4550840000000  0.5935920000000 1.0
C      1  0.4676760000000  0.5043780000000  0.5429870000000 1.0
C      1  0.4155200000000  0.4310190000000  0.4107060000000 1.0
C      1  0.5301110000000  0.5378000000000  0.4732430000000 1.0
C      1  0.4519870000000  0.4231740000000  0.5589920000000 1.0
C      1  0.5057480000000  0.5037640000000  0.4458990000000 1.0
C      1  0.5320040000000  0.4884410000000  0.5355230000000 1.0
C      1  0.5785520000000  0.4873740000000  0.5298190000000 1.0
C      1  0.5146340000000  0.4662080000000  0.5376710000000 1.0
C      1  0.5018060000000  0.5056390000000  0.4171800000000 1.0
C      1  0.4603010000000  0.4104440000000  0.6068680000000 1.0
C      1  0.4187270000000  0.4641350000000  0.5433390000000 1.0
C      1  0.5603720000000  0.5684070000000  0.5414090000000 1.0
C      1  0.5028210000000  0.3970250000000  0.6644380000000 1.0
C      1  0.4648540000000  0.4896400000000  0.5172390000000 1.0
C      1  0.5203420000000  0.4938470000000  0.3994260000000 1.0
C      1  0.5914750000000  0.5136450000000  0.4906200000000 1.0
C      1  0.4524880000000  0.5557900000000  0.4259470000000 1.0
C      1  0.4254940000000  0.5307630000000  0.5516670000000 1.0
C      1  0.5376440000000  0.4290030000000  0.5099640000000 1.0
C      1  0.4033760000000  0.4620660000000  0.4501460000000 1.0
C      1  0.5231990000000  0.4592060000000  0.4667090000000 1.0
C      1  0.5591140000000  0.4614230000000  0.5681390000000 1.0
C      1  0.5068540000000  0.5291570000000  0.4599390000000 1.0
C      1  0.5883830000000  0.3978790000000  0.4567000000000 1.0
C      1  0.5933510000000  0.5358510000000  0.5316940000000 1.0
C      1  0.5832020000000  0.5382730000000  0.4779530000000 1.0
C      1  0.3992330000000  0.5280500000000  0.5097840000000 1.0
C      1  0.4135660000000  0.5095920000000  0.4433610000000 1.0
C      1  0.5248810000000  0.5078360000000  0.5162660000000 1.0
C      1  0.5795340000000  0.5624490000000  0.4935670000000 1.0
C      1  0.5554770000000  0.4827880000000  0.4363720000000 1.0
C      1  0.4986220000000  0.5811810000000  0.5789320000000 1.0
C      1  0.4823440000000  0.3811200000000  0.5238220000000 1.0
C      1  0.5304820000000  0.5552770000000  0.4223930000000 1.0
C      1  0.5705840000000  0.4477540000000  0.4657040000000 1.0
C      1  0.4332970000000  0.4287790000000  0.3910660000000 1.0
C      1  0.4869550000000  0.5496860000000  0.4648750000000 1.0
C      1  0.5819290000000  0.4661210000000  0.4841500000000 1.0
C      1  0.4064240000000  0.4880110000000  0.5396110000000 1.0
C      1  0.5909400000000  0.5109050000000  0.5189320000000 1.0
C      1  0.4477990000000  0.5026570000000  0.4979290000000 1.0
C      1  0.4131400000000  0.4862580000000  0.4599950000000 1.0
C      1  0.5709580000000  0.5837800000000  0.4769470000000 1.0
C      1  0.4451020000000  0.4133440000000  0.5848060000000 1.0
C      1  0.5207930000000  0.4103860000000  0.5243540000000 1.0
C      1  0.5698210000000  0.5322770000000  0.4509930000000 1.0
C      1  0.4869090000000  0.5545030000000  0.5834720000000 1.0
C      1  0.4543890000000  0.4990320000000  0.4144840000000 1.0
C      1  0.4803070000000  0.4191880000000  0.5537360000000 1.0
C      1  0.4871330000000  0.4790590000000  0.5041910000000 1.0
C      1  0.4766510000000  0.5456870000000  0.4136870000000 1.0
C      1  0.5506850000000  0.5116100000000  0.5711650000000 1.0
C      1  0.4558420000000  0.5302140000000  0.4943910000000 1.0
C      1  0.4604760000000  0.5426380000000  0.4702160000000 1.0
C      1  0.5045770000000  0.4583800000000  0.5619390000000 1.0
C      1  0.4405120000000  0.5481670000000  0.4510780000000 1.0
END
