TITL C-3623285-6872-241 -1.48773875434664e-07 125000 -736.397352344494 0 0 121 (C1) n - 1
REM
REM in /home/nfs/bkarasulu/CARBON/AIRSS/Generating-Clusters/LCBOP/Higher-Symm/SD-CG/FIRE-CG
REM
REM
REM
REM
REM
REM ./C.cell (b20cbc046b6831c77cfcea5457e17084)
REM AIRSS Version 0.9.1 bugfix July 2018 build 013d7b7c2542+ Fri, 06 Jul 2018 19:26:36 +0100
REM compiler GCC version 9.2.1 20190827 (Red Hat 9.2.1-1)
REM options -cpp -mtune=generic -march=x86-64 -g -O0 -fpre-include=/usr/include/finclude/math-vector-fortran.h
REM seed -1844429306 1160162216 1477033047 983306091 836134359 -545364109 -113106392 921912294 -485255431 462015229 -131712396 1953938190 -1413535929 1133870137 187945770 -2066807666 -2113059083 -1644647991 -1208548782 2030725889 930420390 941866462 -1450324396 -1204304192 1936573626 -500829748 1313754438 -544696004 197281229 2145651755 -538101747 -2056155572 756575243
REM
CELL 1.54180   50.00000   50.00000   50.00000   90.00000   90.00000   90.00000
LATT -1
SFAC C  
C      1  0.4970560000000  0.4938870000000  0.5421640000000 1.0
C      1  0.5279820000000  0.4898990000000  0.4378550000000 1.0
C      1  0.4105120000000  0.4622510000000  0.5008090000000 1.0
C      1  0.5721170000000  0.5835350000000  0.5200190000000 1.0
C      1  0.5961150000000  0.5273600000000  0.4794970000000 1.0
C      1  0.4599200000000  0.4610600000000  0.4334280000000 1.0
C      1  0.4290600000000  0.5807480000000  0.4890060000000 1.0
C      1  0.4022850000000  0.5080430000000  0.5105160000000 1.0
C      1  0.5224710000000  0.5570270000000  0.5291310000000 1.0
C      1  0.5879480000000  0.4177930000000  0.5324760000000 1.0
C      1  0.5613690000000  0.5268300000000  0.4373450000000 1.0
C      1  0.5007120000000  0.5718170000000  0.4915410000000 1.0
C      1  0.5306710000000  0.5616960000000  0.4540730000000 1.0
C      1  0.4962260000000  0.5870150000000  0.4664460000000 1.0
C      1  0.5044230000000  0.4166100000000  0.4531370000000 1.0
C      1  0.3790590000000  0.5230470000000  0.5092920000000 1.0
C      1  0.4540280000000  0.5772590000000  0.5503380000000 1.0
C      1  0.4363730000000  0.4322460000000  0.5323950000000 1.0
C      1  0.5110700000000  0.3964070000000  0.4747000000000 1.0
C      1  0.4819310000000  0.3875310000000  0.4833070000000 1.0
C      1  0.4325440000000  0.4987700000000  0.4744750000000 1.0
C      1  0.4876780000000  0.5405890000000  0.4493030000000 1.0
C      1  0.4845920000000  0.5319320000000  0.6073750000000 1.0
C      1  0.5074490000000  0.4574370000000  0.5930930000000 1.0
C      1  0.4289600000000  0.4258690000000  0.4483820000000 1.0
C      1  0.4887040000000  0.4508110000000  0.5240150000000 1.0
C      1  0.5134070000000  0.5827490000000  0.4436140000000 1.0
C      1  0.4967270000000  0.5447470000000  0.5301270000000 1.0
C      1  0.4875970000000  0.5363810000000  0.5551750000000 1.0
C      1  0.4512560000000  0.4875710000000  0.4286600000000 1.0
C      1  0.4109160000000  0.4891470000000  0.4907290000000 1.0
C      1  0.5617710000000  0.5480500000000  0.4177630000000 1.0
C      1  0.5894760000000  0.5363980000000  0.5069400000000 1.0
C      1  0.4651380000000  0.4428130000000  0.4777850000000 1.0
C      1  0.5444400000000  0.5675280000000  0.4089380000000 1.0
C      1  0.4815270000000  0.5509280000000  0.5053920000000 1.0
C      1  0.4412100000000  0.5535540000000  0.5490250000000 1.0
C      1  0.5180210000000  0.5788500000000  0.4148010000000 1.0
C      1  0.4624950000000  0.5022220000000  0.4071200000000 1.0
C      1  0.4681300000000  0.5850450000000  0.4629560000000 1.0
C      1  0.5556500000000  0.5722340000000  0.4605580000000 1.0
C      1  0.4283220000000  0.4797140000000  0.5978140000000 1.0
C      1  0.4212160000000  0.5083720000000  0.5323010000000 1.0
C      1  0.5717170000000  0.4208000000000  0.4861580000000 1.0
C      1  0.4964720000000  0.6031100000000  0.5535030000000 1.0
C      1  0.4931480000000  0.4625430000000  0.6167410000000 1.0
C      1  0.5164840000000  0.5370210000000  0.4505340000000 1.0
C      1  0.5181340000000  0.5859930000000  0.5628750000000 1.0
C      1  0.4310630000000  0.5540700000000  0.4917740000000 1.0
C      1  0.4688540000000  0.4902740000000  0.5046120000000 1.0
C      1  0.4851620000000  0.5324190000000  0.5813240000000 1.0
C      1  0.5253140000000  0.5748640000000  0.5070350000000 1.0
C      1  0.6188270000000  0.5093280000000  0.4839450000000 1.0
C      1  0.4724790000000  0.5235520000000  0.3944760000000 1.0
C      1  0.5341800000000  0.5170060000000  0.4413790000000 1.0
C      1  0.5992730000000  0.4896600000000  0.5227570000000 1.0
C      1  0.4339360000000  0.5022910000000  0.4463480000000 1.0
C      1  0.5498390000000  0.5892830000000  0.5037270000000 1.0
C      1  0.5038860000000  0.4396210000000  0.5459490000000 1.0
C      1  0.5930270000000  0.4696980000000  0.4762410000000 1.0
C      1  0.5288660000000  0.4784420000000  0.4125300000000 1.0
C      1  0.4605590000000  0.3951430000000  0.4987650000000 1.0
C      1  0.4061030000000  0.4273530000000  0.4644560000000 1.0
C      1  0.5883040000000  0.5168550000000  0.5290680000000 1.0
C      1  0.4528320000000  0.5366240000000  0.5035880000000 1.0
C      1  0.4540590000000  0.5092300000000  0.4905690000000 1.0
C      1  0.4726240000000  0.5952570000000  0.5382940000000 1.0
C      1  0.4647370000000  0.5592490000000  0.4490050000000 1.0
C      1  0.4816390000000  0.4406350000000  0.4988190000000 1.0
C      1  0.4804700000000  0.4779350000000  0.5266400000000 1.0
C      1  0.4497990000000  0.4444120000000  0.4542200000000 1.0
C      1  0.5255580000000  0.5004060000000  0.5043640000000 1.0
C      1  0.4670320000000  0.4338100000000  0.5750520000000 1.0
C      1  0.4989850000000  0.4307830000000  0.4312540000000 1.0
C      1  0.4970170000000  0.5695890000000  0.3983640000000 1.0
C      1  0.4264430000000  0.5280340000000  0.4372020000000 1.0
C      1  0.5335920000000  0.4789240000000  0.4879050000000 1.0
C      1  0.5323410000000  0.4703430000000  0.5892440000000 1.0
C      1  0.4444040000000  0.4112740000000  0.5139290000000 1.0
C      1  0.5350500000000  0.5642290000000  0.5535580000000 1.0
C      1  0.4825850000000  0.4495380000000  0.4212040000000 1.0
C      1  0.4227780000000  0.4796030000000  0.5718600000000 1.0
C      1  0.4446890000000  0.4765170000000  0.6185380000000 1.0
C      1  0.5586860000000  0.5490910000000  0.5585890000000 1.0
C      1  0.3991870000000  0.4417300000000  0.4858000000000 1.0
C      1  0.5229680000000  0.4972700000000  0.5324090000000 1.0
C      1  0.5809330000000  0.5165370000000  0.4561400000000 1.0
C      1  0.5328470000000  0.4711070000000  0.3878340000000 1.0
C      1  0.5386830000000  0.3873850000000  0.4631670000000 1.0
C      1  0.5580330000000  0.5932520000000  0.4771360000000 1.0
C      1  0.5737540000000  0.4496810000000  0.4842470000000 1.0
C      1  0.5891170000000  0.5633240000000  0.5149920000000 1.0
C      1  0.5686370000000  0.5046760000000  0.5743520000000 1.0
C      1  0.4828440000000  0.5479900000000  0.3912480000000 1.0
C      1  0.4241730000000  0.4817780000000  0.5439970000000 1.0
C      1  0.4402890000000  0.5510120000000  0.4379990000000 1.0
C      1  0.5976000000000  0.4416710000000  0.5408080000000 1.0
C      1  0.4395670000000  0.5310090000000  0.5319240000000 1.0
C      1  0.4693590000000  0.4699780000000  0.6262000000000 1.0
C      1  0.5424970000000  0.4811890000000  0.5443810000000 1.0
C      1  0.3580510000000  0.5383900000000  0.5077800000000 1.0
C      1  0.5673020000000  0.4124910000000  0.5139450000000 1.0
C      1  0.5211990000000  0.4034100000000  0.5020770000000 1.0
C      1  0.4313760000000  0.4072890000000  0.4285280000000 1.0
C      1  0.6095590000000  0.4849190000000  0.4957660000000 1.0
C      1  0.5869810000000  0.4668160000000  0.5341300000000 1.0
C      1  0.5592410000000  0.4666430000000  0.5274850000000 1.0
C      1  0.5250510000000  0.4756500000000  0.4616730000000 1.0
C      1  0.5615980000000  0.4021780000000  0.4669330000000 1.0
C      1  0.4461310000000  0.4293060000000  0.5588770000000 1.0
C      1  0.5276740000000  0.4251560000000  0.5424840000000 1.0
C      1  0.4986630000000  0.6299550000000  0.5596900000000 1.0
C      1  0.5531180000000  0.4624700000000  0.4998590000000 1.0
C      1  0.4532480000000  0.5949370000000  0.4859230000000 1.0
C      1  0.5488290000000  0.4846610000000  0.5716730000000 1.0
C      1  0.5850810000000  0.4875240000000  0.4547800000000 1.0
C      1  0.5396650000000  0.4112700000000  0.5214260000000 1.0
C      1  0.4659200000000  0.6030220000000  0.5109860000000 1.0
C      1  0.5741560000000  0.5248370000000  0.5544670000000 1.0
C      1  0.4936170000000  0.4429620000000  0.5724220000000 1.0
C      1  0.4235520000000  0.4579430000000  0.5262560000000 1.0
END
