TITL C-3623284-6838-745 1.60918054273565e-07 125000 -694.16436667753 0 0 113 (C1) n - 1
REM
REM in /home/nfs/bkarasulu/CARBON/AIRSS/Generating-Clusters/LCBOP/Higher-Symm/SD-CG/FIRE-CG
REM
REM
REM
REM
REM
REM ./C.cell (b20cbc046b6831c77cfcea5457e17084)
REM AIRSS Version 0.9.1 bugfix July 2018 build 013d7b7c2542+ Fri, 06 Jul 2018 19:26:36 +0100
REM compiler GCC version 9.2.1 20190827 (Red Hat 9.2.1-1)
REM options -cpp -mtune=generic -march=x86-64 -g -O0 -fpre-include=/usr/include/finclude/math-vector-fortran.h
REM seed -1036697707 -1241659828 -1820690834 -1705633447 805827217 763256108 334599114 -1046962180 -1108457093 2120655888 478377876 1983708338 951239804 -2025213377 253306659 92254322 2124453044 2133556882 -1570070725 -1842706930 2013861872 -1015523916 -638199195 1502661521 -1378896261 -636871450 -646342848 -879802362 -2090012954 366636536 1654855576 -1026784955 -2009716887
REM
CELL 1.54180   50.00000   50.00000   50.00000   90.00000   90.00000   90.00000
LATT -1
SFAC C  
C      1  0.4616390000000  0.5497200000000  0.5934860000000 1.0
C      1  0.4606940000000  0.5557910000000  0.4067070000000 1.0
C      1  0.4638570000000  0.3917790000000  0.4983700000000 1.0
C      1  0.4518660000000  0.5618110000000  0.5221850000000 1.0
C      1  0.4494910000000  0.4917250000000  0.4442770000000 1.0
C      1  0.4511070000000  0.4516960000000  0.5399660000000 1.0
C      1  0.5489400000000  0.4488180000000  0.4893100000000 1.0
C      1  0.5429140000000  0.5150840000000  0.5494600000000 1.0
C      1  0.5423470000000  0.5338000000000  0.4616650000000 1.0
C      1  0.5090900000000  0.4757070000000  0.4813000000000 1.0
C      1  0.5106870000000  0.4882960000000  0.5265720000000 1.0
C      1  0.5092760000000  0.5257400000000  0.4961040000000 1.0
C      1  0.5229740000000  0.5706300000000  0.4164060000000 1.0
C      1  0.5252240000000  0.3931570000000  0.4792670000000 1.0
C      1  0.5229900000000  0.5358880000000  0.6036300000000 1.0
C      1  0.5535320000000  0.5597820000000  0.4612110000000 1.0
C      1  0.5578870000000  0.4363720000000  0.4655340000000 1.0
C      1  0.5530180000000  0.5022610000000  0.5725930000000 1.0
C      1  0.5212540000000  0.4068910000000  0.4541670000000 1.0
C      1  0.5166460000000  0.5077810000000  0.6037760000000 1.0
C      1  0.5184250000000  0.5859140000000  0.4406090000000 1.0
C      1  0.5216370000000  0.4157610000000  0.5224770000000 1.0
C      1  0.5213720000000  0.5619270000000  0.5617830000000 1.0
C      1  0.5196930000000  0.5214400000000  0.4145930000000 1.0
C      1  0.5154020000000  0.5733760000000  0.5126030000000 1.0
C      1  0.5127950000000  0.4739180000000  0.4299040000000 1.0
C      1  0.5131850000000  0.4514990000000  0.5584290000000 1.0
C      1  0.5362030000000  0.4305280000000  0.4471590000000 1.0
C      1  0.5322540000000  0.4892390000000  0.5879880000000 1.0
C      1  0.5335010000000  0.5803760000000  0.4647050000000 1.0
C      1  0.4700560000000  0.5588060000000  0.4979510000000 1.0
C      1  0.4676680000000  0.4697190000000  0.4540340000000 1.0
C      1  0.4683020000000  0.4733580000000  0.5499210000000 1.0
C      1  0.4964260000000  0.4017400000000  0.4420510000000 1.0
C      1  0.4899290000000  0.5017490000000  0.6103670000000 1.0
C      1  0.4933950000000  0.5988490000000  0.4414040000000 1.0
C      1  0.4666570000000  0.4999390000000  0.5947910000000 1.0
C      1  0.4679900000000  0.5906560000000  0.4380120000000 1.0
C      1  0.4716820000000  0.4031950000000  0.4522500000000 1.0
C      1  0.5942100000000  0.4385440000000  0.4092390000000 1.0
C      1  0.5916190000000  0.4554180000000  0.6011450000000 1.0
C      1  0.5937810000000  0.6066390000000  0.4873280000000 1.0
C      1  0.4250330000000  0.5163820000000  0.5746750000000 1.0
C      1  0.4264690000000  0.5643740000000  0.4477120000000 1.0
C      1  0.4303910000000  0.4236730000000  0.4709940000000 1.0
C      1  0.5094080000000  0.4244480000000  0.5475030000000 1.0
C      1  0.5111160000000  0.5797160000000  0.5411860000000 1.0
C      1  0.5067470000000  0.4957030000000  0.4109940000000 1.0
C      1  0.4118300000000  0.4788140000000  0.5405960000000 1.0
C      1  0.4114670000000  0.5541750000000  0.4972540000000 1.0
C      1  0.4181040000000  0.4727560000000  0.4760010000000 1.0
C      1  0.4126570000000  0.5613700000000  0.4709660000000 1.0
C      1  0.4143540000000  0.4457610000000  0.4652480000000 1.0
C      1  0.4114180000000  0.4982210000000  0.5596430000000 1.0
C      1  0.5844120000000  0.4329600000000  0.4574500000000 1.0
C      1  0.5798690000000  0.4983070000000  0.5792420000000 1.0
C      1  0.5806470000000  0.5665220000000  0.4613330000000 1.0
C      1  0.5300900000000  0.4507840000000  0.4265900000000 1.0
C      1  0.5278820000000  0.4608220000000  0.5816440000000 1.0
C      1  0.5296960000000  0.5888590000000  0.4925980000000 1.0
C      1  0.5407720000000  0.4763040000000  0.4855190000000 1.0
C      1  0.5384770000000  0.4979600000000  0.5274610000000 1.0
C      1  0.5373320000000  0.5231650000000  0.4873030000000 1.0
C      1  0.4690570000000  0.5874760000000  0.4866720000000 1.0
C      1  0.4625080000000  0.4474710000000  0.4333690000000 1.0
C      1  0.4636410000000  0.4766620000000  0.5791250000000 1.0
C      1  0.5221260000000  0.5278650000000  0.4427030000000 1.0
C      1  0.5270790000000  0.4366160000000  0.5040560000000 1.0
C      1  0.5225030000000  0.5347510000000  0.5523810000000 1.0
C      1  0.4560080000000  0.4995630000000  0.4179410000000 1.0
C      1  0.4591230000000  0.4256870000000  0.5467440000000 1.0
C      1  0.4607200000000  0.5807260000000  0.5410370000000 1.0
C      1  0.4954780000000  0.5261930000000  0.5506540000000 1.0
C      1  0.4956150000000  0.5351710000000  0.4498470000000 1.0
C      1  0.5027200000000  0.4474580000000  0.4928030000000 1.0
C      1  0.4604250000000  0.4611160000000  0.4829540000000 1.0
C      1  0.4561270000000  0.5050500000000  0.5349650000000 1.0
C      1  0.4588880000000  0.5385140000000  0.4781700000000 1.0
C      1  0.4428010000000  0.5157250000000  0.4857010000000 1.0
C      1  0.4362110000000  0.4664990000000  0.4979440000000 1.0
C      1  0.4389880000000  0.5164820000000  0.5146770000000 1.0
C      1  0.5440990000000  0.4425260000000  0.5957800000000 1.0
C      1  0.5463850000000  0.6099590000000  0.5012480000000 1.0
C      1  0.5462110000000  0.4495110000000  0.4033880000000 1.0
C      1  0.5970070000000  0.5852130000000  0.4714290000000 1.0
C      1  0.5992910000000  0.4336210000000  0.4351620000000 1.0
C      1  0.5955780000000  0.4798890000000  0.5907680000000 1.0
C      1  0.4292160000000  0.5446120000000  0.5180300000000 1.0
C      1  0.4311650000000  0.4975360000000  0.4656800000000 1.0
C      1  0.4297050000000  0.4626170000000  0.5250550000000 1.0
C      1  0.5722280000000  0.6169950000000  0.4996020000000 1.0
C      1  0.5716480000000  0.4450690000000  0.3961930000000 1.0
C      1  0.5697240000000  0.4399840000000  0.6033060000000 1.0
C      1  0.5122290000000  0.5588820000000  0.5897870000000 1.0
C      1  0.5116730000000  0.5475270000000  0.4029090000000 1.0
C      1  0.5141240000000  0.3927110000000  0.5060270000000 1.0
C      1  0.4540580000000  0.5239520000000  0.5808610000000 1.0
C      1  0.4543650000000  0.5637230000000  0.4353470000000 1.0
C      1  0.4594460000000  0.4134290000000  0.4779170000000 1.0
C      1  0.4845190000000  0.5506710000000  0.3945770000000 1.0
C      1  0.4875620000000  0.3828640000000  0.5082210000000 1.0
C      1  0.4847490000000  0.5637880000000  0.5957220000000 1.0
C      1  0.4692570000000  0.5431750000000  0.4524540000000 1.0
C      1  0.4760770000000  0.4377770000000  0.4885420000000 1.0
C      1  0.4680540000000  0.5222390000000  0.5531140000000 1.0
C      1  0.4830970000000  0.4145490000000  0.5523520000000 1.0
C      1  0.4853010000000  0.5906220000000  0.5465460000000 1.0
C      1  0.4790530000000  0.4971580000000  0.4037440000000 1.0
C      1  0.4989560000000  0.5514240000000  0.5030650000000 1.0
C      1  0.4974010000000  0.4758110000000  0.4540410000000 1.0
C      1  0.4975950000000  0.4712690000000  0.5444250000000 1.0
C      1  0.5004500000000  0.4981090000000  0.5009490000000 1.0
C      1  0.5481500000000  0.4998350000000  0.5001160000000 1.0
END
