TITL C-3623288-6813-513 1.15654656807384e-06 125000 -1220.78405777726 0 0 200 (C3i) n - 1
REM
REM in /home/nfs/bkarasulu/CARBON/AIRSS/Generating-Clusters/LCBOP/Higher-Symm/SD-CG/FIRE-CG
REM
REM
REM
REM
REM
REM ./C.cell (b20cbc046b6831c77cfcea5457e17084)
REM AIRSS Version 0.9.1 bugfix July 2018 build 013d7b7c2542+ Fri, 06 Jul 2018 19:26:36 +0100
REM compiler GCC version 9.2.1 20190827 (Red Hat 9.2.1-1)
REM options -cpp -mtune=generic -march=x86-64 -g -O0 -fpre-include=/usr/include/finclude/math-vector-fortran.h
REM seed -3237677 2005286101 -1828943594 -1721157265 -175347204 2003764077 -1889375589 -1891391438 -2079512239 -683650025 1626492413 -1276268824 1685545515 1049758008 1692136724 925528834 -1549036801 -1004654405 236311579 -489042103 -539336823 -1639838480 -1510404621 134120814 -347169761 -1220139694 -2018064780 -1270278897 1905032285 48162054 597380727 590852497 -1813137805
REM
CELL 1.54180   50.00000   50.00000   50.00000   90.00000   90.00000   90.00000
LATT -1
SFAC C  
C      1  0.4645060000000  0.4140810000000  0.5813190000000 1.0
C      1  0.4080200000000  0.4877230000000  0.4186800000000 1.0
C      1  0.4435510000000  0.5734640000000  0.5813180000000 1.0
C      1  0.5355730000000  0.5855630000000  0.4186810000000 1.0
C      1  0.5920590000000  0.5119200000000  0.5813200000000 1.0
C      1  0.5565280000000  0.4261790000000  0.4186820000000 1.0
C      1  0.5122410000000  0.4362840000000  0.5456650000000 1.0
C      1  0.4511160000000  0.4574860000000  0.4543350000000 1.0
C      1  0.4389130000000  0.5210240000000  0.5456640000000 1.0
C      1  0.4878390000000  0.5633590000000  0.4543350000000 1.0
C      1  0.5489640000000  0.5421570000000  0.5456650000000 1.0
C      1  0.5611660000000  0.4786190000000  0.4543360000000 1.0
C      1  0.5229340000000  0.4948050000000  0.5532060000000 1.0
C      1  0.5071440000000  0.4774860000000  0.4467950000000 1.0
C      1  0.4842470000000  0.4825020000000  0.5532050000000 1.0
C      1  0.4771450000000  0.5048380000000  0.4467940000000 1.0
C      1  0.4929360000000  0.5221570000000  0.5532050000000 1.0
C      1  0.5158320000000  0.5171410000000  0.4467950000000 1.0
C      1  0.4170390000000  0.4309240000000  0.4463890000000 1.0
C      1  0.3988720000000  0.5372550000000  0.5536090000000 1.0
C      1  0.4818740000000  0.6061520000000  0.4463900000000 1.0
C      1  0.5830410000000  0.5687190000000  0.5536110000000 1.0
C      1  0.6012080000000  0.4623880000000  0.4463910000000 1.0
C      1  0.5182050000000  0.3934910000000  0.5536100000000 1.0
C      1  0.4243780000000  0.5315160000000  0.5676220000000 1.0
C      1  0.4896590000000  0.5811930000000  0.4323770000000 1.0
C      1  0.5653180000000  0.5494980000000  0.5676230000000 1.0
C      1  0.5757010000000  0.4681270000000  0.4323780000000 1.0
C      1  0.5104210000000  0.4184500000000  0.5676230000000 1.0
C      1  0.4347610000000  0.4501450000000  0.4323770000000 1.0
C      1  0.4481800000000  0.5372440000000  0.4520930000000 1.0
C      1  0.5065180000000  0.5634450000000  0.5479070000000 1.0
C      1  0.5583800000000  0.5260230000000  0.4520940000000 1.0
C      1  0.5519000000000  0.4623990000000  0.5479070000000 1.0
C      1  0.4935610000000  0.4361980000000  0.4520930000000 1.0
C      1  0.4417000000000  0.4736210000000  0.5479060000000 1.0
C      1  0.4103160000000  0.5563580000000  0.4388430000000 1.0
C      1  0.5041390000000  0.6057930000000  0.5611560000000 1.0
C      1  0.5938640000000  0.5492570000000  0.4388450000000 1.0
C      1  0.5897630000000  0.4432850000000  0.5611570000000 1.0
C      1  0.4959410000000  0.3938500000000  0.4388440000000 1.0
C      1  0.4062150000000  0.4503860000000  0.5611550000000 1.0
C      1  0.4655800000000  0.5699220000000  0.4961710000000 1.0
C      1  0.5435180000000  0.5647140000000  0.5038300000000 1.0
C      1  0.5779780000000  0.4946140000000  0.4961720000000 1.0
C      1  0.5344990000000  0.4297210000000  0.5038290000000 1.0
C      1  0.4565610000000  0.4349290000000  0.4961700000000 1.0
C      1  0.4221010000000  0.5050290000000  0.5038280000000 1.0
C      1  0.4860250000000  0.5838120000000  0.5554170000000 1.0
C      1  0.5657710000000  0.5539530000000  0.4445840000000 1.0
C      1  0.5797840000000  0.4699630000000  0.5554180000000 1.0
C      1  0.5140540000000  0.4158310000000  0.4445830000000 1.0
C      1  0.4343080000000  0.4456900000000  0.5554160000000 1.0
C      1  0.4202960000000  0.5296800000000  0.4445820000000 1.0
C      1  0.3971740000000  0.4472290000000  0.4612650000000 1.0
C      1  0.4030600000000  0.5626100000000  0.5387330000000 1.0
C      1  0.5059270000000  0.6152020000000  0.4612660000000 1.0
C      1  0.6029050000000  0.5524140000000  0.5387350000000 1.0
C      1  0.5970200000000  0.4370330000000  0.4612670000000 1.0
C      1  0.4941530000000  0.3844410000000  0.5387340000000 1.0
C      1  0.3859860000000  0.5121980000000  0.5433940000000 1.0
C      1  0.4537320000000  0.6047830000000  0.4566040000000 1.0
C      1  0.5677840000000  0.5924060000000  0.5433970000000 1.0
C      1  0.6140930000000  0.4874450000000  0.4566060000000 1.0
C      1  0.5463470000000  0.3948600000000  0.5433960000000 1.0
C      1  0.4322950000000  0.4072370000000  0.4566030000000 1.0
C      1  0.4375240000000  0.5763420000000  0.3958920000000 1.0
C      1  0.5350490000000  0.5922230000000  0.6041080000000 1.0
C      1  0.5975680000000  0.5157030000000  0.3958930000000 1.0
C      1  0.5625560000000  0.4233010000000  0.6041080000000 1.0
C      1  0.4650310000000  0.4074200000000  0.3958920000000 1.0
C      1  0.4025110000000  0.4839400000000  0.6041070000000 1.0
C      1  0.5019650000000  0.5431830000000  0.5683690000000 1.0
C      1  0.5385560000000  0.5198340000000  0.4316320000000 1.0
C      1  0.5366270000000  0.4764730000000  0.5683690000000 1.0
C      1  0.4981140000000  0.4564600000000  0.4316310000000 1.0
C      1  0.4615240000000  0.4798090000000  0.5683680000000 1.0
C      1  0.4634520000000  0.5231710000000  0.4316310000000 1.0
C      1  0.6136030000000  0.4999340000000  0.5392200000000 1.0
C      1  0.5569200000000  0.4015290000000  0.4607820000000 1.0
C      1  0.4433550000000  0.4014160000000  0.5392180000000 1.0
C      1  0.3864760000000  0.4997090000000  0.4607800000000 1.0
C      1  0.4431590000000  0.5981140000000  0.5392180000000 1.0
C      1  0.5567240000000  0.5982270000000  0.4607820000000 1.0
C      1  0.4838430000000  0.4680120000000  0.5299140000000 1.0
C      1  0.4643930000000  0.4979430000000  0.4700860000000 1.0
C      1  0.4805890000000  0.5297530000000  0.5299140000000 1.0
C      1  0.5162360000000  0.5316320000000  0.4700860000000 1.0
C      1  0.5356860000000  0.5017000000000  0.5299140000000 1.0
C      1  0.5194900000000  0.4698900000000  0.4700860000000 1.0
C      1  0.5254760000000  0.5763430000000  0.4846610000000 1.0
C      1  0.5790270000000  0.5160540000000  0.5153400000000 1.0
C      1  0.5535920000000  0.4395330000000  0.4846610000000 1.0
C      1  0.4746040000000  0.4233000000000  0.5153390000000 1.0
C      1  0.4210520000000  0.4835890000000  0.4846600000000 1.0
C      1  0.4464880000000  0.5601100000000  0.5153390000000 1.0
C      1  0.5645860000000  0.5460940000000  0.3999850000000 1.0
C      1  0.5723840000000  0.4670600000000  0.6000170000000 1.0
C      1  0.5078420000000  0.4207880000000  0.3999840000000 1.0
C      1  0.4354940000000  0.4535490000000  0.6000150000000 1.0
C      1  0.4276950000000  0.5325830000000  0.3999830000000 1.0
C      1  0.4922380000000  0.5788550000000  0.6000160000000 1.0
C      1  0.4219570000000  0.4106280000000  0.5218580000000 1.0
C      1  0.3837550000000  0.5228460000000  0.4781390000000 1.0
C      1  0.4618360000000  0.6120390000000  0.5218590000000 1.0
C      1  0.5781220000000  0.5890150000000  0.4781420000000 1.0
C      1  0.6163240000000  0.4767970000000  0.5218610000000 1.0
C      1  0.5382430000000  0.3876040000000  0.4781410000000 1.0
C      1  0.4607860000000  0.4642680000000  0.5921120000000 1.0
C      1  0.4496240000000  0.5160380000000  0.4078870000000 1.0
C      1  0.4888740000000  0.5515920000000  0.5921120000000 1.0
C      1  0.5392930000000  0.5353750000000  0.4078880000000 1.0
C      1  0.5504550000000  0.4836050000000  0.5921130000000 1.0
C      1  0.5112050000000  0.4480510000000  0.4078880000000 1.0
C      1  0.5261440000000  0.4991060000000  0.5047020000000 1.0
C      1  0.5124720000000  0.4768560000000  0.4952990000000 1.0
C      1  0.4863670000000  0.4775720000000  0.5047010000000 1.0
C      1  0.4739350000000  0.5005380000000  0.4952980000000 1.0
C      1  0.4876070000000  0.5227870000000  0.5047010000000 1.0
C      1  0.5137120000000  0.5220710000000  0.4952990000000 1.0
C      1  0.4262040000000  0.5768910000000  0.5278930000000 1.0
C      1  0.5298660000000  0.6022990000000  0.4721060000000 1.0
C      1  0.6037010000000  0.5252300000000  0.5278950000000 1.0
C      1  0.5738750000000  0.4227520000000  0.4721070000000 1.0
C      1  0.4702130000000  0.3973440000000  0.5278940000000 1.0
C      1  0.3963780000000  0.4744130000000  0.4721050000000 1.0
C      1  0.4086620000000  0.4602510000000  0.5891140000000 1.0
C      1  0.4200830000000  0.5591710000000  0.4108840000000 1.0
C      1  0.5114580000000  0.5987420000000  0.5891150000000 1.0
C      1  0.5914180000000  0.5393920000000  0.4108860000000 1.0
C      1  0.5799970000000  0.4404720000000  0.5891160000000 1.0
C      1  0.4886220000000  0.4009010000000  0.4108850000000 1.0
C      1  0.5284110000000  0.4878270000000  0.3849800000000 1.0
C      1  0.5038360000000  0.4692550000000  0.6150200000000 1.0
C      1  0.4754680000000  0.4812490000000  0.3849790000000 1.0
C      1  0.4716680000000  0.5118160000000  0.6150200000000 1.0
C      1  0.4962430000000  0.5303880000000  0.3849800000000 1.0
C      1  0.5246110000000  0.5183940000000  0.6150210000000 1.0
C      1  0.5688450000000  0.5278350000000  0.5867750000000 1.0
C      1  0.5587040000000  0.4542400000000  0.4132260000000 1.0
C      1  0.4898960000000  0.4262270000000  0.5867740000000 1.0
C      1  0.4312340000000  0.4718080000000  0.4132250000000 1.0
C      1  0.4413750000000  0.5454030000000  0.5867740000000 1.0
C      1  0.5101840000000  0.5734160000000  0.4132260000000 1.0
C      1  0.5547750000000  0.5799220000000  0.4385770000000 1.0
C      1  0.5967750000000  0.4924700000000  0.5614250000000 1.0
C      1  0.5420420000000  0.4123700000000  0.4385760000000 1.0
C      1  0.4453040000000  0.4197210000000  0.5614230000000 1.0
C      1  0.4033040000000  0.5071730000000  0.4385750000000 1.0
C      1  0.4580370000000  0.5872730000000  0.5614240000000 1.0
C      1  0.4858540000000  0.4526870000000  0.5993690000000 1.0
C      1  0.4521290000000  0.4885380000000  0.4006300000000 1.0
C      1  0.4663110000000  0.5356720000000  0.5993690000000 1.0
C      1  0.5142250000000  0.5469560000000  0.4006310000000 1.0
C      1  0.5479500000000  0.5111050000000  0.5993700000000 1.0
C      1  0.5337680000000  0.4639710000000  0.4006310000000 1.0
C      1  0.5529390000000  0.4985750000000  0.3746670000000 1.0
C      1  0.5254080000000  0.4533870000000  0.6253340000000 1.0
C      1  0.4725120000000  0.4546340000000  0.3746660000000 1.0
C      1  0.4471400000000  0.5010680000000  0.6253330000000 1.0
C      1  0.4746720000000  0.5462560000000  0.3746660000000 1.0
C      1  0.5275670000000  0.5450090000000  0.6253340000000 1.0
C      1  0.5151480000000  0.6085950000000  0.5338180000000 1.0
C      1  0.6017950000000  0.5411230000000  0.4661840000000 1.0
C      1  0.5866850000000  0.4323500000000  0.5338180000000 1.0
C      1  0.4849310000000  0.3910480000000  0.4661820000000 1.0
C      1  0.3982850000000  0.4585200000000  0.5338160000000 1.0
C      1  0.4133940000000  0.5672930000000  0.4661820000000 1.0
C      1  0.5453580000000  0.4608810000000  0.4684350000000 1.0
C      1  0.4889750000000  0.4411040000000  0.5315660000000 1.0
C      1  0.4436570000000  0.4800450000000  0.4684340000000 1.0
C      1  0.4547210000000  0.5387620000000  0.5315650000000 1.0
C      1  0.5111050000000  0.5585390000000  0.4684340000000 1.0
C      1  0.5564220000000  0.5195980000000  0.5315660000000 1.0
C      1  0.4224370000000  0.4371950000000  0.5125390000000 1.0
C      1  0.4070020000000  0.5357140000000  0.4874590000000 1.0
C      1  0.4846050000000  0.5983410000000  0.5125400000000 1.0
C      1  0.5776430000000  0.5624480000000  0.4874610000000 1.0
C      1  0.5930770000000  0.4639290000000  0.5125410000000 1.0
C      1  0.5154750000000  0.4013020000000  0.4874600000000 1.0
C      1  0.4556100000000  0.3945900000000  0.4658660000000 1.0
C      1  0.3866910000000  0.4856830000000  0.5341330000000 1.0
C      1  0.4311220000000  0.5909150000000  0.4658650000000 1.0
C      1  0.5444690000000  0.6050530000000  0.5341340000000 1.0
C      1  0.6133880000000  0.5139600000000  0.4658670000000 1.0
C      1  0.5689580000000  0.4087280000000  0.5341350000000 1.0
C      1  0.5313050000000  0.5593280000000  0.5312330000000 1.0
C      1  0.5672070000000  0.5024980000000  0.4687690000000 1.0
C      1  0.5359400000000  0.4429920000000  0.5312330000000 1.0
C      1  0.4687740000000  0.4403150000000  0.4687670000000 1.0
C      1  0.4328730000000  0.4971450000000  0.5312310000000 1.0
C      1  0.4641390000000  0.5566510000000  0.4687670000000 1.0
C      1  0.4208230000000  0.4970220000000  0.6197540000000 1.0
C      1  0.4580090000000  0.5670250000000  0.3802440000000 1.0
C      1  0.5372220000000  0.5698240000000  0.6197560000000 1.0
C      1  0.5792570000000  0.5026210000000  0.3802460000000 1.0
C      1  0.5420710000000  0.4326180000000  0.6197560000000 1.0
C      1  0.4628570000000  0.4298190000000  0.3802440000000 1.0
C      1  0.5000380000000  0.4998210000000  0.6163310000000 1.0
C      1  0.5000410000000  0.4998220000000  0.3836690000000 1.0
END
