TITL C-3623285-6872-240 -1.27551506481861e-05 125000 -550.709286520091 0 0 91 (C1) n - 1
REM
REM in /home/nfs/bkarasulu/CARBON/AIRSS/Generating-Clusters/LCBOP/Higher-Symm/SD-CG/FIRE-CG
REM
REM
REM
REM
REM
REM ./C.cell (b20cbc046b6831c77cfcea5457e17084)
REM AIRSS Version 0.9.1 bugfix July 2018 build 013d7b7c2542+ Fri, 06 Jul 2018 19:26:36 +0100
REM compiler GCC version 9.2.1 20190827 (Red Hat 9.2.1-1)
REM options -cpp -mtune=generic -march=x86-64 -g -O0 -fpre-include=/usr/include/finclude/math-vector-fortran.h
REM seed 648722423 -1667174938 -1745586558 -157059247 -803239669 952319971 217205844 695775110 -1142547541 2041486039 1279691972 -1705678569 -426408352 1191735857 -1150521962 449936547 -249467748 1051551604 -2079226441 -339214088 -648490933 244498824 -895083887 -2020091734 -869795933 1108707407 -1126394594 -1536943621 1964502927 -1893136484 5556308 -1820823426 -2137529303
REM
CELL 1.54180   50.00000   50.00000   50.00000   90.00000   90.00000   90.00000
LATT -1
SFAC C  
C      1  0.5148050000000  0.4596180000000  0.4899420000000 1.0
C      1  0.5490940000000  0.3989390000000  0.5003690000000 1.0
C      1  0.4916270000000  0.5626750000000  0.5964170000000 1.0
C      1  0.4646580000000  0.4277580000000  0.5316180000000 1.0
C      1  0.6208130000000  0.5570090000000  0.5294960000000 1.0
C      1  0.4567850000000  0.4932950000000  0.5063910000000 1.0
C      1  0.4666750000000  0.5714670000000  0.6028330000000 1.0
C      1  0.4606510000000  0.4869430000000  0.4330450000000 1.0
C      1  0.5640040000000  0.4737410000000  0.5644740000000 1.0
C      1  0.4287480000000  0.4337210000000  0.4608240000000 1.0
C      1  0.5083270000000  0.5462850000000  0.4546750000000 1.0
C      1  0.5010250000000  0.5320650000000  0.4794240000000 1.0
C      1  0.4504800000000  0.5273000000000  0.4686370000000 1.0
C      1  0.4489580000000  0.5765520000000  0.5828270000000 1.0
C      1  0.4650900000000  0.5303430000000  0.4412630000000 1.0
C      1  0.5768690000000  0.4384260000000  0.5314960000000 1.0
C      1  0.3772090000000  0.6024740000000  0.5227520000000 1.0
C      1  0.5778870000000  0.4374730000000  0.5023780000000 1.0
C      1  0.4551380000000  0.4454440000000  0.4583110000000 1.0
C      1  0.6115020000000  0.5079800000000  0.5377970000000 1.0
C      1  0.5319820000000  0.4369860000000  0.4436300000000 1.0
C      1  0.5832560000000  0.4631100000000  0.5458350000000 1.0
C      1  0.5556000000000  0.4336830000000  0.4608510000000 1.0
C      1  0.5206540000000  0.4553190000000  0.5170910000000 1.0
C      1  0.4491270000000  0.4675100000000  0.5137860000000 1.0
C      1  0.5325750000000  0.5595550000000  0.5036260000000 1.0
C      1  0.5141370000000  0.4735680000000  0.5355690000000 1.0
C      1  0.5320100000000  0.5619940000000  0.4567720000000 1.0
C      1  0.3906070000000  0.6257080000000  0.5192900000000 1.0
C      1  0.4608140000000  0.4426450000000  0.5079580000000 1.0
C      1  0.4441610000000  0.5082470000000  0.5566750000000 1.0
C      1  0.4131480000000  0.5662690000000  0.5283780000000 1.0
C      1  0.5336960000000  0.4636310000000  0.4308670000000 1.0
C      1  0.4350570000000  0.4067460000000  0.4525150000000 1.0
C      1  0.5643860000000  0.4154490000000  0.5426760000000 1.0
C      1  0.4574940000000  0.4592650000000  0.4337430000000 1.0
C      1  0.5159210000000  0.4909320000000  0.5823690000000 1.0
C      1  0.5590410000000  0.4766270000000  0.4405270000000 1.0
C      1  0.5512090000000  0.3970310000000  0.5274840000000 1.0
C      1  0.4174540000000  0.6284640000000  0.5209950000000 1.0
C      1  0.5892000000000  0.5310800000000  0.5001450000000 1.0
C      1  0.4880610000000  0.5552860000000  0.5225450000000 1.0
C      1  0.4218420000000  0.5348940000000  0.4627910000000 1.0
C      1  0.3874520000000  0.5779860000000  0.5274010000000 1.0
C      1  0.5136980000000  0.4819620000000  0.4205690000000 1.0
C      1  0.5413420000000  0.4830670000000  0.5763430000000 1.0
C      1  0.5125550000000  0.5116210000000  0.4207240000000 1.0
C      1  0.5724520000000  0.4593140000000  0.4604570000000 1.0
C      1  0.4201690000000  0.5223910000000  0.4356010000000 1.0
C      1  0.5410330000000  0.5183780000000  0.4209990000000 1.0
C      1  0.4470910000000  0.5116580000000  0.4261220000000 1.0
C      1  0.4289990000000  0.5211650000000  0.5375850000000 1.0
C      1  0.4999920000000  0.4962000000000  0.5330740000000 1.0
C      1  0.5871180000000  0.4599050000000  0.4866410000000 1.0
C      1  0.5065440000000  0.5474640000000  0.5032050000000 1.0
C      1  0.4543450000000  0.5738570000000  0.5549070000000 1.0
C      1  0.5814520000000  0.5037170000000  0.5030220000000 1.0
C      1  0.4610120000000  0.3993890000000  0.4455150000000 1.0
C      1  0.4987760000000  0.4408280000000  0.4764840000000 1.0
C      1  0.5571820000000  0.5166180000000  0.4658610000000 1.0
C      1  0.5582410000000  0.5055500000000  0.4400210000000 1.0
C      1  0.4234250000000  0.4827680000000  0.4736090000000 1.0
C      1  0.4802060000000  0.5628450000000  0.5481810000000 1.0
C      1  0.5545000000000  0.4995190000000  0.5085880000000 1.0
C      1  0.4780980000000  0.5044510000000  0.5202880000000 1.0
C      1  0.4172900000000  0.5397800000000  0.5182620000000 1.0
C      1  0.4802410000000  0.4918770000000  0.4542370000000 1.0
C      1  0.5070970000000  0.4264410000000  0.4531550000000 1.0
C      1  0.4448900000000  0.5013730000000  0.4823560000000 1.0
C      1  0.5971460000000  0.4805670000000  0.5033610000000 1.0
C      1  0.5490040000000  0.5600650000000  0.4802620000000 1.0
C      1  0.4354350000000  0.5827510000000  0.5360050000000 1.0
C      1  0.6030850000000  0.4799140000000  0.5323440000000 1.0
C      1  0.4572300000000  0.4618900000000  0.5685430000000 1.0
C      1  0.4979380000000  0.5589130000000  0.5702270000000 1.0
C      1  0.4941850000000  0.5317840000000  0.4339080000000 1.0
C      1  0.6327800000000  0.5793140000000  0.5356960000000 1.0
C      1  0.5413140000000  0.5008350000000  0.4843050000000 1.0
C      1  0.4613290000000  0.4381720000000  0.5564630000000 1.0
C      1  0.5699590000000  0.5400980000000  0.4792980000000 1.0
C      1  0.4108920000000  0.5372430000000  0.4897030000000 1.0
C      1  0.4626470000000  0.4898800000000  0.5700470000000 1.0
C      1  0.4967690000000  0.5034270000000  0.4738030000000 1.0
C      1  0.5605360000000  0.4203340000000  0.4859950000000 1.0
C      1  0.4712590000000  0.4412270000000  0.4814510000000 1.0
C      1  0.4873550000000  0.4073630000000  0.4439890000000 1.0
C      1  0.5178990000000  0.4866480000000  0.4813310000000 1.0
C      1  0.6078120000000  0.5333970000000  0.5226890000000 1.0
C      1  0.4356900000000  0.6096430000000  0.5272690000000 1.0
C      1  0.4136640000000  0.4572060000000  0.4686990000000 1.0
C      1  0.4890960000000  0.4956980000000  0.5803160000000 1.0
END
