TITL C-3623282-6910-1631 -9.92695529772771e-08 125000 -461.100844482846 0 0 73 (C1) n - 1
REM
REM in /home/nfs/bkarasulu/CARBON/AIRSS/Generating-Clusters/LCBOP/Higher-Symm/SD-CG/FIRE-CG
REM
REM
REM
REM
REM
REM ./C.cell (b20cbc046b6831c77cfcea5457e17084)
REM AIRSS Version 0.9.1 bugfix July 2018 build 013d7b7c2542+ Fri, 06 Jul 2018 19:26:36 +0100
REM compiler GCC version 9.2.1 20190827 (Red Hat 9.2.1-1)
REM options -cpp -mtune=generic -march=x86-64 -g -O0 -fpre-include=/usr/include/finclude/math-vector-fortran.h
REM seed 2082518050 -1791278507 1552037013 650166969 -1737912616 -34425903 -386324485 -1506226525 1757868962 88770674 348282539 918362886 -1656723391 -480167730 506765365 1452011783 1654890157 1890373640 1700532663 -738348468 -2122443811 188010101 -612143818 -173099467 1778977180 -1216396776 -1273388729 -270857057 117589573 2095859495 -442711030 984039509 -438179518
REM
CELL 1.54180   50.00000   50.00000   50.00000   90.00000   90.00000   90.00000
LATT -1
SFAC C  
C      1  0.4792910000000  0.5792840000000  0.5014400000000 1.0
C      1  0.5018500000000  0.5800100000000  0.4740350000000 1.0
C      1  0.5232090000000  0.5777980000000  0.4993350000000 1.0
C      1  0.5012950000000  0.5784790000000  0.5208050000000 1.0
C      1  0.4806230000000  0.4186710000000  0.4994230000000 1.0
C      1  0.5023400000000  0.4190370000000  0.4777600000000 1.0
C      1  0.5269640000000  0.4199900000000  0.4994800000000 1.0
C      1  0.4999350000000  0.4188120000000  0.5216750000000 1.0
C      1  0.4113500000000  0.5346080000000  0.5555730000000 1.0
C      1  0.4351650000000  0.5360040000000  0.4224480000000 1.0
C      1  0.5798770000000  0.5329240000000  0.4373900000000 1.0
C      1  0.5627160000000  0.5352800000000  0.5817530000000 1.0
C      1  0.4066760000000  0.4640060000000  0.5490790000000 1.0
C      1  0.4404540000000  0.4664760000000  0.4154290000000 1.0
C      1  0.5793990000000  0.4669770000000  0.4393350000000 1.0
C      1  0.5559220000000  0.4656980000000  0.5890200000000 1.0
C      1  0.5855350000000  0.5128350000000  0.4204140000000 1.0
C      1  0.5743520000000  0.5135570000000  0.5932950000000 1.0
C      1  0.3977320000000  0.5126190000000  0.5642400000000 1.0
C      1  0.4219790000000  0.5144100000000  0.4124250000000 1.0
C      1  0.5853310000000  0.4859770000000  0.4212480000000 1.0
C      1  0.5709930000000  0.4869380000000  0.5967360000000 1.0
C      1  0.3954490000000  0.4858210000000  0.5609180000000 1.0
C      1  0.4248020000000  0.4877200000000  0.4090940000000 1.0
C      1  0.4711640000000  0.4870920000000  0.5423740000000 1.0
C      1  0.4686850000000  0.4879770000000  0.4741870000000 1.0
C      1  0.5199680000000  0.4855820000000  0.4457610000000 1.0
C      1  0.5359910000000  0.4883220000000  0.5282330000000 1.0
C      1  0.4847670000000  0.5112970000000  0.5360100000000 1.0
C      1  0.4775980000000  0.5108420000000  0.4887660000000 1.0
C      1  0.5206210000000  0.5125410000000  0.4453960000000 1.0
C      1  0.5260000000000  0.5100500000000  0.5130140000000 1.0
C      1  0.5238310000000  0.5116910000000  0.5724840000000 1.0
C      1  0.4310160000000  0.5100440000000  0.5217460000000 1.0
C      1  0.4739510000000  0.5112840000000  0.4280760000000 1.0
C      1  0.5813510000000  0.5144250000000  0.4814520000000 1.0
C      1  0.5310980000000  0.4897760000000  0.5571870000000 1.0
C      1  0.4433120000000  0.4882840000000  0.5336570000000 1.0
C      1  0.4691490000000  0.4897280000000  0.4447950000000 1.0
C      1  0.5807750000000  0.4876000000000  0.4824040000000 1.0
C      1  0.5006020000000  0.4391360000000  0.4575610000000 1.0
C      1  0.5409950000000  0.4441500000000  0.4991000000000 1.0
C      1  0.5007880000000  0.4390980000000  0.5415540000000 1.0
C      1  0.4611270000000  0.4394900000000  0.5005920000000 1.0
C      1  0.4996680000000  0.5579700000000  0.4568210000000 1.0
C      1  0.5401420000000  0.5550870000000  0.4970880000000 1.0
C      1  0.5023550000000  0.5583990000000  0.5412800000000 1.0
C      1  0.4613660000000  0.5574600000000  0.5027470000000 1.0
C      1  0.5455720000000  0.5453460000000  0.4708430000000 1.0
C      1  0.5290220000000  0.5475590000000  0.5440740000000 1.0
C      1  0.4549600000000  0.5489460000000  0.5297070000000 1.0
C      1  0.4729630000000  0.5473260000000  0.4563180000000 1.0
C      1  0.5454110000000  0.4553640000000  0.4733270000000 1.0
C      1  0.5276630000000  0.4472050000000  0.5471930000000 1.0
C      1  0.4536750000000  0.4462820000000  0.5274560000000 1.0
C      1  0.4730690000000  0.4467930000000  0.4532260000000 1.0
C      1  0.4613030000000  0.5358860000000  0.4333480000000 1.0
C      1  0.5706240000000  0.5339870000000  0.4640410000000 1.0
C      1  0.5378170000000  0.5358850000000  0.5682440000000 1.0
C      1  0.4306260000000  0.5351690000000  0.5347460000000 1.0
C      1  0.4621860000000  0.4642400000000  0.4331310000000 1.0
C      1  0.5700910000000  0.4672070000000  0.4660040000000 1.0
C      1  0.5361770000000  0.4640130000000  0.5690520000000 1.0
C      1  0.4309610000000  0.4624890000000  0.5348980000000 1.0
C      1  0.5221740000000  0.5393940000000  0.4548090000000 1.0
C      1  0.5374000000000  0.5362830000000  0.5184210000000 1.0
C      1  0.4795170000000  0.5394790000000  0.5426770000000 1.0
C      1  0.4659820000000  0.5371540000000  0.4824890000000 1.0
C      1  0.5220340000000  0.4592870000000  0.4565620000000 1.0
C      1  0.5392960000000  0.4599310000000  0.5224930000000 1.0
C      1  0.4780030000000  0.4574240000000  0.5418810000000 1.0
C      1  0.4636400000000  0.4588740000000  0.4794800000000 1.0
C      1  0.4973140000000  0.5096130000000  0.5098170000000 1.0
END
