TITL C-3623285-6872-289 11.8577782747731 125000 -788.468872458238 0 0 131 (C1) n - 1
REM
REM in /home/nfs/bkarasulu/CARBON/AIRSS/Generating-Clusters/LCBOP/Higher-Symm/SD-CG/FIRE-CG
REM
REM
REM
REM
REM
REM ./C.cell (b20cbc046b6831c77cfcea5457e17084)
REM AIRSS Version 0.9.1 bugfix July 2018 build 013d7b7c2542+ Fri, 06 Jul 2018 19:26:36 +0100
REM compiler GCC version 9.2.1 20190827 (Red Hat 9.2.1-1)
REM options -cpp -mtune=generic -march=x86-64 -g -O0 -fpre-include=/usr/include/finclude/math-vector-fortran.h
REM seed -1267230541 -251152347 -1003344224 -1654110681 -663188358 936352472 121666469 -1933645868 -894301094 144985560 -1713539898 1939845039 -1488999240 740400433 -939426300 -1297005093 1742642041 1229201776 1392227626 1837056595 -422513096 2141124261 1308186967 -1908808073 828121983 -607387159 588568580 -1975632253 132412654 -1064906538 1129201926 -513343511 1492448238
REM
CELL 1.54180   50.00000   50.00000   50.00000   90.00000   90.00000   90.00000
LATT -1
SFAC C  
C      1  0.5516200000000  0.4763590000000  0.4941450000000 1.0
C      1  0.5555740000000  0.5235340000000  0.5095330000000 1.0
C      1  0.5307140000000  0.5370300000000  0.5748830000000 1.0
C      1  0.5121300000000  0.4611730000000  0.4217320000000 1.0
C      1  0.6276410000000  0.4774420000000  0.5471700000000 1.0
C      1  0.5952450000000  0.5528840000000  0.5352120000000 1.0
C      1  0.5688460000000  0.5437080000000  0.4006070000000 1.0
C      1  0.5515650000000  0.4655130000000  0.5906010000000 1.0
C      1  0.5459240000000  0.5819140000000  0.5546080000000 1.0
C      1  0.5320030000000  0.4178520000000  0.4456600000000 1.0
C      1  0.4894370000000  0.4300680000000  0.5867880000000 1.0
C      1  0.5002660000000  0.5608480000000  0.4232740000000 1.0
C      1  0.5353390000000  0.4425300000000  0.5945680000000 1.0
C      1  0.5461950000000  0.5531170000000  0.4134300000000 1.0
C      1  0.4918500000000  0.5000830000000  0.4563130000000 1.0
C      1  0.5084870000000  0.4830170000000  0.5527160000000 1.0
C      1  0.5290160000000  0.5009660000000  0.5465500000000 1.0
C      1  0.5396950000000  0.4920450000000  0.4482610000000 1.0
C      1  0.5290830000000  0.5210950000000  0.5254040000000 1.0
C      1  0.5380390000000  0.4715930000000  0.4681470000000 1.0
C      1  0.4448190000000  0.5006470000000  0.4920090000000 1.0
C      1  0.4631480000000  0.4912810000000  0.5138690000000 1.0
C      1  0.5116590000000  0.5951380000000  0.4624610000000 1.0
C      1  0.5002040000000  0.4075200000000  0.5413290000000 1.0
C      1  0.5727950000000  0.5541840000000  0.4749440000000 1.0
C      1  0.5484960000000  0.4415840000000  0.5254620000000 1.0
C      1  0.6137120000000  0.4816580000000  0.5236070000000 1.0
C      1  0.5742600000000  0.5412840000000  0.5249800000000 1.0
C      1  0.4355400000000  0.4743180000000  0.4219680000000 1.0
C      1  0.4561550000000  0.5275230000000  0.5775820000000 1.0
C      1  0.4914850000000  0.5066500000000  0.3947390000000 1.0
C      1  0.4782920000000  0.4813270000000  0.6080490000000 1.0
C      1  0.5343420000000  0.5974490000000  0.5081430000000 1.0
C      1  0.5208690000000  0.4006920000000  0.4934670000000 1.0
C      1  0.4321330000000  0.5660200000000  0.4544010000000 1.0
C      1  0.4240260000000  0.4372900000000  0.5468240000000 1.0
C      1  0.4014250000000  0.4748400000000  0.5214530000000 1.0
C      1  0.4264160000000  0.5221850000000  0.4856450000000 1.0
C      1  0.4273980000000  0.4171140000000  0.5247620000000 1.0
C      1  0.4415690000000  0.5814060000000  0.4774200000000 1.0
C      1  0.4893900000000  0.5491650000000  0.5132460000000 1.0
C      1  0.5122190000000  0.4567270000000  0.4735990000000 1.0
C      1  0.5061990000000  0.4141810000000  0.5690080000000 1.0
C      1  0.5168400000000  0.5800680000000  0.4384590000000 1.0
C      1  0.5283770000000  0.6518630000000  0.5548380000000 1.0
C      1  0.5401630000000  0.3465780000000  0.4504490000000 1.0
C      1  0.4770290000000  0.5467520000000  0.4669470000000 1.0
C      1  0.4701400000000  0.4428220000000  0.5251740000000 1.0
C      1  0.5454350000000  0.5611710000000  0.5718620000000 1.0
C      1  0.5284890000000  0.4375510000000  0.4270380000000 1.0
C      1  0.5529330000000  0.4091450000000  0.5590300000000 1.0
C      1  0.5630760000000  0.5940420000000  0.4414210000000 1.0
C      1  0.5582810000000  0.6050820000000  0.4657920000000 1.0
C      1  0.5463800000000  0.4147150000000  0.5321540000000 1.0
C      1  0.5082530000000  0.4445090000000  0.6052310000000 1.0
C      1  0.5201060000000  0.5399170000000  0.4132130000000 1.0
C      1  0.4698880000000  0.5059780000000  0.4108900000000 1.0
C      1  0.4702000000000  0.4733070000000  0.5818980000000 1.0
C      1  0.5426970000000  0.5104100000000  0.5705630000000 1.0
C      1  0.5252260000000  0.4881790000000  0.4235010000000 1.0
C      1  0.4679830000000  0.5029240000000  0.5405060000000 1.0
C      1  0.4435020000000  0.4805150000000  0.4730580000000 1.0
C      1  0.4451610000000  0.4372180000000  0.4520440000000 1.0
C      1  0.4706310000000  0.5726320000000  0.5678520000000 1.0
C      1  0.4520740000000  0.4646940000000  0.5223950000000 1.0
C      1  0.4594230000000  0.5304920000000  0.4517920000000 1.0
C      1  0.3957270000000  0.4721590000000  0.4482180000000 1.0
C      1  0.4126770000000  0.5348920000000  0.5585600000000 1.0
C      1  0.4431270000000  0.5715210000000  0.5042040000000 1.0
C      1  0.4301950000000  0.4199750000000  0.4952550000000 1.0
C      1  0.4092440000000  0.5540500000000  0.5403040000000 1.0
C      1  0.3993030000000  0.4501530000000  0.4635890000000 1.0
C      1  0.4748090000000  0.4156200000000  0.5324930000000 1.0
C      1  0.4861770000000  0.6055780000000  0.4675220000000 1.0
C      1  0.4474870000000  0.5718890000000  0.4298540000000 1.0
C      1  0.4404000000000  0.4343790000000  0.5706980000000 1.0
C      1  0.5348050000000  0.3714130000000  0.4579370000000 1.0
C      1  0.5335990000000  0.6275700000000  0.5456660000000 1.0
C      1  0.4684750000000  0.5687850000000  0.5181790000000 1.0
C      1  0.4575960000000  0.4113130000000  0.4868340000000 1.0
C      1  0.3911750000000  0.4965190000000  0.5094070000000 1.0
C      1  0.4005990000000  0.5182050000000  0.4965020000000 1.0
C      1  0.4910120000000  0.5358380000000  0.4883880000000 1.0
C      1  0.5077220000000  0.4647650000000  0.5015680000000 1.0
C      1  0.4653790000000  0.4445230000000  0.5801220000000 1.0
C      1  0.4725620000000  0.5669950000000  0.4198940000000 1.0
C      1  0.4780290000000  0.5456950000000  0.5730850000000 1.0
C      1  0.4548930000000  0.4554580000000  0.4309930000000 1.0
C      1  0.4849670000000  0.4565930000000  0.4324580000000 1.0
C      1  0.5040820000000  0.5397850000000  0.5622030000000 1.0
C      1  0.4148500000000  0.5170010000000  0.4389010000000 1.0
C      1  0.4269070000000  0.4885180000000  0.5597020000000 1.0
C      1  0.5074920000000  0.5394230000000  0.5328080000000 1.0
C      1  0.4908650000000  0.4445040000000  0.4594350000000 1.0
C      1  0.5341920000000  0.4188910000000  0.5774680000000 1.0
C      1  0.5444230000000  0.5771270000000  0.4289460000000 1.0
C      1  0.5609950000000  0.4890320000000  0.5770280000000 1.0
C      1  0.5904830000000  0.5328480000000  0.3898690000000 1.0
C      1  0.5507940000000  0.2972690000000  0.4356200000000 1.0
C      1  0.5178100000000  0.7000460000000  0.5730300000000 1.0
C      1  0.5340710000000  0.6004970000000  0.4801160000000 1.0
C      1  0.5218260000000  0.4036040000000  0.5219750000000 1.0
C      1  0.6333680000000  0.5107060000000  0.3690170000000 1.0
C      1  0.6104760000000  0.4803460000000  0.5687020000000 1.0
C      1  0.4910170000000  0.4879210000000  0.5025250000000 1.0
C      1  0.4965390000000  0.5081700000000  0.4833300000000 1.0
C      1  0.5230500000000  0.6761540000000  0.5640090000000 1.0
C      1  0.5455230000000  0.3217190000000  0.4429730000000 1.0
C      1  0.5381590000000  0.6016780000000  0.5358790000000 1.0
C      1  0.5290070000000  0.3977360000000  0.4660290000000 1.0
C      1  0.4200420000000  0.5668160000000  0.5195300000000 1.0
C      1  0.4217300000000  0.4344990000000  0.4704390000000 1.0
C      1  0.4314540000000  0.5159220000000  0.5678090000000 1.0
C      1  0.4134970000000  0.4888360000000  0.4334340000000 1.0
C      1  0.4250980000000  0.4662540000000  0.5375640000000 1.0
C      1  0.4305450000000  0.5353480000000  0.4577110000000 1.0
C      1  0.4600130000000  0.6021710000000  0.4717180000000 1.0
C      1  0.4504700000000  0.4008680000000  0.5332400000000 1.0
C      1  0.6121040000000  0.5216870000000  0.3793550000000 1.0
C      1  0.5834560000000  0.4866270000000  0.5595510000000 1.0
C      1  0.5161640000000  0.5116010000000  0.4079360000000 1.0
C      1  0.4976340000000  0.4662340000000  0.6198610000000 1.0
C      1  0.4716760000000  0.5093890000000  0.4387010000000 1.0
C      1  0.4816110000000  0.4870020000000  0.5597070000000 1.0
C      1  0.5345520000000  0.4614410000000  0.5123780000000 1.0
C      1  0.5564530000000  0.5328050000000  0.4803630000000 1.0
C      1  0.5479170000000  0.5168100000000  0.4587520000000 1.0
C      1  0.5856970000000  0.4879950000000  0.5291260000000 1.0
C      1  0.4692250000000  0.4273460000000  0.4665130000000 1.0
C      1  0.4697340000000  0.5827790000000  0.5428600000000 1.0
C      1  0.5672170000000  0.4952230000000  0.5086390000000 1.0
END
