TITL C-3623283-6828-576 4.85050270189959e-07 125000 -239.761908032991 0 0 39 (C2) n - 1
REM
REM in /home/nfs/bkarasulu/CARBON/AIRSS/Generating-Clusters/LCBOP/Higher-Symm/SD-CG/FIRE-CG
REM
REM
REM
REM
REM
REM ./C.cell (b20cbc046b6831c77cfcea5457e17084)
REM AIRSS Version 0.9.1 bugfix July 2018 build 013d7b7c2542+ Fri, 06 Jul 2018 19:26:36 +0100
REM compiler GCC version 9.2.1 20190827 (Red Hat 9.2.1-1)
REM options -cpp -mtune=generic -march=x86-64 -g -O0 -fpre-include=/usr/include/finclude/math-vector-fortran.h
REM seed 935819847 -1190443463 154643253 -961617397 -1716681899 1739757307 -24727261 -158102577 1150358641 -552775759 1800653586 1553225692 2093951317 1645332690 410466976 -1934701604 30689136 835325376 -1125177198 200427284 476883173 952808042 1154515026 -137421343 1548990459 499820314 -430377602 1005811298 -2066774898 528595478 -1016102995 234226152 931727685
REM
CELL 1.54180   50.00000   50.00000   50.00000   90.00000   90.00000   90.00000
LATT -1
SFAC C  
C      1  0.4322230000000  0.4963230000000  0.4879240000000 1.0
C      1  0.5735770000000  0.5025570000000  0.4880750000000 1.0
C      1  0.4322140000000  0.5028710000000  0.5160980000000 1.0
C      1  0.5735670000000  0.4966210000000  0.5160410000000 1.0
C      1  0.4955630000000  0.4345050000000  0.4864280000000 1.0
C      1  0.5031630000000  0.5586430000000  0.4906700000000 1.0
C      1  0.5031490000000  0.4405430000000  0.5133990000000 1.0
C      1  0.4955600000000  0.5646820000000  0.5176370000000 1.0
C      1  0.4485910000000  0.5133060000000  0.4723510000000 1.0
C      1  0.5717360000000  0.4816700000000  0.4694780000000 1.0
C      1  0.4485700000000  0.4858860000000  0.5316820000000 1.0
C      1  0.5717170000000  0.5175080000000  0.5346360000000 1.0
C      1  0.5157360000000  0.4340500000000  0.4669700000000 1.0
C      1  0.4852010000000  0.5439700000000  0.4749220000000 1.0
C      1  0.4851780000000  0.4552180000000  0.5291350000000 1.0
C      1  0.5157200000000  0.5651350000000  0.5371070000000 1.0
C      1  0.4442730000000  0.4637380000000  0.5495310000000 1.0
C      1  0.5586820000000  0.5379080000000  0.5456640000000 1.0
C      1  0.4443090000000  0.5354550000000  0.4544990000000 1.0
C      1  0.5587060000000  0.4612720000000  0.4584420000000 1.0
C      1  0.4654730000000  0.4459740000000  0.5481500000000 1.0
C      1  0.5383690000000  0.5550550000000  0.5467920000000 1.0
C      1  0.5383930000000  0.4441270000000  0.4573000000000 1.0
C      1  0.4655090000000  0.5532160000000  0.4558940000000 1.0
C      1  0.4299940000000  0.5297490000000  0.5241690000000 1.0
C      1  0.5693950000000  0.4702000000000  0.5244010000000 1.0
C      1  0.4300060000000  0.4694450000000  0.4798520000000 1.0
C      1  0.5694130000000  0.5289790000000  0.4797120000000 1.0
C      1  0.5296190000000  0.4377680000000  0.5220420000000 1.0
C      1  0.4684100000000  0.5642020000000  0.5249110000000 1.0
C      1  0.4684180000000  0.4349880000000  0.4791350000000 1.0
C      1  0.5296390000000  0.5614150000000  0.4820450000000 1.0
C      1  0.4448930000000  0.5517720000000  0.5272520000000 1.0
C      1  0.5533200000000  0.4490860000000  0.5262960000000 1.0
C      1  0.5533420000000  0.5500950000000  0.4778060000000 1.0
C      1  0.4449040000000  0.4474200000000  0.4767790000000 1.0
C      1  0.4761760000000  0.4819130000000  0.5213060000000 1.0
C      1  0.4761910000000  0.5172760000000  0.4827450000000 1.0
C      1  0.4861890000000  0.4995940000000  0.5020290000000 1.0
END
