TITL C-3623287-7182-285 -0.0414277307826604 125000 -11.1825219186663 0 0 5 (D4h) n - 1
REM
REM in /home/nfs/bkarasulu/CARBON/AIRSS/Generating-Clusters/LCBOP/Higher-Symm/SD-CG/FIRE-CG
REM
REM
REM
REM
REM
REM ./C.cell (b20cbc046b6831c77cfcea5457e17084)
REM AIRSS Version 0.9.1 bugfix July 2018 build 013d7b7c2542+ Fri, 06 Jul 2018 19:26:36 +0100
REM compiler GCC version 9.2.1 20190827 (Red Hat 9.2.1-1)
REM options -cpp -mtune=generic -march=x86-64 -g -O0 -fpre-include=/usr/include/finclude/math-vector-fortran.h
REM seed -2137482060 536196694 -1271623625 713696785 1045790514 -176745392 -922167874 678290147 1688783320 543129875 -1622399799 1781726923 920239772 -650679889 1266570684 -1045954231 335635234 1882898495 -437078641 -1862125215 -984361535 1838476654 1095782587 1315467962 529618645 1122076301 -1135486009 -1983554412 1341649066 -263716126 -118414277 1043214659 -1766970459
REM
CELL 1.54180   50.00000   50.00000   50.00000   90.00000   90.00000   90.00000
LATT -1
SFAC C  
C      1  0.5009950000000  0.5005690000000  0.5290950000000 1.0
C      1  0.5009950000000  0.5005690000000  0.4647630000000 1.0
C      1  0.5331610000000  0.5005690000000  0.4969290000000 1.0
C      1  0.4688280000000  0.5005690000000  0.4969290000000 1.0
C      1  0.5009950000000  0.5005690000000  0.4969290000000 1.0
END
