TITL C-3623289-7120-1967 4.14814221920245e-06 125000 -999.378828323215 0 0 160 (C1) n - 1
REM
REM in /home/nfs/bkarasulu/CARBON/AIRSS/Generating-Clusters/LCBOP/Higher-Symm/SD-CG/FIRE-CG
REM
REM
REM
REM
REM
REM ./C.cell (b20cbc046b6831c77cfcea5457e17084)
REM AIRSS Version 0.9.1 bugfix July 2018 build 013d7b7c2542+ Fri, 06 Jul 2018 19:26:36 +0100
REM compiler GCC version 9.2.1 20190827 (Red Hat 9.2.1-1)
REM options -cpp -mtune=generic -march=x86-64 -g -O0 -fpre-include=/usr/include/finclude/math-vector-fortran.h
REM seed 552159959 -1497124152 -341708181 -1434558084 -1353142482 50922718 -21108841 72679015 1252721047 -1154930578 783921067 -1718435614 -1342436580 776792653 331677724 1804803849 1210357462 1271811221 1818439081 -1833826053 -1848068798 2061460660 -1639318868 1454469431 788907581 -1367921633 -1541328044 -887290197 2100567414 341225386 -2035841821 -32265819 120521682
REM
CELL 1.54180   50.00000   50.00000   50.00000   90.00000   90.00000   90.00000
LATT -1
SFAC C  
C      1  0.4887410000000  0.5006330000000  0.5860010000000 1.0
C      1  0.4355530000000  0.4506940000000  0.4114470000000 1.0
C      1  0.5799040000000  0.5123080000000  0.4394320000000 1.0
C      1  0.5348080000000  0.4039510000000  0.5002360000000 1.0
C      1  0.4813780000000  0.4249090000000  0.5684290000000 1.0
C      1  0.6433620000000  0.4897110000000  0.5275710000000 1.0
C      1  0.5769360000000  0.4832390000000  0.3975150000000 1.0
C      1  0.5274650000000  0.6435840000000  0.4796350000000 1.0
C      1  0.5872100000000  0.5358710000000  0.5821690000000 1.0
C      1  0.4807340000000  0.5582430000000  0.4875890000000 1.0
C      1  0.4419880000000  0.5082450000000  0.6022020000000 1.0
C      1  0.4210640000000  0.4280430000000  0.4516650000000 1.0
C      1  0.5016520000000  0.5529140000000  0.5060780000000 1.0
C      1  0.4861370000000  0.4630630000000  0.3934210000000 1.0
C      1  0.4935300000000  0.4320710000000  0.4990120000000 1.0
C      1  0.5540760000000  0.5572840000000  0.5023880000000 1.0
C      1  0.5423840000000  0.5385790000000  0.5619750000000 1.0
C      1  0.5508140000000  0.5509750000000  0.4313300000000 1.0
C      1  0.4008640000000  0.4547250000000  0.4983670000000 1.0
C      1  0.5387830000000  0.5374450000000  0.4100170000000 1.0
C      1  0.5248350000000  0.5937700000000  0.5172650000000 1.0
C      1  0.4519460000000  0.4085200000000  0.4815140000000 1.0
C      1  0.4123500000000  0.5219190000000  0.5304750000000 1.0
C      1  0.4546190000000  0.5095750000000  0.3904590000000 1.0
C      1  0.5017090000000  0.6442750000000  0.4863390000000 1.0
C      1  0.3771830000000  0.4875370000000  0.4746930000000 1.0
C      1  0.4685690000000  0.4630720000000  0.5264140000000 1.0
C      1  0.5124160000000  0.4720600000000  0.4014870000000 1.0
C      1  0.4362190000000  0.4419810000000  0.6203630000000 1.0
C      1  0.4454130000000  0.6088920000000  0.5260690000000 1.0
C      1  0.3986920000000  0.4777490000000  0.5162500000000 1.0
C      1  0.5693080000000  0.4660110000000  0.4640920000000 1.0
C      1  0.5868950000000  0.4365100000000  0.4998670000000 1.0
C      1  0.5448030000000  0.6101690000000  0.6079910000000 1.0
C      1  0.4977590000000  0.5379350000000  0.6160820000000 1.0
C      1  0.5629400000000  0.4780960000000  0.5469480000000 1.0
C      1  0.5671350000000  0.4944780000000  0.4580460000000 1.0
C      1  0.4606760000000  0.4645770000000  0.4058660000000 1.0
C      1  0.5264580000000  0.5694550000000  0.5001400000000 1.0
C      1  0.5093100000000  0.4970240000000  0.4455080000000 1.0
C      1  0.5378120000000  0.4104810000000  0.5285700000000 1.0
C      1  0.4257930000000  0.4953580000000  0.5832030000000 1.0
C      1  0.4249290000000  0.4166410000000  0.4778050000000 1.0
C      1  0.4443530000000  0.5583170000000  0.4039490000000 1.0
C      1  0.4523370000000  0.5014060000000  0.4990880000000 1.0
C      1  0.4998490000000  0.4063810000000  0.5622090000000 1.0
C      1  0.4041520000000  0.4516110000000  0.4484400000000 1.0
C      1  0.4255390000000  0.5246250000000  0.4575710000000 1.0
C      1  0.5898380000000  0.5968270000000  0.5243900000000 1.0
C      1  0.5889400000000  0.4407260000000  0.5279500000000 1.0
C      1  0.4959660000000  0.3861640000000  0.4780130000000 1.0
C      1  0.6009010000000  0.5055990000000  0.4961950000000 1.0
C      1  0.4818740000000  0.5146190000000  0.5360940000000 1.0
C      1  0.4506130000000  0.5595620000000  0.5430770000000 1.0
C      1  0.4927370000000  0.5403280000000  0.3988470000000 1.0
C      1  0.4938540000000  0.5409600000000  0.5308730000000 1.0
C      1  0.4408320000000  0.5852860000000  0.5375890000000 1.0
C      1  0.4677950000000  0.3857620000000  0.4758620000000 1.0
C      1  0.4266610000000  0.4404760000000  0.6445680000000 1.0
C      1  0.5654920000000  0.4505020000000  0.5405870000000 1.0
C      1  0.5825310000000  0.5958050000000  0.4972120000000 1.0
C      1  0.5077530000000  0.5204170000000  0.5942950000000 1.0
C      1  0.5432500000000  0.4954630000000  0.5355960000000 1.0
C      1  0.4134470000000  0.4294630000000  0.5015330000000 1.0
C      1  0.4593560000000  0.4586470000000  0.4796110000000 1.0
C      1  0.5028960000000  0.5365510000000  0.6426210000000 1.0
C      1  0.5238090000000  0.4810580000000  0.5204300000000 1.0
C      1  0.5863090000000  0.5230730000000  0.5098600000000 1.0
C      1  0.4432870000000  0.4294360000000  0.4319540000000 1.0
C      1  0.4397290000000  0.5356210000000  0.6082920000000 1.0
C      1  0.6271750000000  0.5015610000000  0.5732580000000 1.0
C      1  0.4804980000000  0.4953990000000  0.5588280000000 1.0
C      1  0.5177900000000  0.4553380000000  0.5327120000000 1.0
C      1  0.4564740000000  0.4425090000000  0.5681670000000 1.0
C      1  0.4421040000000  0.5845320000000  0.6112310000000 1.0
C      1  0.5407620000000  0.4379690000000  0.5353980000000 1.0
C      1  0.5588890000000  0.4179120000000  0.4231830000000 1.0
C      1  0.5483630000000  0.4457400000000  0.4581370000000 1.0
C      1  0.4582640000000  0.4745560000000  0.5023370000000 1.0
C      1  0.4819270000000  0.5576580000000  0.6011170000000 1.0
C      1  0.4596710000000  0.5702900000000  0.4766690000000 1.0
C      1  0.4379590000000  0.5353050000000  0.5325220000000 1.0
C      1  0.3777300000000  0.5010000000000  0.4277370000000 1.0
C      1  0.5861270000000  0.5020740000000  0.4141060000000 1.0
C      1  0.4677610000000  0.4966250000000  0.6049000000000 1.0
C      1  0.5747640000000  0.5405780000000  0.4434070000000 1.0
C      1  0.5577110000000  0.5962320000000  0.5901500000000 1.0
C      1  0.5464420000000  0.5074440000000  0.4721380000000 1.0
C      1  0.3659970000000  0.4993450000000  0.4519820000000 1.0
C      1  0.5347970000000  0.4536360000000  0.3995520000000 1.0
C      1  0.4708780000000  0.5558720000000  0.3999600000000 1.0
C      1  0.5125340000000  0.3879720000000  0.4321500000000 1.0
C      1  0.4529510000000  0.5088040000000  0.3644110000000 1.0
C      1  0.4151280000000  0.5487100000000  0.4690470000000 1.0
C      1  0.5468500000000  0.5233290000000  0.5380990000000 1.0
C      1  0.3838980000000  0.4987200000000  0.5002890000000 1.0
C      1  0.5188260000000  0.4463590000000  0.4580660000000 1.0
C      1  0.4458890000000  0.4447740000000  0.5958580000000 1.0
C      1  0.5691310000000  0.5795810000000  0.5708680000000 1.0
C      1  0.3932470000000  0.5248560000000  0.5084310000000 1.0
C      1  0.5105710000000  0.4144350000000  0.4221650000000 1.0
C      1  0.5125320000000  0.4971790000000  0.4169270000000 1.0
C      1  0.6081050000000  0.4785450000000  0.4951860000000 1.0
C      1  0.5056320000000  0.4053850000000  0.4971560000000 1.0
C      1  0.5172540000000  0.5401760000000  0.5747470000000 1.0
C      1  0.5751420000000  0.5701920000000  0.4872300000000 1.0
C      1  0.4792460000000  0.5578990000000  0.5499060000000 1.0
C      1  0.4222920000000  0.4228130000000  0.5275620000000 1.0
C      1  0.4615290000000  0.4827460000000  0.4297810000000 1.0
C      1  0.5527150000000  0.6351610000000  0.4787320000000 1.0
C      1  0.4573020000000  0.5171400000000  0.5213640000000 1.0
C      1  0.4049420000000  0.4946210000000  0.4225450000000 1.0
C      1  0.4669220000000  0.4319980000000  0.4866770000000 1.0
C      1  0.4594850000000  0.4715210000000  0.5540820000000 1.0
C      1  0.5354480000000  0.5694120000000  0.4462150000000 1.0
C      1  0.5185860000000  0.3838000000000  0.4595680000000 1.0
C      1  0.5255770000000  0.5762810000000  0.4701040000000 1.0
C      1  0.5209710000000  0.3974560000000  0.5477650000000 1.0
C      1  0.6428070000000  0.5050270000000  0.5498440000000 1.0
C      1  0.6139550000000  0.4515180000000  0.5361470000000 1.0
C      1  0.5730270000000  0.6188350000000  0.4843370000000 1.0
C      1  0.4783620000000  0.6384370000000  0.4977050000000 1.0
C      1  0.4989820000000  0.4330860000000  0.4402620000000 1.0
C      1  0.6093690000000  0.5211340000000  0.5822020000000 1.0
C      1  0.5838680000000  0.5904510000000  0.5495770000000 1.0
C      1  0.5657030000000  0.5513650000000  0.5728430000000 1.0
C      1  0.4135930000000  0.4923350000000  0.5364450000000 1.0
C      1  0.5087720000000  0.4536990000000  0.4832810000000 1.0
C      1  0.3957670000000  0.5452400000000  0.4892620000000 1.0
C      1  0.4309490000000  0.6079780000000  0.6134530000000 1.0
C      1  0.4359820000000  0.4281370000000  0.5499160000000 1.0
C      1  0.5428990000000  0.3983580000000  0.4710130000000 1.0
C      1  0.5332400000000  0.4253690000000  0.4094620000000 1.0
C      1  0.5200530000000  0.4985840000000  0.4718660000000 1.0
C      1  0.6251280000000  0.4705980000000  0.5173110000000 1.0
C      1  0.5146020000000  0.5237300000000  0.4055960000000 1.0
C      1  0.5900890000000  0.4592250000000  0.4830800000000 1.0
C      1  0.4645960000000  0.4651720000000  0.4523450000000 1.0
C      1  0.5638160000000  0.4587200000000  0.3983630000000 1.0
C      1  0.6237020000000  0.4743070000000  0.5801860000000 1.0
C      1  0.4707610000000  0.4380150000000  0.4408500000000 1.0
C      1  0.4232960000000  0.5436390000000  0.4127850000000 1.0
C      1  0.5220940000000  0.6111270000000  0.5365030000000 1.0
C      1  0.5849540000000  0.5565680000000  0.4644670000000 1.0
C      1  0.4919120000000  0.4462320000000  0.5251570000000 1.0
C      1  0.4246650000000  0.5176280000000  0.4285630000000 1.0
C      1  0.3915170000000  0.4623300000000  0.4715920000000 1.0
C      1  0.4337150000000  0.5697560000000  0.4701980000000 1.0
C      1  0.5621140000000  0.5350760000000  0.5174120000000 1.0
C      1  0.4590600000000  0.6267910000000  0.5118480000000 1.0
C      1  0.4542710000000  0.5598680000000  0.6070910000000 1.0
C      1  0.5558110000000  0.4175890000000  0.4524460000000 1.0
C      1  0.4311290000000  0.4843600000000  0.5574420000000 1.0
C      1  0.4936880000000  0.5590900000000  0.5743450000000 1.0
C      1  0.4415350000000  0.5099120000000  0.4750660000000 1.0
C      1  0.4508370000000  0.5064380000000  0.4185630000000 1.0
C      1  0.5773700000000  0.4356370000000  0.4097320000000 1.0
C      1  0.4126080000000  0.4663430000000  0.4240360000000 1.0
C      1  0.6205340000000  0.4533590000000  0.5634750000000 1.0
C      1  0.5148300000000  0.4802450000000  0.4928780000000 1.0
END
