TITL C-3623289-7120-1697 0.199235524255311 125000 -478.614426474248 0 0 79 (C1) n - 1
REM
REM in /home/nfs/bkarasulu/CARBON/AIRSS/Generating-Clusters/LCBOP/Higher-Symm/SD-CG/FIRE-CG
REM
REM
REM
REM
REM
REM ./C.cell (b20cbc046b6831c77cfcea5457e17084)
REM AIRSS Version 0.9.1 bugfix July 2018 build 013d7b7c2542+ Fri, 06 Jul 2018 19:26:36 +0100
REM compiler GCC version 9.2.1 20190827 (Red Hat 9.2.1-1)
REM options -cpp -mtune=generic -march=x86-64 -g -O0 -fpre-include=/usr/include/finclude/math-vector-fortran.h
REM seed 67451205 400906631 1390127985 1269386570 1643765219 2027305775 -179550330 1660356798 922002562 -901711866 1229809984 -1276364695 1557768194 2133472501 -1412658974 -1183533097 330069075 775633944 -397743720 -1975179726 1384690525 1165456231 -1063608208 -547349527 -405100244 -1032096804 1452906211 139241472 -1267681343 -1093583160 -433905545 230141755 1426654716
REM
CELL 1.54180   50.00000   50.00000   50.00000   90.00000   90.00000   90.00000
LATT -1
SFAC C  
C      1  0.5273490000000  0.5130070000000  0.4682690000000 1.0
C      1  0.4765810000000  0.5030070000000  0.5230620000000 1.0
C      1  0.5792970000000  0.5297710000000  0.5174560000000 1.0
C      1  0.4390690000000  0.4576200000000  0.4919040000000 1.0
C      1  0.5233510000000  0.5656440000000  0.4233500000000 1.0
C      1  0.4885060000000  0.4234270000000  0.5757070000000 1.0
C      1  0.4718520000000  0.4337450000000  0.4560410000000 1.0
C      1  0.5580200000000  0.5101470000000  0.5603720000000 1.0
C      1  0.4730770000000  0.5060730000000  0.5708600000000 1.0
C      1  0.5455580000000  0.5008910000000  0.4234230000000 1.0
C      1  0.4760060000000  0.5327950000000  0.5729130000000 1.0
C      1  0.5486910000000  0.4742980000000  0.4215060000000 1.0
C      1  0.5020090000000  0.5038450000000  0.5105500000000 1.0
C      1  0.4772190000000  0.5139310000000  0.4697660000000 1.0
C      1  0.5026640000000  0.5214910000000  0.4257180000000 1.0
C      1  0.5280370000000  0.4424330000000  0.6021340000000 1.0
C      1  0.5268120000000  0.5139380000000  0.4397010000000 1.0
C      1  0.4691320000000  0.4900610000000  0.5482910000000 1.0
C      1  0.5255780000000  0.4584190000000  0.4614940000000 1.0
C      1  0.4921720000000  0.5673720000000  0.5414160000000 1.0
C      1  0.3959650000000  0.5447650000000  0.4958110000000 1.0
C      1  0.5519330000000  0.4329050000000  0.5025550000000 1.0
C      1  0.5057900000000  0.5811090000000  0.4923910000000 1.0
C      1  0.5028900000000  0.4406150000000  0.5048200000000 1.0
C      1  0.4827580000000  0.4724240000000  0.4190750000000 1.0
C      1  0.5567220000000  0.4845950000000  0.6055830000000 1.0
C      1  0.5075590000000  0.4154350000000  0.4898430000000 1.0
C      1  0.3516500000000  0.5518630000000  0.4677150000000 1.0
C      1  0.5071860000000  0.5768070000000  0.4648560000000 1.0
C      1  0.5025530000000  0.4381380000000  0.5332020000000 1.0
C      1  0.4210740000000  0.5433380000000  0.5077590000000 1.0
C      1  0.5615720000000  0.4600870000000  0.4995610000000 1.0
C      1  0.4402060000000  0.4764470000000  0.5127980000000 1.0
C      1  0.5685460000000  0.5293870000000  0.4913830000000 1.0
C      1  0.5524160000000  0.4425990000000  0.5499880000000 1.0
C      1  0.4607290000000  0.5582710000000  0.4600960000000 1.0
C      1  0.4657950000000  0.4920560000000  0.4581510000000 1.0
C      1  0.5348030000000  0.5001910000000  0.5477900000000 1.0
C      1  0.4882770000000  0.4988840000000  0.4158180000000 1.0
C      1  0.5434720000000  0.4621600000000  0.6113650000000 1.0
C      1  0.3979730000000  0.6064430000000  0.4461130000000 1.0
C      1  0.6284460000000  0.4595500000000  0.5618610000000 1.0
C      1  0.4987660000000  0.5497590000000  0.4263600000000 1.0
C      1  0.5153050000000  0.4323180000000  0.5796030000000 1.0
C      1  0.5021750000000  0.5763390000000  0.5183660000000 1.0
C      1  0.5103410000000  0.4596720000000  0.4842930000000 1.0
C      1  0.5318020000000  0.5764270000000  0.4489630000000 1.0
C      1  0.4791330000000  0.4303170000000  0.5494940000000 1.0
C      1  0.4187410000000  0.5912360000000  0.4502430000000 1.0
C      1  0.6038860000000  0.4516160000000  0.5582060000000 1.0
C      1  0.4718860000000  0.5557420000000  0.5570260000000 1.0
C      1  0.5484050000000  0.4574940000000  0.4439890000000 1.0
C      1  0.4453850000000  0.5620330000000  0.5499670000000 1.0
C      1  0.5741760000000  0.4525010000000  0.4546600000000 1.0
C      1  0.4504320000000  0.5034440000000  0.5089200000000 1.0
C      1  0.5508220000000  0.5079320000000  0.4843920000000 1.0
C      1  0.5627980000000  0.5026200000000  0.5868470000000 1.0
C      1  0.4779670000000  0.4495470000000  0.4328920000000 1.0
C      1  0.3306690000000  0.5565810000000  0.4529790000000 1.0
C      1  0.4899640000000  0.4142570000000  0.4673900000000 1.0
C      1  0.5757590000000  0.5238400000000  0.5433570000000 1.0
C      1  0.4504740000000  0.4425600000000  0.4727780000000 1.0
C      1  0.4269030000000  0.5573070000000  0.5313570000000 1.0
C      1  0.5817660000000  0.4602080000000  0.4794760000000 1.0
C      1  0.4416750000000  0.5274130000000  0.4967910000000 1.0
C      1  0.5475700000000  0.4856000000000  0.5032910000000 1.0
C      1  0.4587680000000  0.5349530000000  0.4756070000000 1.0
C      1  0.5265250000000  0.4934820000000  0.5219090000000 1.0
C      1  0.5250320000000  0.4385510000000  0.5526180000000 1.0
C      1  0.4863390000000  0.5631940000000  0.4495670000000 1.0
C      1  0.5784210000000  0.4453230000000  0.5544300000000 1.0
C      1  0.4392200000000  0.5751200000000  0.4550120000000 1.0
C      1  0.5695020000000  0.5522270000000  0.4750850000000 1.0
C      1  0.4501630000000  0.4694720000000  0.5394840000000 1.0
C      1  0.3733210000000  0.5475840000000  0.4823640000000 1.0
C      1  0.5359290000000  0.4124060000000  0.4936760000000 1.0
C      1  0.5564680000000  0.5704370000000  0.4605220000000 1.0
C      1  0.4545040000000  0.4428080000000  0.5462440000000 1.0
C      1  0.5024520000000  0.5122130000000  0.4827800000000 1.0
END
