TITL C-3623289-7120-901 -0.000132562238495163 125000 -667.005766234303 0 0 113 (C1) n - 1
REM
REM in /home/nfs/bkarasulu/CARBON/AIRSS/Generating-Clusters/LCBOP/Higher-Symm/SD-CG/FIRE-CG
REM
REM
REM
REM
REM
REM ./C.cell (b20cbc046b6831c77cfcea5457e17084)
REM AIRSS Version 0.9.1 bugfix July 2018 build 013d7b7c2542+ Fri, 06 Jul 2018 19:26:36 +0100
REM compiler GCC version 9.2.1 20190827 (Red Hat 9.2.1-1)
REM options -cpp -mtune=generic -march=x86-64 -g -O0 -fpre-include=/usr/include/finclude/math-vector-fortran.h
REM seed 2122991131 787346682 -1975970887 -1638754919 -2022453544 -183435626 1996350984 -2142217851 1191591989 1266299975 -969346649 2027069443 -1058925449 503327293 1833329532 -1988381979 -1734455911 35284428 -66343874 -1721636560 -1671173315 -633916544 -621497723 -2084740739 526908212 478458774 48600862 -1171566715 758563757 1332231655 138496421 743234315 -1643339683
REM
CELL 1.54180   50.00000   50.00000   50.00000   90.00000   90.00000   90.00000
LATT -1
SFAC C  
C      1  0.4349930000000  0.5587710000000  0.4810710000000 1.0
C      1  0.4220370000000  0.4536070000000  0.4770100000000 1.0
C      1  0.5150210000000  0.4097380000000  0.4822370000000 1.0
C      1  0.5840710000000  0.4867670000000  0.4856610000000 1.0
C      1  0.5358110000000  0.5791890000000  0.4876740000000 1.0
C      1  0.5630620000000  0.4172030000000  0.4868650000000 1.0
C      1  0.5934360000000  0.5346220000000  0.4905640000000 1.0
C      1  0.4928730000000  0.6006250000000  0.4951120000000 1.0
C      1  0.4010280000000  0.5233290000000  0.4872370000000 1.0
C      1  0.4432150000000  0.4096440000000  0.4845190000000 1.0
C      1  0.4256480000000  0.4299010000000  0.4928920000000 1.0
C      1  0.5392710000000  0.4063660000000  0.4972590000000 1.0
C      1  0.5941350000000  0.5086260000000  0.5014440000000 1.0
C      1  0.5194060000000  0.5966950000000  0.5034500000000 1.0
C      1  0.4124920000000  0.5477700000000  0.4950730000000 1.0
C      1  0.4904150000000  0.4575290000000  0.4033600000000 1.0
C      1  0.5374580000000  0.4771550000000  0.4078170000000 1.0
C      1  0.5330370000000  0.5287670000000  0.4092490000000 1.0
C      1  0.4833750000000  0.5421320000000  0.4062140000000 1.0
C      1  0.4561690000000  0.4972630000000  0.4021580000000 1.0
C      1  0.5121380000000  0.6084880000000  0.5564150000000 1.0
C      1  0.4127020000000  0.5421230000000  0.5486420000000 1.0
C      1  0.4358210000000  0.4257210000000  0.5470460000000 1.0
C      1  0.5532640000000  0.4147340000000  0.5492290000000 1.0
C      1  0.5873190000000  0.5273190000000  0.5521880000000 1.0
C      1  0.4682200000000  0.4501440000000  0.4487250000000 1.0
C      1  0.5340430000000  0.4536830000000  0.4561720000000 1.0
C      1  0.5542990000000  0.5214990000000  0.4556190000000 1.0
C      1  0.4959420000000  0.5575000000000  0.4572960000000 1.0
C      1  0.4394530000000  0.5142570000000  0.4485790000000 1.0
C      1  0.5118330000000  0.5496970000000  0.4143840000000 1.0
C      1  0.4566060000000  0.5280860000000  0.4083710000000 1.0
C      1  0.4616220000000  0.4673250000000  0.4068880000000 1.0
C      1  0.5188920000000  0.4536180000000  0.4119990000000 1.0
C      1  0.5497950000000  0.5036350000000  0.4138950000000 1.0
C      1  0.4020800000000  0.4182560000000  0.5886440000000 1.0
C      1  0.5572790000000  0.3812590000000  0.5914820000000 1.0
C      1  0.6242460000000  0.5320800000000  0.5913980000000 1.0
C      1  0.5314670000000  0.6510460000000  0.5835430000000 1.0
C      1  0.4014900000000  0.5723330000000  0.5919280000000 1.0
C      1  0.5638640000000  0.4410540000000  0.5519790000000 1.0
C      1  0.5627880000000  0.5417860000000  0.5551660000000 1.0
C      1  0.4914970000000  0.5930700000000  0.5683700000000 1.0
C      1  0.4222430000000  0.5158290000000  0.5521220000000 1.0
C      1  0.4638130000000  0.4245420000000  0.5524090000000 1.0
C      1  0.4898270000000  0.4376350000000  0.4581710000000 1.0
C      1  0.5499570000000  0.4748190000000  0.4591540000000 1.0
C      1  0.5414350000000  0.5446610000000  0.4604470000000 1.0
C      1  0.4703570000000  0.5500360000000  0.4551530000000 1.0
C      1  0.4385370000000  0.4871860000000  0.4518740000000 1.0
C      1  0.5364900000000  0.4993610000000  0.4656140000000 1.0
C      1  0.5134400000000  0.5375000000000  0.4688180000000 1.0
C      1  0.4664730000000  0.5219210000000  0.4581430000000 1.0
C      1  0.4665650000000  0.4774120000000  0.4580190000000 1.0
C      1  0.5086650000000  0.4566630000000  0.4693050000000 1.0
C      1  0.4919210000000  0.4212790000000  0.4985350000000 1.0
C      1  0.5661210000000  0.4675700000000  0.5001350000000 1.0
C      1  0.5470280000000  0.5547630000000  0.5024320000000 1.0
C      1  0.4594410000000  0.5610400000000  0.4988050000000 1.0
C      1  0.4261980000000  0.4779980000000  0.4935800000000 1.0
C      1  0.4705030000000  0.5869120000000  0.4997520000000 1.0
C      1  0.4058540000000  0.4975110000000  0.4923580000000 1.0
C      1  0.4679940000000  0.4065600000000  0.4943330000000 1.0
C      1  0.5731370000000  0.4406900000000  0.4948610000000 1.0
C      1  0.5751370000000  0.5526290000000  0.4984260000000 1.0
C      1  0.4896360000000  0.4317150000000  0.5561180000000 1.0
C      1  0.5651650000000  0.4679700000000  0.5543680000000 1.0
C      1  0.5367030000000  0.5490020000000  0.5555690000000 1.0
C      1  0.4805110000000  0.5695150000000  0.5760430000000 1.0
C      1  0.4380380000000  0.4942760000000  0.5521780000000 1.0
C      1  0.5092030000000  0.4164930000000  0.4525320000000 1.0
C      1  0.5773530000000  0.4842590000000  0.4558620000000 1.0
C      1  0.5374800000000  0.5731080000000  0.4575130000000 1.0
C      1  0.4426720000000  0.5584250000000  0.4515110000000 1.0
C      1  0.4255810000000  0.4614110000000  0.4475200000000 1.0
C      1  0.5031670000000  0.5375640000000  0.5212010000000 1.0
C      1  0.4619520000000  0.5126520000000  0.5051310000000 1.0
C      1  0.4684140000000  0.4684910000000  0.5212380000000 1.0
C      1  0.5164700000000  0.4574340000000  0.5231000000000 1.0
C      1  0.5405140000000  0.5015210000000  0.5260970000000 1.0
C      1  0.6065310000000  0.5299610000000  0.5724020000000 1.0
C      1  0.5221150000000  0.6305520000000  0.5704400000000 1.0
C      1  0.4062680000000  0.5576240000000  0.5709520000000 1.0
C      1  0.4183170000000  0.4215550000000  0.5685280000000 1.0
C      1  0.5555870000000  0.3972780000000  0.5709950000000 1.0
C      1  0.5089290000000  0.5460510000000  0.5482060000000 1.0
C      1  0.4890240000000  0.5437780000000  0.5683330000000 1.0
C      1  0.4635570000000  0.4821050000000  0.5482280000000 1.0
C      1  0.5094710000000  0.4520640000000  0.5514910000000 1.0
C      1  0.5490930000000  0.4921010000000  0.5539390000000 1.0
C      1  0.4467660000000  0.4505690000000  0.4288600000000 1.0
C      1  0.5273080000000  0.4340670000000  0.4350340000000 1.0
C      1  0.5705460000000  0.5064890000000  0.4368580000000 1.0
C      1  0.5141490000000  0.5705330000000  0.4382120000000 1.0
C      1  0.4356540000000  0.5369800000000  0.4306740000000 1.0
C      1  0.5311440000000  0.5294170000000  0.5129150000000 1.0
C      1  0.4753420000000  0.5378160000000  0.5091510000000 1.0
C      1  0.4524270000000  0.4856130000000  0.5038330000000 1.0
C      1  0.4907270000000  0.4495020000000  0.5106170000000 1.0
C      1  0.5394580000000  0.4748140000000  0.5124900000000 1.0
C      1  0.4898600000000  0.5176600000000  0.5797870000000 1.0
C      1  0.4835350000000  0.4913000000000  0.5663880000000 1.0
C      1  0.5074710000000  0.4749310000000  0.5676070000000 1.0
C      1  0.5297700000000  0.4920230000000  0.5746910000000 1.0
C      1  0.5169190000000  0.5121630000000  0.5904840000000 1.0
C      1  0.5402840000000  0.4051630000000  0.5257230000000 1.0
C      1  0.5936190000000  0.5102450000000  0.5300110000000 1.0
C      1  0.5231890000000  0.6025560000000  0.5309280000000 1.0
C      1  0.4100270000000  0.5529750000000  0.5227780000000 1.0
C      1  0.4243370000000  0.4310570000000  0.5215140000000 1.0
C      1  0.5102680000000  0.5090450000000  0.4703080000000 1.0
C      1  0.4860550000000  0.4998320000000  0.4561090000000 1.0
C      1  0.4968850000000  0.4979560000000  0.4277290000000 1.0
END
