TITL C-3623285-6872-64 -1.06959397285515e-08 125000 -480.164999049184 0 0 76 (D2d) n - 1
REM
REM in /home/nfs/bkarasulu/CARBON/AIRSS/Generating-Clusters/LCBOP/Higher-Symm/SD-CG/FIRE-CG
REM
REM
REM
REM
REM
REM ./C.cell (b20cbc046b6831c77cfcea5457e17084)
REM AIRSS Version 0.9.1 bugfix July 2018 build 013d7b7c2542+ Fri, 06 Jul 2018 19:26:36 +0100
REM compiler GCC version 9.2.1 20190827 (Red Hat 9.2.1-1)
REM options -cpp -mtune=generic -march=x86-64 -g -O0 -fpre-include=/usr/include/finclude/math-vector-fortran.h
REM seed 1828782600 -18294788 985915552 -2137231715 420297139 981059573 1094142389 -2137392212 1308603510 -2143119109 -300796614 1715999445 -1628795310 -1561919130 -1198686887 -942114288 -1553931661 -1492660515 2235199 -895969845 1671094686 -1419486410 -661446363 2141539119 1513570535 1764404444 471579886 -2014642977 -1384396705 924656783 468590106 -917195040 112984355
REM
CELL 1.54180   50.00000   50.00000   50.00000   90.00000   90.00000   90.00000
LATT -1
SFAC C  
C      1  0.4261420000000  0.5389860000000  0.5075710000000 1.0
C      1  0.5738580000000  0.4610140000000  0.5075670000000 1.0
C      1  0.4261420000000  0.4610130000000  0.4924310000000 1.0
C      1  0.5738570000000  0.5389870000000  0.4924310000000 1.0
C      1  0.5389870000000  0.4261420000000  0.5075660000000 1.0
C      1  0.4610130000000  0.5738570000000  0.5075720000000 1.0
C      1  0.4610140000000  0.4261420000000  0.4924290000000 1.0
C      1  0.5389860000000  0.5738580000000  0.4924330000000 1.0
C      1  0.4581030000000  0.4392890000000  0.5909370000000 1.0
C      1  0.5419000000000  0.5607050000000  0.5909400000000 1.0
C      1  0.4580990000000  0.5607110000000  0.4090640000000 1.0
C      1  0.5418980000000  0.4392950000000  0.4090590000000 1.0
C      1  0.4392930000000  0.4580980000000  0.5909380000000 1.0
C      1  0.5607090000000  0.5418970000000  0.5909390000000 1.0
C      1  0.5607070000000  0.4581040000000  0.4090590000000 1.0
C      1  0.4392900000000  0.5419020000000  0.4090640000000 1.0
C      1  0.5628480000000  0.4580860000000  0.5347770000000 1.0
C      1  0.4371530000000  0.5419110000000  0.5347820000000 1.0
C      1  0.5628460000000  0.5419140000000  0.4652210000000 1.0
C      1  0.4371520000000  0.4580880000000  0.4652200000000 1.0
C      1  0.4580880000000  0.5628460000000  0.5347820000000 1.0
C      1  0.5419140000000  0.4371520000000  0.5347770000000 1.0
C      1  0.5419120000000  0.5628490000000  0.4652220000000 1.0
C      1  0.4580870000000  0.4371540000000  0.4652190000000 1.0
C      1  0.4812910000000  0.4298520000000  0.5819560000000 1.0
C      1  0.5187120000000  0.5701420000000  0.5819600000000 1.0
C      1  0.4812870000000  0.5701470000000  0.4180450000000 1.0
C      1  0.5187100000000  0.4298580000000  0.4180400000000 1.0
C      1  0.4298560000000  0.4812860000000  0.5819580000000 1.0
C      1  0.5701460000000  0.5187090000000  0.5819570000000 1.0
C      1  0.5701440000000  0.4812920000000  0.4180400000000 1.0
C      1  0.4298540000000  0.5187130000000  0.4180440000000 1.0
C      1  0.4908770000000  0.4702250000000  0.4638760000000 1.0
C      1  0.5091220000000  0.5297770000000  0.4638780000000 1.0
C      1  0.4908780000000  0.5297750000000  0.5361240000000 1.0
C      1  0.5091230000000  0.4702230000000  0.5361220000000 1.0
C      1  0.4702230000000  0.4908780000000  0.4638770000000 1.0
C      1  0.5297750000000  0.5091240000000  0.4638770000000 1.0
C      1  0.5297770000000  0.4908760000000  0.5361220000000 1.0
C      1  0.4702240000000  0.5091210000000  0.5361240000000 1.0
C      1  0.4159360000000  0.5135420000000  0.5003780000000 1.0
C      1  0.5840640000000  0.4864580000000  0.5003750000000 1.0
C      1  0.4159370000000  0.4864570000000  0.4996240000000 1.0
C      1  0.5840630000000  0.5135430000000  0.4996230000000 1.0
C      1  0.5135430000000  0.4159370000000  0.5003730000000 1.0
C      1  0.4864570000000  0.5840630000000  0.5003790000000 1.0
C      1  0.4864580000000  0.4159360000000  0.4996210000000 1.0
C      1  0.5135420000000  0.5840640000000  0.4996260000000 1.0
C      1  0.5074020000000  0.4721870000000  0.4871510000000 1.0
C      1  0.4925970000000  0.5278140000000  0.4871530000000 1.0
C      1  0.5074030000000  0.5278130000000  0.5128490000000 1.0
C      1  0.4925980000000  0.4721860000000  0.5128470000000 1.0
C      1  0.4721860000000  0.5074030000000  0.4871520000000 1.0
C      1  0.5278130000000  0.4925980000000  0.4871510000000 1.0
C      1  0.5278140000000  0.5074020000000  0.5128480000000 1.0
C      1  0.4721870000000  0.4925970000000  0.5128480000000 1.0
C      1  0.4825560000000  0.5547290000000  0.5470390000000 1.0
C      1  0.5174450000000  0.4452680000000  0.5470350000000 1.0
C      1  0.4825550000000  0.4452710000000  0.4529620000000 1.0
C      1  0.5174430000000  0.5547320000000  0.4529650000000 1.0
C      1  0.5547320000000  0.4825550000000  0.5470350000000 1.0
C      1  0.4452700000000  0.5174420000000  0.5470380000000 1.0
C      1  0.4452690000000  0.4825570000000  0.4529640000000 1.0
C      1  0.5547300000000  0.5174460000000  0.4529630000000 1.0
C      1  0.5027320000000  0.4319380000000  0.5663810000000 1.0
C      1  0.4972700000000  0.5680580000000  0.5663850000000 1.0
C      1  0.5027290000000  0.5680620000000  0.4336190000000 1.0
C      1  0.4972690000000  0.4319420000000  0.4336150000000 1.0
C      1  0.4319410000000  0.5027280000000  0.5663840000000 1.0
C      1  0.5680610000000  0.4972680000000  0.5663820000000 1.0
C      1  0.5680590000000  0.5027330000000  0.4336160000000 1.0
C      1  0.4319390000000  0.4972710000000  0.4336180000000 1.0
C      1  0.5602730000000  0.5602730000000  0.5072790000000 1.0
C      1  0.5602730000000  0.4397280000000  0.4927190000000 1.0
C      1  0.4397270000000  0.5602730000000  0.4927250000000 1.0
C      1  0.4397270000000  0.4397260000000  0.5072770000000 1.0
END
