TITL C-3623285-6872-1820 0.468061107329174 125000 -1011.10357532741 0 0 157 (C1) n - 1
REM
REM in /home/nfs/bkarasulu/CARBON/AIRSS/Generating-Clusters/LCBOP/Higher-Symm/SD-CG/FIRE-CG
REM
REM
REM
REM
REM
REM ./C.cell (b20cbc046b6831c77cfcea5457e17084)
REM AIRSS Version 0.9.1 bugfix July 2018 build 013d7b7c2542+ Fri, 06 Jul 2018 19:26:36 +0100
REM compiler GCC version 9.2.1 20190827 (Red Hat 9.2.1-1)
REM options -cpp -mtune=generic -march=x86-64 -g -O0 -fpre-include=/usr/include/finclude/math-vector-fortran.h
REM seed -1475021487 -1795361949 2063498925 -802393385 -62538132 75130275 -1409718019 -920491535 -893784849 878637536 -1493492037 1063998487 1139680203 1516926904 -1753140558 1211321881 -342698178 -277137863 1194377305 38415451 -755155873 274998732 -373657775 -559890943 1586441029 1218094021 -1520016206 -1739817841 -873931418 -1144220578 -1821017215 -930662853 -1420965368
REM
CELL 1.54180   50.00000   50.00000   50.00000   90.00000   90.00000   90.00000
LATT -1
SFAC C  
C      1  0.4705700000000  0.5215710000000  0.4290460000000 1.0
C      1  0.4586180000000  0.4933300000000  0.5842110000000 1.0
C      1  0.5289380000000  0.5201810000000  0.4301130000000 1.0
C      1  0.5461420000000  0.4931490000000  0.5879420000000 1.0
C      1  0.4735070000000  0.5157660000000  0.5746520000000 1.0
C      1  0.4567600000000  0.4975380000000  0.4208050000000 1.0
C      1  0.5312940000000  0.5155350000000  0.5782420000000 1.0
C      1  0.5428000000000  0.4967240000000  0.4215550000000 1.0
C      1  0.4089860000000  0.5380150000000  0.4363700000000 1.0
C      1  0.4179830000000  0.4703450000000  0.5683500000000 1.0
C      1  0.5892690000000  0.5387440000000  0.4402060000000 1.0
C      1  0.5855530000000  0.4709810000000  0.5682920000000 1.0
C      1  0.4134950000000  0.5378210000000  0.5640150000000 1.0
C      1  0.4157250000000  0.4725900000000  0.4337420000000 1.0
C      1  0.5884950000000  0.5393720000000  0.5624940000000 1.0
C      1  0.5838560000000  0.4724320000000  0.4339760000000 1.0
C      1  0.5749370000000  0.4300670000000  0.5458860000000 1.0
C      1  0.5649490000000  0.5636320000000  0.4709900000000 1.0
C      1  0.4347240000000  0.4328080000000  0.5444990000000 1.0
C      1  0.4324870000000  0.5661350000000  0.4626030000000 1.0
C      1  0.5712680000000  0.4313460000000  0.4543270000000 1.0
C      1  0.5578090000000  0.5624310000000  0.5334110000000 1.0
C      1  0.4278600000000  0.4318100000000  0.4542120000000 1.0
C      1  0.4451210000000  0.5643450000000  0.5402500000000 1.0
C      1  0.5477980000000  0.5844670000000  0.4852360000000 1.0
C      1  0.5638100000000  0.4072750000000  0.5331390000000 1.0
C      1  0.4454570000000  0.5892800000000  0.4713420000000 1.0
C      1  0.4551080000000  0.4156340000000  0.5340700000000 1.0
C      1  0.5417930000000  0.5795470000000  0.5162010000000 1.0
C      1  0.5593290000000  0.4077070000000  0.4645020000000 1.0
C      1  0.4350700000000  0.6119650000000  0.4829330000000 1.0
C      1  0.4400770000000  0.4071490000000  0.4602970000000 1.0
C      1  0.5333600000000  0.4988220000000  0.5334680000000 1.0
C      1  0.5315610000000  0.4732880000000  0.4761230000000 1.0
C      1  0.4776360000000  0.5041400000000  0.5241990000000 1.0
C      1  0.4661150000000  0.4750610000000  0.4726680000000 1.0
C      1  0.5229570000000  0.5023760000000  0.4787060000000 1.0
C      1  0.5341160000000  0.4708540000000  0.5285540000000 1.0
C      1  0.4722430000000  0.5048600000000  0.4749170000000 1.0
C      1  0.4684650000000  0.4749950000000  0.5253300000000 1.0
C      1  0.4857010000000  0.4524160000000  0.5269530000000 1.0
C      1  0.4836040000000  0.5252050000000  0.4559330000000 1.0
C      1  0.5137980000000  0.4507500000000  0.5277260000000 1.0
C      1  0.5145130000000  0.5233150000000  0.4561710000000 1.0
C      1  0.4847920000000  0.4535190000000  0.4750880000000 1.0
C      1  0.4894650000000  0.5122780000000  0.5507250000000 1.0
C      1  0.5126480000000  0.4524720000000  0.4761170000000 1.0
C      1  0.5176100000000  0.5101780000000  0.5537520000000 1.0
C      1  0.4852660000000  0.5933650000000  0.4432450000000 1.0
C      1  0.4694160000000  0.3971050000000  0.5775730000000 1.0
C      1  0.5135810000000  0.5925450000000  0.4452210000000 1.0
C      1  0.5245520000000  0.4047710000000  0.5600540000000 1.0
C      1  0.4690610000000  0.5804540000000  0.5415500000000 1.0
C      1  0.4854870000000  0.4106780000000  0.4424170000000 1.0
C      1  0.5211340000000  0.6000000000000  0.5551370000000 1.0
C      1  0.5143150000000  0.4101210000000  0.4423010000000 1.0
C      1  0.3927020000000  0.4883860000000  0.5221290000000 1.0
C      1  0.3929750000000  0.5152000000000  0.4860150000000 1.0
C      1  0.6107690000000  0.4877580000000  0.5219660000000 1.0
C      1  0.6082030000000  0.5141170000000  0.4861820000000 1.0
C      1  0.3902230000000  0.4874020000000  0.4815870000000 1.0
C      1  0.3960420000000  0.5160140000000  0.5160980000000 1.0
C      1  0.6101370000000  0.4863490000000  0.4814650000000 1.0
C      1  0.6081670000000  0.5152200000000  0.5161290000000 1.0
C      1  0.4538600000000  0.5653640000000  0.4174650000000 1.0
C      1  0.4579120000000  0.4447410000000  0.5875190000000 1.0
C      1  0.5464260000000  0.5653910000000  0.4222660000000 1.0
C      1  0.5450110000000  0.4440160000000  0.5845230000000 1.0
C      1  0.4586450000000  0.5620140000000  0.5842870000000 1.0
C      1  0.4578520000000  0.4481500000000  0.4182530000000 1.0
C      1  0.5442000000000  0.5636630000000  0.5804920000000 1.0
C      1  0.5418710000000  0.4475550000000  0.4182300000000 1.0
C      1  0.4734360000000  0.4689160000000  0.5903220000000 1.0
C      1  0.4734740000000  0.5443260000000  0.4122580000000 1.0
C      1  0.5309890000000  0.4684350000000  0.5911820000000 1.0
C      1  0.5275800000000  0.5441390000000  0.4144540000000 1.0
C      1  0.4717230000000  0.4733970000000  0.4151280000000 1.0
C      1  0.4760890000000  0.5401060000000  0.5899580000000 1.0
C      1  0.5279920000000  0.4727520000000  0.4153600000000 1.0
C      1  0.5279880000000  0.5415000000000  0.5894960000000 1.0
C      1  0.4904860000000  0.5782270000000  0.5232990000000 1.0
C      1  0.4680800000000  0.4096380000000  0.4657760000000 1.0
C      1  0.5169740000000  0.5891160000000  0.5291670000000 1.0
C      1  0.5306210000000  0.4092530000000  0.4661720000000 1.0
C      1  0.4724950000000  0.5827090000000  0.4663420000000 1.0
C      1  0.4639360000000  0.3950110000000  0.5511760000000 1.0
C      1  0.5229830000000  0.5788830000000  0.4684260000000 1.0
C      1  0.5351320000000  0.4075340000000  0.5339780000000 1.0
C      1  0.4060640000000  0.5300730000000  0.4656700000000 1.0
C      1  0.4058710000000  0.4713270000000  0.5408570000000 1.0
C      1  0.5924000000000  0.5283520000000  0.4679160000000 1.0
C      1  0.5969010000000  0.4718930000000  0.5405130000000 1.0
C      1  0.4108670000000  0.5320600000000  0.5347690000000 1.0
C      1  0.4032280000000  0.4718340000000  0.4613630000000 1.0
C      1  0.5927780000000  0.5310450000000  0.5341480000000 1.0
C      1  0.5957610000000  0.4715820000000  0.4617000000000 1.0
C      1  0.5479250000000  0.5163870000000  0.4895580000000 1.0
C      1  0.5578560000000  0.4626950000000  0.5148520000000 1.0
C      1  0.4497230000000  0.5211000000000  0.4867460000000 1.0
C      1  0.4434220000000  0.4679710000000  0.5132800000000 1.0
C      1  0.5493400000000  0.5159610000000  0.5177020000000 1.0
C      1  0.5566720000000  0.4644030000000  0.4871580000000 1.0
C      1  0.4541260000000  0.5225620000000  0.5148290000000 1.0
C      1  0.4421020000000  0.4667280000000  0.4857010000000 1.0
C      1  0.4241920000000  0.4535000000000  0.5274450000000 1.0
C      1  0.4314380000000  0.5402720000000  0.4758670000000 1.0
C      1  0.5802130000000  0.4520600000000  0.5278880000000 1.0
C      1  0.5665230000000  0.5354410000000  0.4789010000000 1.0
C      1  0.4212720000000  0.4524410000000  0.4733190000000 1.0
C      1  0.4369910000000  0.5412760000000  0.5259680000000 1.0
C      1  0.5777550000000  0.4522250000000  0.4733180000000 1.0
C      1  0.5665460000000  0.5369550000000  0.5241850000000 1.0
C      1  0.5717740000000  0.4956080000000  0.4225220000000 1.0
C      1  0.5881640000000  0.5183200000000  0.5814190000000 1.0
C      1  0.4277230000000  0.4953560000000  0.4215450000000 1.0
C      1  0.4139440000000  0.5162710000000  0.5819890000000 1.0
C      1  0.5746680000000  0.4934270000000  0.5823140000000 1.0
C      1  0.5871030000000  0.5190630000000  0.4202500000000 1.0
C      1  0.4296200000000  0.4929940000000  0.5811200000000 1.0
C      1  0.4110320000000  0.5174240000000  0.4174920000000 1.0
C      1  0.4293440000000  0.5599160000000  0.4340170000000 1.0
C      1  0.4344290000000  0.4458350000000  0.5708410000000 1.0
C      1  0.5691800000000  0.5609250000000  0.4407620000000 1.0
C      1  0.5707640000000  0.4449820000000  0.5713480000000 1.0
C      1  0.4344900000000  0.5578800000000  0.5679010000000 1.0
C      1  0.4314230000000  0.4476490000000  0.4296910000000 1.0
C      1  0.5659230000000  0.5597500000000  0.5621160000000 1.0
C      1  0.5682240000000  0.4472120000000  0.4297820000000 1.0
C      1  0.4676460000000  0.4189250000000  0.5934000000000 1.0
C      1  0.4678340000000  0.5905380000000  0.4207600000000 1.0
C      1  0.5302890000000  0.4200240000000  0.5815950000000 1.0
C      1  0.5327240000000  0.5905900000000  0.4243910000000 1.0
C      1  0.4731900000000  0.4243860000000  0.4204810000000 1.0
C      1  0.4722020000000  0.5838390000000  0.5702000000000 1.0
C      1  0.5269550000000  0.4235610000000  0.4204980000000 1.0
C      1  0.5315730000000  0.5889600000000  0.5775090000000 1.0
C      1  0.5584840000000  0.6117640000000  0.4814810000000 1.0
C      1  0.5755660000000  0.3939020000000  0.5113310000000 1.0
C      1  0.4174190000000  0.6529160000000  0.5107480000000 1.0
C      1  0.4138760000000  0.3602050000000  0.4622790000000 1.0
C      1  0.5673700000000  0.6358940000000  0.4773550000000 1.0
C      1  0.5728280000000  0.3931170000000  0.4845670000000 1.0
C      1  0.4260660000000  0.6327420000000  0.4966830000000 1.0
C      1  0.4265480000000  0.3829500000000  0.4611930000000 1.0
C      1  0.4895470000000  0.5582220000000  0.5030820000000 1.0
C      1  0.4739210000000  0.4283970000000  0.4864510000000 1.0
C      1  0.5143610000000  0.5456940000000  0.4990860000000 1.0
C      1  0.5221230000000  0.4267920000000  0.4868770000000 1.0
C      1  0.4786330000000  0.5568600000000  0.4760440000000 1.0
C      1  0.4725970000000  0.4284310000000  0.5153460000000 1.0
C      1  0.5210590000000  0.5494710000000  0.4711060000000 1.0
C      1  0.5230530000000  0.4256150000000  0.5155550000000 1.0
C      1  0.5009080000000  0.5491290000000  0.4039560000000 1.0
C      1  0.5021070000000  0.4686190000000  0.5939990000000 1.0
C      1  0.4998820000000  0.4738230000000  0.4112590000000 1.0
C      1  0.5020140000000  0.5455960000000  0.6003100000000 1.0
C      1  0.4955540000000  0.5034970000000  0.4968270000000 1.0
END
