TITL C-3623284-6838-352 18260.0115986706 125000 -748.528184582924 0 0 123 (C1) n - 1
REM
REM in /home/nfs/bkarasulu/CARBON/AIRSS/Generating-Clusters/LCBOP/Higher-Symm/SD-CG/FIRE-CG
REM
REM
REM
REM
REM
REM ./C.cell (b20cbc046b6831c77cfcea5457e17084)
REM AIRSS Version 0.9.1 bugfix July 2018 build 013d7b7c2542+ Fri, 06 Jul 2018 19:26:36 +0100
REM compiler GCC version 9.2.1 20190827 (Red Hat 9.2.1-1)
REM options -cpp -mtune=generic -march=x86-64 -g -O0 -fpre-include=/usr/include/finclude/math-vector-fortran.h
REM seed 357292805 -1869748579 1801416965 -735522951 -728862566 818249024 948219477 -1595772766 1913164801 21902382 7495269 -1636385078 -1118438595 -1905050108 1546051069 -1045382346 1107303997 1299680044 -1427145516 1007774267 -2095905881 990128642 1628217301 -6288602 -1596093552 1347670545 -1556367725 357842251 -1616713355 -1185546216 1597522949 1391736238 254631901
REM
CELL 1.54180   50.00000   50.00000   50.00000   90.00000   90.00000   90.00000
LATT -1
SFAC C  
C      1  0.4839660000000  0.5734250000000  0.4498080000000 1.0
C      1  0.4834170000000  0.5770230000000  0.5507960000000 1.0
C      1  0.4954230000000  0.4344790000000  0.4559790000000 1.0
C      1  0.5004430000000  0.4338370000000  0.5431180000000 1.0
C      1  0.5604020000000  0.5904470000000  0.5306900000000 1.0
C      1  0.5618410000000  0.5751010000000  0.4812230000000 1.0
C      1  0.5010170000000  0.4764880000000  0.5235380000000 1.0
C      1  0.4984600000000  0.4776760000000  0.4739230000000 1.0
C      1  0.5403300000000  0.5946480000000  0.4864220000000 1.0
C      1  0.5392960000000  0.6021110000000  0.5153920000000 1.0
C      1  0.4584430000000  0.3834270000000  0.5461540000000 1.0
C      1  0.4703150000000  0.3843130000000  0.4420780000000 1.0
C      1  0.4723610000000  0.5122980000000  0.5798490000000 1.0
C      1  0.4729290000000  0.5090150000000  0.4231030000000 1.0
C      1  0.5593080000000  0.5035170000000  0.4209520000000 1.0
C      1  0.5603730000000  0.5147650000000  0.5736610000000 1.0
C      1  0.3952860000000  0.5202180000000  0.4623890000000 1.0
C      1  0.3961470000000  0.5204060000000  0.5380650000000 1.0
C      1  0.4515300000000  0.5139760000000  0.5137400000000 1.0
C      1  0.4512430000000  0.5134600000000  0.4856600000000 1.0
C      1  0.4968110000000  0.5272180000000  0.4747800000000 1.0
C      1  0.4937980000000  0.5232350000000  0.5288160000000 1.0
C      1  0.5427480000000  0.4586330000000  0.4727910000000 1.0
C      1  0.5480860000000  0.4673960000000  0.5313540000000 1.0
C      1  0.5390440000000  0.4300560000000  0.4683310000000 1.0
C      1  0.5603800000000  0.4419510000000  0.5360580000000 1.0
C      1  0.5336930000000  0.5470090000000  0.5319230000000 1.0
C      1  0.5300290000000  0.5489620000000  0.5035180000000 1.0
C      1  0.4844830000000  0.4539920000000  0.5282800000000 1.0
C      1  0.4814090000000  0.4552720000000  0.4698940000000 1.0
C      1  0.4991130000000  0.3948470000000  0.4836830000000 1.0
C      1  0.4926980000000  0.3918060000000  0.5110940000000 1.0
C      1  0.4934550000000  0.4950590000000  0.5749230000000 1.0
C      1  0.4932930000000  0.4906160000000  0.4252020000000 1.0
C      1  0.4309680000000  0.5566290000000  0.5131560000000 1.0
C      1  0.4308850000000  0.5562220000000  0.4859450000000 1.0
C      1  0.4369810000000  0.4696970000000  0.5690810000000 1.0
C      1  0.4360780000000  0.4688570000000  0.4304960000000 1.0
C      1  0.5199380000000  0.5367630000000  0.5973410000000 1.0
C      1  0.5203830000000  0.5319660000000  0.4025000000000 1.0
C      1  0.5776570000000  0.5181000000000  0.5425330000000 1.0
C      1  0.5785900000000  0.5054090000000  0.4447630000000 1.0
C      1  0.4875910000000  0.5928450000000  0.4699950000000 1.0
C      1  0.4868140000000  0.5957200000000  0.5295660000000 1.0
C      1  0.5193270000000  0.4908050000000  0.4380760000000 1.0
C      1  0.5195370000000  0.5009290000000  0.5587780000000 1.0
C      1  0.4458120000000  0.4871110000000  0.4738130000000 1.0
C      1  0.4480380000000  0.4876620000000  0.5266580000000 1.0
C      1  0.4731090000000  0.5397440000000  0.5772100000000 1.0
C      1  0.4739630000000  0.5364590000000  0.4236900000000 1.0
C      1  0.5194180000000  0.4570000000000  0.4088620000000 1.0
C      1  0.5209310000000  0.4598870000000  0.5834940000000 1.0
C      1  0.5851040000000  0.4491150000000  0.4929770000000 1.0
C      1  0.5801410000000  0.4353420000000  0.5165030000000 1.0
C      1  0.4065470000000  0.4331800000000  0.5130220000000 1.0
C      1  0.4070190000000  0.4321890000000  0.4862890000000 1.0
C      1  0.6141560000000  0.5234640000000  0.4785430000000 1.0
C      1  0.6141410000000  0.5260710000000  0.5060780000000 1.0
C      1  0.4273350000000  0.4422180000000  0.4376590000000 1.0
C      1  0.4273800000000  0.4436600000000  0.5612540000000 1.0
C      1  0.5541090000000  0.5480240000000  0.4880190000000 1.0
C      1  0.5527490000000  0.5654080000000  0.5414540000000 1.0
C      1  0.4121190000000  0.4369010000000  0.5389360000000 1.0
C      1  0.4130910000000  0.4346240000000  0.4603360000000 1.0
C      1  0.4638050000000  0.5509520000000  0.4472010000000 1.0
C      1  0.4639510000000  0.5531930000000  0.5524810000000 1.0
C      1  0.4495370000000  0.4280220000000  0.5725240000000 1.0
C      1  0.4479850000000  0.4275140000000  0.4228320000000 1.0
C      1  0.4645990000000  0.4558970000000  0.4107090000000 1.0
C      1  0.4677250000000  0.4558550000000  0.5843880000000 1.0
C      1  0.5613640000000  0.4827120000000  0.5129720000000 1.0
C      1  0.5665350000000  0.4720400000000  0.4852970000000 1.0
C      1  0.5233840000000  0.4767900000000  0.4622850000000 1.0
C      1  0.5237240000000  0.4792280000000  0.5383950000000 1.0
C      1  0.4986670000000  0.5472450000000  0.4134700000000 1.0
C      1  0.4969420000000  0.5515520000000  0.5880060000000 1.0
C      1  0.5031120000000  0.5758830000000  0.5731950000000 1.0
C      1  0.5060280000000  0.5694110000000  0.4307510000000 1.0
C      1  0.4212130000000  0.5184320000000  0.4504020000000 1.0
C      1  0.4223220000000  0.5191360000000  0.5495410000000 1.0
C      1  0.5510560000000  0.5677090000000  0.5854440000000 1.0
C      1  0.5535510000000  0.5548260000000  0.4257270000000 1.0
C      1  0.5402630000000  0.4912780000000  0.5778400000000 1.0
C      1  0.5380560000000  0.4810250000000  0.4177410000000 1.0
C      1  0.4853610000000  0.3802130000000  0.4638420000000 1.0
C      1  0.4711630000000  0.3779610000000  0.5229900000000 1.0
C      1  0.4651760000000  0.6025320000000  0.5127070000000 1.0
C      1  0.4660600000000  0.6019890000000  0.4857380000000 1.0
C      1  0.3843340000000  0.5199070000000  0.5138030000000 1.0
C      1  0.3840160000000  0.5198880000000  0.4869140000000 1.0
C      1  0.6041490000000  0.5258820000000  0.5321580000000 1.0
C      1  0.6041850000000  0.5177150000000  0.4530720000000 1.0
C      1  0.5134470000000  0.5984470000000  0.4795760000000 1.0
C      1  0.5119020000000  0.6040210000000  0.5197790000000 1.0
C      1  0.4430900000000  0.5374410000000  0.5335510000000 1.0
C      1  0.4426180000000  0.5365790000000  0.4658590000000 1.0
C      1  0.5869430000000  0.5838870000000  0.4919170000000 1.0
C      1  0.5860840000000  0.5920550000000  0.5181150000000 1.0
C      1  0.4593070000000  0.4629670000000  0.5149400000000 1.0
C      1  0.4578090000000  0.4630530000000  0.4851360000000 1.0
C      1  0.5175060000000  0.5273020000000  0.5440860000000 1.0
C      1  0.5069580000000  0.5477580000000  0.4883570000000 1.0
C      1  0.5120490000000  0.4185070000000  0.4742600000000 1.0
C      1  0.5044000000000  0.4099160000000  0.5287680000000 1.0
C      1  0.5676420000000  0.4995360000000  0.4708050000000 1.0
C      1  0.5649630000000  0.5102090000000  0.5173360000000 1.0
C      1  0.5413410000000  0.4242560000000  0.4398960000000 1.0
C      1  0.5473170000000  0.4281320000000  0.5566490000000 1.0
C      1  0.4327170000000  0.4905840000000  0.4480160000000 1.0
C      1  0.4344260000000  0.4916010000000  0.5519740000000 1.0
C      1  0.5183470000000  0.4343910000000  0.4270410000000 1.0
C      1  0.5215750000000  0.4380720000000  0.5642370000000 1.0
C      1  0.4927250000000  0.4685790000000  0.5859500000000 1.0
C      1  0.4904060000000  0.4666150000000  0.4092780000000 1.0
C      1  0.4579090000000  0.4020980000000  0.4264830000000 1.0
C      1  0.4547430000000  0.4018210000000  0.5653120000000 1.0
C      1  0.4923660000000  0.5006140000000  0.5128030000000 1.0
C      1  0.4926000000000  0.5019910000000  0.4853420000000 1.0
C      1  0.5298740000000  0.5843350000000  0.5786700000000 1.0
C      1  0.5341460000000  0.5729810000000  0.4324870000000 1.0
C      1  0.5473370000000  0.5297390000000  0.4132520000000 1.0
C      1  0.5480170000000  0.5389030000000  0.5877550000000 1.0
C      1  0.5646390000000  0.5217610000000  0.4902150000000 1.0
END
