TITL C-3623286-7563-154 -2.5608970866117e-06 125000 -862.91959948057 0 0 142 (C5) n - 1
REM
REM in /home/nfs/bkarasulu/CARBON/AIRSS/Generating-Clusters/LCBOP/Higher-Symm/SD-CG/FIRE-CG
REM
REM
REM
REM
REM
REM ./C.cell (b20cbc046b6831c77cfcea5457e17084)
REM AIRSS Version 0.9.1 bugfix July 2018 build 013d7b7c2542+ Fri, 06 Jul 2018 19:26:36 +0100
REM compiler GCC version 9.2.1 20190827 (Red Hat 9.2.1-1)
REM options -cpp -mtune=generic -march=x86-64 -g -O0 -fpre-include=/usr/include/finclude/math-vector-fortran.h
REM seed 1841628445 -395608954 -819303046 1034751242 -14872747 861710698 -1604979251 -225218272 -923533908 -1960505129 1576871555 -1830944115 -918059923 614402027 2130653015 1410644935 520493350 636431108 -637755994 687379480 1178557837 1239313614 1466732285 -388737606 1472779685 -937259179 -1613231952 990950241 -2032730449 -837597061 925050848 -2017164699 -444160044
REM
CELL 1.54180   50.00000   50.00000   50.00000   90.00000   90.00000   90.00000
LATT -1
SFAC C  
C      1  0.4408600000000  0.5153120000000  0.4836420000000 1.0
C      1  0.4662340000000  0.5153120000000  0.5517160000000 1.0
C      1  0.5388180000000  0.5153120000000  0.5486200000000 1.0
C      1  0.5583030000000  0.5153120000000  0.4786320000000 1.0
C      1  0.4977620000000  0.5153110000000  0.4384730000000 1.0
C      1  0.4408600000000  0.4858230000000  0.4836420000000 1.0
C      1  0.4662340000000  0.4858230000000  0.5517170000000 1.0
C      1  0.5388180000000  0.4858230000000  0.5486210000000 1.0
C      1  0.5583030000000  0.4858230000000  0.4786320000000 1.0
C      1  0.4977620000000  0.4858220000000  0.4384730000000 1.0
C      1  0.5278310000000  0.4843180000000  0.4430220000000 1.0
C      1  0.4544780000000  0.4843180000000  0.4564500000000 1.0
C      1  0.4445820000000  0.4843190000000  0.5303620000000 1.0
C      1  0.5118180000000  0.4843190000000  0.5626140000000 1.0
C      1  0.5632690000000  0.4843180000000  0.5086350000000 1.0
C      1  0.5278310000000  0.5168160000000  0.4430220000000 1.0
C      1  0.4544780000000  0.5168160000000  0.4564500000000 1.0
C      1  0.4445820000000  0.5168170000000  0.5303620000000 1.0
C      1  0.5118180000000  0.5168170000000  0.5626140000000 1.0
C      1  0.5632690000000  0.5168160000000  0.5086350000000 1.0
C      1  0.4931690000000  0.4495080000000  0.5364500000000 1.0
C      1  0.5326220000000  0.4495080000000  0.5182860000000 1.0
C      1  0.5275390000000  0.4495080000000  0.4751510000000 1.0
C      1  0.4849440000000  0.4495080000000  0.4666570000000 1.0
C      1  0.4637030000000  0.4495080000000  0.5045410000000 1.0
C      1  0.4931690000000  0.5516270000000  0.5364500000000 1.0
C      1  0.5326220000000  0.5516270000000  0.5182850000000 1.0
C      1  0.5275390000000  0.5516260000000  0.4751510000000 1.0
C      1  0.4849440000000  0.5516260000000  0.4666560000000 1.0
C      1  0.4637030000000  0.5516270000000  0.5045410000000 1.0
C      1  0.4584900000000  0.4608670000000  0.4098530000000 1.0
C      1  0.4015040000000  0.4608680000000  0.5121480000000 1.0
C      1  0.4811830000000  0.4608690000000  0.5979550000000 1.0
C      1  0.5874130000000  0.4608680000000  0.5486920000000 1.0
C      1  0.5733870000000  0.4608670000000  0.4324380000000 1.0
C      1  0.4584900000000  0.5402660000000  0.4098520000000 1.0
C      1  0.4015040000000  0.5402670000000  0.5121470000000 1.0
C      1  0.4811830000000  0.5402680000000  0.5979540000000 1.0
C      1  0.5874130000000  0.5402670000000  0.5486910000000 1.0
C      1  0.5733870000000  0.5402660000000  0.4324380000000 1.0
C      1  0.4467670000000  0.5645690000000  0.5722260000000 1.0
C      1  0.5523090000000  0.5645690000000  0.5734720000000 1.0
C      1  0.5861080000000  0.5645680000000  0.4734810000000 1.0
C      1  0.5014560000000  0.5645680000000  0.4104370000000 1.0
C      1  0.4153380000000  0.5645690000000  0.4714650000000 1.0
C      1  0.4467670000000  0.4365670000000  0.5722270000000 1.0
C      1  0.5523090000000  0.4365670000000  0.5734730000000 1.0
C      1  0.5861080000000  0.4365660000000  0.4734820000000 1.0
C      1  0.5014550000000  0.4365650000000  0.4104380000000 1.0
C      1  0.4153380000000  0.4365660000000  0.4714660000000 1.0
C      1  0.5117960000000  0.4599880000000  0.3962970000000 1.0
C      1  0.4050840000000  0.4599890000000  0.4572610000000 1.0
C      1  0.4300890000000  0.4599900000000  0.5775890000000 1.0
C      1  0.5522550000000  0.4599900000000  0.5909920000000 1.0
C      1  0.6027530000000  0.4599890000000  0.4789470000000 1.0
C      1  0.5117970000000  0.5411450000000  0.3962960000000 1.0
C      1  0.4050840000000  0.5411450000000  0.4572600000000 1.0
C      1  0.4300890000000  0.5411460000000  0.5775890000000 1.0
C      1  0.5522550000000  0.5411460000000  0.5909910000000 1.0
C      1  0.6027530000000  0.5411450000000  0.4789460000000 1.0
C      1  0.4919030000000  0.5707950000000  0.5572250000000 1.0
C      1  0.5519900000000  0.5707950000000  0.5259100000000 1.0
C      1  0.5407750000000  0.5707940000000  0.4590870000000 1.0
C      1  0.4737570000000  0.5707940000000  0.4491030000000 1.0
C      1  0.4435530000000  0.5707950000000  0.5097560000000 1.0
C      1  0.4919030000000  0.4303410000000  0.5572260000000 1.0
C      1  0.5519890000000  0.4303400000000  0.5259110000000 1.0
C      1  0.5407750000000  0.4303400000000  0.4590880000000 1.0
C      1  0.4737570000000  0.4303400000000  0.4491050000000 1.0
C      1  0.4435530000000  0.4303400000000  0.5097570000000 1.0
C      1  0.5336000000000  0.4144280000000  0.5703040000000 1.0
C      1  0.5773120000000  0.4144270000000  0.4902960000000 1.0
C      1  0.5147280000000  0.4144270000000  0.4239990000000 1.0
C      1  0.4323360000000  0.4144270000000  0.4630340000000 1.0
C      1  0.4440000000000  0.4144280000000  0.5534550000000 1.0
C      1  0.5336010000000  0.5867080000000  0.5703020000000 1.0
C      1  0.5773130000000  0.5867070000000  0.4902940000000 1.0
C      1  0.5147280000000  0.5867060000000  0.4239980000000 1.0
C      1  0.4323360000000  0.5867070000000  0.4630330000000 1.0
C      1  0.4440010000000  0.5867080000000  0.5534540000000 1.0
C      1  0.5953040000000  0.4869370000000  0.5506500000000 1.0
C      1  0.5776890000000  0.4869360000000  0.4255380000000 1.0
C      1  0.4532570000000  0.4869360000000  0.4036300000000 1.0
C      1  0.3939690000000  0.4869370000000  0.5152010000000 1.0
C      1  0.4817590000000  0.4869380000000  0.6060650000000 1.0
C      1  0.5953040000000  0.5141980000000  0.5506500000000 1.0
C      1  0.5776890000000  0.5141970000000  0.4255380000000 1.0
C      1  0.4532570000000  0.5141970000000  0.4036290000000 1.0
C      1  0.3939690000000  0.5141980000000  0.5152010000000 1.0
C      1  0.4817590000000  0.5141990000000  0.6060650000000 1.0
C      1  0.5266920000000  0.6038440000000  0.5022470000000 1.0
C      1  0.5104530000000  0.6038440000000  0.4758340000000 1.0
C      1  0.4803150000000  0.6038440000000  0.4831160000000 1.0
C      1  0.4779280000000  0.6038440000000  0.5140300000000 1.0
C      1  0.5065900000000  0.6038440000000  0.5258530000000 1.0
C      1  0.5266920000000  0.3972910000000  0.5022480000000 1.0
C      1  0.5104530000000  0.3972910000000  0.4758360000000 1.0
C      1  0.4803150000000  0.3972910000000  0.4831180000000 1.0
C      1  0.4779270000000  0.3972910000000  0.5140320000000 1.0
C      1  0.5065900000000  0.3972910000000  0.5258550000000 1.0
C      1  0.4906950000000  0.4739200000000  0.5485200000000 1.0
C      1  0.5433370000000  0.4739200000000  0.5243700000000 1.0
C      1  0.5366360000000  0.4739190000000  0.4668410000000 1.0
C      1  0.4798520000000  0.4739190000000  0.4554370000000 1.0
C      1  0.4514590000000  0.4739190000000  0.5059170000000 1.0
C      1  0.4906950000000  0.5272160000000  0.5485200000000 1.0
C      1  0.5433370000000  0.5272160000000  0.5243690000000 1.0
C      1  0.5366360000000  0.5272150000000  0.4668410000000 1.0
C      1  0.4798520000000  0.5272150000000  0.4554370000000 1.0
C      1  0.4514590000000  0.5272160000000  0.5059170000000 1.0
C      1  0.5540210000000  0.5143730000000  0.5976190000000 1.0
C      1  0.6096010000000  0.5143720000000  0.4793150000000 1.0
C      1  0.5142630000000  0.5143710000000  0.3898970000000 1.0
C      1  0.3997600000000  0.5143720000000  0.4529370000000 1.0
C      1  0.4243320000000  0.5143730000000  0.5813160000000 1.0
C      1  0.5540210000000  0.4867630000000  0.5976190000000 1.0
C      1  0.6096010000000  0.4867620000000  0.4793150000000 1.0
C      1  0.5142630000000  0.4867620000000  0.3898970000000 1.0
C      1  0.3997600000000  0.4867620000000  0.4529380000000 1.0
C      1  0.4243320000000  0.4867630000000  0.5813170000000 1.0
C      1  0.4748870000000  0.5614610000000  0.5793610000000 1.0
C      1  0.5677840000000  0.5614600000000  0.5489330000000 1.0
C      1  0.5675520000000  0.5614600000000  0.4511810000000 1.0
C      1  0.4745120000000  0.5614590000000  0.4211930000000 1.0
C      1  0.4172420000000  0.5614600000000  0.5004130000000 1.0
C      1  0.4748870000000  0.4396750000000  0.5793620000000 1.0
C      1  0.5677840000000  0.4396750000000  0.5489350000000 1.0
C      1  0.5675520000000  0.4396740000000  0.4511820000000 1.0
C      1  0.4745120000000  0.4396740000000  0.4211940000000 1.0
C      1  0.4172420000000  0.4396750000000  0.5004140000000 1.0
C      1  0.5107600000000  0.5917480000000  0.5529880000000 1.0
C      1  0.5537880000000  0.5917470000000  0.5066660000000 1.0
C      1  0.5230290000000  0.5917470000000  0.4514300000000 1.0
C      1  0.4609920000000  0.5917470000000  0.4636150000000 1.0
C      1  0.4534090000000  0.5917480000000  0.5263810000000 1.0
C      1  0.5107600000000  0.4093880000000  0.5529900000000 1.0
C      1  0.5537870000000  0.4093870000000  0.5066680000000 1.0
C      1  0.5230290000000  0.4093870000000  0.4514320000000 1.0
C      1  0.4609920000000  0.4093870000000  0.4636170000000 1.0
C      1  0.4534090000000  0.4093880000000  0.5263830000000 1.0
C      1  0.5003960000000  0.5530810000000  0.5002160000000 1.0
C      1  0.5003950000000  0.4480540000000  0.5002170000000 1.0
END
