TITL C-3623289-7120-6 6492.23512656227 125000 -844.479211144507 0 0 138 (C1) n - 1
REM
REM in /home/nfs/bkarasulu/CARBON/AIRSS/Generating-Clusters/LCBOP/Higher-Symm/SD-CG/FIRE-CG
REM
REM
REM
REM
REM
REM ./C.cell (b20cbc046b6831c77cfcea5457e17084)
REM AIRSS Version 0.9.1 bugfix July 2018 build 013d7b7c2542+ Fri, 06 Jul 2018 19:26:36 +0100
REM compiler GCC version 9.2.1 20190827 (Red Hat 9.2.1-1)
REM options -cpp -mtune=generic -march=x86-64 -g -O0 -fpre-include=/usr/include/finclude/math-vector-fortran.h
REM seed 1634758273 -912388046 -201124082 2107804461 -1594791202 -23418975 -367061723 831740937 2109991670 648845522 1326942241 -703213925 84366118 983632106 -267043112 748574184 -364700879 1686961227 -1873537811 680478773 1404649610 146244484 855343443 867013715 539294067 -884816126 -1688673798 778377862 -79598498 1532170496 2069332426 178351570 203414913
REM
CELL 1.54180   50.00000   50.00000   50.00000   90.00000   90.00000   90.00000
LATT -1
SFAC C  
C      1  0.5350670000000  0.5133020000000  0.6126530000000 1.0
C      1  0.4719570000000  0.5155990000000  0.3852910000000 1.0
C      1  0.5396130000000  0.4884770000000  0.3937890000000 1.0
C      1  0.4680800000000  0.4845090000000  0.6126640000000 1.0
C      1  0.6139880000000  0.5113240000000  0.5283010000000 1.0
C      1  0.3876590000000  0.5137860000000  0.4650280000000 1.0
C      1  0.3832820000000  0.4764290000000  0.5260560000000 1.0
C      1  0.6050930000000  0.4848870000000  0.4605470000000 1.0
C      1  0.5290000000000  0.4201810000000  0.4921210000000 1.0
C      1  0.4723400000000  0.4190750000000  0.5291700000000 1.0
C      1  0.5463630000000  0.5839980000000  0.5064190000000 1.0
C      1  0.4704660000000  0.5848130000000  0.4712580000000 1.0
C      1  0.4945600000000  0.4210180000000  0.5471760000000 1.0
C      1  0.5123400000000  0.4211240000000  0.4670290000000 1.0
C      1  0.5289250000000  0.5850420000000  0.5294560000000 1.0
C      1  0.4937160000000  0.5842260000000  0.4540850000000 1.0
C      1  0.5739340000000  0.5369500000000  0.5256480000000 1.0
C      1  0.4266400000000  0.5363400000000  0.4756290000000 1.0
C      1  0.5667080000000  0.4629520000000  0.4744750000000 1.0
C      1  0.4283630000000  0.4652850000000  0.5242640000000 1.0
C      1  0.5283910000000  0.5388160000000  0.5732120000000 1.0
C      1  0.4731560000000  0.5382180000000  0.4272630000000 1.0
C      1  0.4733560000000  0.4656460000000  0.5717720000000 1.0
C      1  0.5246610000000  0.4643400000000  0.4311470000000 1.0
C      1  0.4728430000000  0.5441210000000  0.5066790000000 1.0
C      1  0.5273360000000  0.5412030000000  0.4925610000000 1.0
C      1  0.4734400000000  0.4640060000000  0.4994120000000 1.0
C      1  0.5240930000000  0.4654710000000  0.5091860000000 1.0
C      1  0.5074440000000  0.5413190000000  0.4729270000000 1.0
C      1  0.4937500000000  0.5445260000000  0.5272970000000 1.0
C      1  0.4887300000000  0.4648620000000  0.4751350000000 1.0
C      1  0.5063540000000  0.4665540000000  0.5308350000000 1.0
C      1  0.5995190000000  0.4696150000000  0.5087070000000 1.0
C      1  0.4014300000000  0.4692770000000  0.4804050000000 1.0
C      1  0.5997830000000  0.5292860000000  0.4835810000000 1.0
C      1  0.3946410000000  0.5231810000000  0.5149370000000 1.0
C      1  0.5151580000000  0.4706890000000  0.5995660000000 1.0
C      1  0.4914450000000  0.4732770000000  0.3982000000000 1.0
C      1  0.4880430000000  0.5296140000000  0.6014930000000 1.0
C      1  0.5160140000000  0.5321740000000  0.4009540000000 1.0
C      1  0.5171300000000  0.4008770000000  0.4486140000000 1.0
C      1  0.5007410000000  0.3997300000000  0.5633640000000 1.0
C      1  0.5351560000000  0.6025430000000  0.5497890000000 1.0
C      1  0.4992240000000  0.6059140000000  0.4381830000000 1.0
C      1  0.4550520000000  0.3978370000000  0.5324430000000 1.0
C      1  0.5345560000000  0.3944350000000  0.5011600000000 1.0
C      1  0.5623910000000  0.6055680000000  0.5007790000000 1.0
C      1  0.4499760000000  0.6020980000000  0.4649380000000 1.0
C      1  0.5401970000000  0.4700780000000  0.5775910000000 1.0
C      1  0.4648460000000  0.4716020000000  0.4202580000000 1.0
C      1  0.5383230000000  0.5346750000000  0.4222060000000 1.0
C      1  0.4649850000000  0.5334620000000  0.5825110000000 1.0
C      1  0.5771690000000  0.4688640000000  0.5358730000000 1.0
C      1  0.4219990000000  0.4705940000000  0.4564020000000 1.0
C      1  0.4116180000000  0.5229030000000  0.5473310000000 1.0
C      1  0.5781090000000  0.5335170000000  0.4614130000000 1.0
C      1  0.4423180000000  0.4902320000000  0.5240690000000 1.0
C      1  0.5535200000000  0.4876880000000  0.4787590000000 1.0
C      1  0.4435430000000  0.5139350000000  0.4791620000000 1.0
C      1  0.5560360000000  0.5156040000000  0.5208470000000 1.0
C      1  0.5199970000000  0.4882000000000  0.4456150000000 1.0
C      1  0.4770320000000  0.4906400000000  0.5588680000000 1.0
C      1  0.4784440000000  0.5165040000000  0.4444480000000 1.0
C      1  0.5228720000000  0.5168330000000  0.5564650000000 1.0
C      1  0.5417440000000  0.4436850000000  0.4377540000000 1.0
C      1  0.4519950000000  0.4489710000000  0.5652420000000 1.0
C      1  0.5508480000000  0.5543580000000  0.5671590000000 1.0
C      1  0.4502260000000  0.5532550000000  0.4334120000000 1.0
C      1  0.4335210000000  0.4483480000000  0.5459850000000 1.0
C      1  0.5593550000000  0.4424470000000  0.4574610000000 1.0
C      1  0.5694160000000  0.5534190000000  0.5478230000000 1.0
C      1  0.4321950000000  0.5527020000000  0.4534050000000 1.0
C      1  0.5938850000000  0.4648530000000  0.4802040000000 1.0
C      1  0.4042500000000  0.4629110000000  0.5096720000000 1.0
C      1  0.5990590000000  0.5326970000000  0.5136230000000 1.0
C      1  0.4004540000000  0.5319330000000  0.4859060000000 1.0
C      1  0.4855700000000  0.4651380000000  0.5972900000000 1.0
C      1  0.5198910000000  0.4681450000000  0.4040350000000 1.0
C      1  0.5183170000000  0.5343860000000  0.5991640000000 1.0
C      1  0.4860700000000  0.5356830000000  0.4022280000000 1.0
C      1  0.5103890000000  0.4443070000000  0.5484720000000 1.0
C      1  0.4854810000000  0.4376340000000  0.4608910000000 1.0
C      1  0.5112290000000  0.5619750000000  0.4536060000000 1.0
C      1  0.5035320000000  0.5722910000000  0.5302190000000 1.0
C      1  0.5401780000000  0.4414930000000  0.5090300000000 1.0
C      1  0.4679330000000  0.4362250000000  0.5069680000000 1.0
C      1  0.4697440000000  0.5719690000000  0.4966400000000 1.0
C      1  0.5469910000000  0.5615320000000  0.4891640000000 1.0
C      1  0.4639680000000  0.4452600000000  0.4379490000000 1.0
C      1  0.5378680000000  0.4457380000000  0.5584420000000 1.0
C      1  0.4418670000000  0.5509970000000  0.5799700000000 1.0
C      1  0.5377020000000  0.5585120000000  0.4415540000000 1.0
C      1  0.4359060000000  0.4446640000000  0.4481420000000 1.0
C      1  0.5566780000000  0.4446470000000  0.5348620000000 1.0
C      1  0.5590960000000  0.5580110000000  0.4627900000000 1.0
C      1  0.4192400000000  0.5475640000000  0.5640630000000 1.0
C      1  0.4137520000000  0.4844520000000  0.4286080000000 1.0
C      1  0.5902830000000  0.4778610000000  0.5639850000000 1.0
C      1  0.4012720000000  0.5004780000000  0.5670920000000 1.0
C      1  0.5873580000000  0.5278000000000  0.4326860000000 1.0
C      1  0.4368500000000  0.4826560000000  0.4076730000000 1.0
C      1  0.5691340000000  0.4792040000000  0.5874060000000 1.0
C      1  0.5663330000000  0.5271150000000  0.4120370000000 1.0
C      1  0.4180430000000  0.4940900000000  0.5904040000000 1.0
C      1  0.4908950000000  0.4921370000000  0.5327610000000 1.0
C      1  0.5056700000000  0.4892190000000  0.4716880000000 1.0
C      1  0.4909450000000  0.5168960000000  0.4714580000000 1.0
C      1  0.5076550000000  0.5182730000000  0.5310540000000 1.0
C      1  0.5273950000000  0.4895900000000  0.4929980000000 1.0
C      1  0.4693450000000  0.4913810000000  0.5114380000000 1.0
C      1  0.4694490000000  0.5171070000000  0.4935380000000 1.0
C      1  0.5288470000000  0.5167430000000  0.5086650000000 1.0
C      1  0.4439540000000  0.4906760000000  0.4628750000000 1.0
C      1  0.5570960000000  0.4919890000000  0.5356740000000 1.0
C      1  0.4390270000000  0.5114730000000  0.5425500000000 1.0
C      1  0.5571390000000  0.5105850000000  0.4628200000000 1.0
C      1  0.4649300000000  0.4921300000000  0.4429020000000 1.0
C      1  0.5376080000000  0.4928850000000  0.5571450000000 1.0
C      1  0.5361360000000  0.5112190000000  0.4426900000000 1.0
C      1  0.4601110000000  0.5127730000000  0.5624530000000 1.0
C      1  0.4456910000000  0.5044380000000  0.3897400000000 1.0
C      1  0.5614030000000  0.5021450000000  0.6054840000000 1.0
C      1  0.4400910000000  0.4884000000000  0.6058780000000 1.0
C      1  0.5662150000000  0.4975840000000  0.4072330000000 1.0
C      1  0.3960740000000  0.5066360000000  0.4380140000000 1.0
C      1  0.6087180000000  0.4998400000000  0.5546870000000 1.0
C      1  0.5928090000000  0.4923870000000  0.4338570000000 1.0
C      1  0.3849710000000  0.4810650000000  0.5538900000000 1.0
C      1  0.6178460000000  0.4920250000000  0.5072260000000 1.0
C      1  0.3810370000000  0.4911050000000  0.4814100000000 1.0
C      1  0.6156130000000  0.5045420000000  0.4797380000000 1.0
C      1  0.3777940000000  0.4993440000000  0.5096900000000 1.0
C      1  0.5149640000000  0.4934850000000  0.6182620000000 1.0
C      1  0.4929370000000  0.4963350000000  0.3806610000000 1.0
C      1  0.4873840000000  0.5052640000000  0.6185330000000 1.0
C      1  0.5203770000000  0.5085880000000  0.3835600000000 1.0
C      1  0.4822120000000  0.5874150000000  0.5177880000000 1.0
C      1  0.4671200000000  0.4229900000000  0.4812150000000 1.0
END
