TITL C-3623285-6872-994 -1.38079629342961e-06 125000 -714.541582896238 0 0 118 (C1) n - 1
REM
REM in /home/nfs/bkarasulu/CARBON/AIRSS/Generating-Clusters/LCBOP/Higher-Symm/SD-CG/FIRE-CG
REM
REM
REM
REM
REM
REM ./C.cell (b20cbc046b6831c77cfcea5457e17084)
REM AIRSS Version 0.9.1 bugfix July 2018 build 013d7b7c2542+ Fri, 06 Jul 2018 19:26:36 +0100
REM compiler GCC version 9.2.1 20190827 (Red Hat 9.2.1-1)
REM options -cpp -mtune=generic -march=x86-64 -g -O0 -fpre-include=/usr/include/finclude/math-vector-fortran.h
REM seed -1260743331 1796255686 -1831055785 -1552932886 1408776173 1609841476 822721040 1663488455 -1236163159 -419253134 867821099 -1541522944 182958214 169100977 1688491650 1416714025 168341106 -189521871 -408138465 1615728378 -1454331999 652592589 1321926982 176244664 -1530327826 -674633213 -2029272708 1444692383 -894571780 -1491426104 1996774662 67560004 1895288712
REM
CELL 1.54180   50.00000   50.00000   50.00000   90.00000   90.00000   90.00000
LATT -1
SFAC C  
C      1  0.5124030000000  0.5496570000000  0.4840610000000 1.0
C      1  0.4938140000000  0.4584730000000  0.4759900000000 1.0
C      1  0.5201510000000  0.4676750000000  0.4599110000000 1.0
C      1  0.4810750000000  0.5264240000000  0.4475350000000 1.0
C      1  0.5100440000000  0.5476290000000  0.5434950000000 1.0
C      1  0.4815140000000  0.4545850000000  0.5439330000000 1.0
C      1  0.4490920000000  0.5067470000000  0.5751530000000 1.0
C      1  0.5659410000000  0.4811150000000  0.5789940000000 1.0
C      1  0.5094390000000  0.4995800000000  0.5294200000000 1.0
C      1  0.4820030000000  0.5019210000000  0.5271880000000 1.0
C      1  0.5759370000000  0.4824160000000  0.6045360000000 1.0
C      1  0.4628310000000  0.4913430000000  0.5931650000000 1.0
C      1  0.4459760000000  0.5723480000000  0.4987200000000 1.0
C      1  0.5516320000000  0.4200610000000  0.5001310000000 1.0
C      1  0.5384460000000  0.5200690000000  0.3738160000000 1.0
C      1  0.4883710000000  0.4850110000000  0.3679180000000 1.0
C      1  0.4005920000000  0.5408220000000  0.5449770000000 1.0
C      1  0.5972650000000  0.4486510000000  0.5436320000000 1.0
C      1  0.5836070000000  0.4623540000000  0.4488560000000 1.0
C      1  0.4185080000000  0.5445450000000  0.4408320000000 1.0
C      1  0.5330630000000  0.4394080000000  0.4531990000000 1.0
C      1  0.4703440000000  0.5573590000000  0.4511480000000 1.0
C      1  0.4686550000000  0.4775150000000  0.5332760000000 1.0
C      1  0.5218380000000  0.5241790000000  0.5347670000000 1.0
C      1  0.5218510000000  0.5362840000000  0.4220400000000 1.0
C      1  0.4842630000000  0.4650760000000  0.4176360000000 1.0
C      1  0.4820930000000  0.6176240000000  0.4962540000000 1.0
C      1  0.5071320000000  0.3831750000000  0.4956640000000 1.0
C      1  0.5634480000000  0.5147460000000  0.5429530000000 1.0
C      1  0.4246080000000  0.4817740000000  0.5360540000000 1.0
C      1  0.4555890000000  0.4404350000000  0.6028970000000 1.0
C      1  0.5552900000000  0.5613250000000  0.5726460000000 1.0
C      1  0.4612110000000  0.5772650000000  0.4754800000000 1.0
C      1  0.5375610000000  0.4174520000000  0.4758720000000 1.0
C      1  0.5286810000000  0.5253640000000  0.3974070000000 1.0
C      1  0.4886180000000  0.4778700000000  0.3929910000000 1.0
C      1  0.5536110000000  0.4275680000000  0.5275900000000 1.0
C      1  0.4404100000000  0.5651420000000  0.5262190000000 1.0
C      1  0.4585700000000  0.4253830000000  0.4508460000000 1.0
C      1  0.5394040000000  0.5862840000000  0.4609220000000 1.0
C      1  0.5069820000000  0.4282240000000  0.4406410000000 1.0
C      1  0.4972060000000  0.5710460000000  0.4444660000000 1.0
C      1  0.5922250000000  0.5210200000000  0.4507220000000 1.0
C      1  0.4097160000000  0.4806710000000  0.4318020000000 1.0
C      1  0.5242630000000  0.4450950000000  0.5654310000000 1.0
C      1  0.4721600000000  0.5567460000000  0.5683040000000 1.0
C      1  0.5964970000000  0.4778390000000  0.4693450000000 1.0
C      1  0.4028390000000  0.5260110000000  0.4555070000000 1.0
C      1  0.4448870000000  0.4748440000000  0.5172060000000 1.0
C      1  0.5472980000000  0.5247310000000  0.5224840000000 1.0
C      1  0.5265130000000  0.4912910000000  0.4447780000000 1.0
C      1  0.4659170000000  0.5073310000000  0.4332000000000 1.0
C      1  0.5404640000000  0.5806190000000  0.4325060000000 1.0
C      1  0.4658330000000  0.4211340000000  0.4226440000000 1.0
C      1  0.5456310000000  0.5132700000000  0.4954810000000 1.0
C      1  0.4502810000000  0.4857530000000  0.4899200000000 1.0
C      1  0.4828030000000  0.5857270000000  0.5319020000000 1.0
C      1  0.5072200000000  0.4160810000000  0.5306650000000 1.0
C      1  0.5718140000000  0.4485400000000  0.5310350000000 1.0
C      1  0.4215210000000  0.5438710000000  0.5264680000000 1.0
C      1  0.4892740000000  0.3718360000000  0.5392910000000 1.0
C      1  0.4948680000000  0.6318150000000  0.5408470000000 1.0
C      1  0.6072800000000  0.5200400000000  0.5285330000000 1.0
C      1  0.3951870000000  0.4829160000000  0.5943810000000 1.0
C      1  0.4255580000000  0.4910260000000  0.4106460000000 1.0
C      1  0.5729170000000  0.5127820000000  0.4337390000000 1.0
C      1  0.4240500000000  0.5272360000000  0.5028560000000 1.0
C      1  0.5692450000000  0.4680770000000  0.5100940000000 1.0
C      1  0.5213840000000  0.3940580000000  0.4756050000000 1.0
C      1  0.4722230000000  0.6034990000000  0.4755730000000 1.0
C      1  0.5145110000000  0.5734070000000  0.4686920000000 1.0
C      1  0.4855050000000  0.4310130000000  0.4630150000000 1.0
C      1  0.4953160000000  0.4494640000000  0.5688040000000 1.0
C      1  0.5026710000000  0.5555950000000  0.5701480000000 1.0
C      1  0.5289670000000  0.5617310000000  0.5814560000000 1.0
C      1  0.4794740000000  0.4423650000000  0.5909060000000 1.0
C      1  0.6142370000000  0.4699380000000  0.5456350000000 1.0
C      1  0.3898490000000  0.5248050000000  0.5639010000000 1.0
C      1  0.5272790000000  0.5266810000000  0.4759370000000 1.0
C      1  0.4694590000000  0.4756290000000  0.4693500000000 1.0
C      1  0.4164690000000  0.4562220000000  0.4443740000000 1.0
C      1  0.6083920000000  0.5163760000000  0.4993960000000 1.0
C      1  0.4735720000000  0.5228110000000  0.5082800000000 1.0
C      1  0.5208170000000  0.4780830000000  0.5135200000000 1.0
C      1  0.4302190000000  0.4472990000000  0.6080140000000 1.0
C      1  0.5782150000000  0.5568510000000  0.5579620000000 1.0
C      1  0.5039660000000  0.4570120000000  0.5037220000000 1.0
C      1  0.4909800000000  0.5456420000000  0.5022620000000 1.0
C      1  0.5465990000000  0.4840830000000  0.5022830000000 1.0
C      1  0.4491390000000  0.5148810000000  0.4955150000000 1.0
C      1  0.4900580000000  0.4367640000000  0.4181500000000 1.0
C      1  0.5176910000000  0.5642930000000  0.4245140000000 1.0
C      1  0.4867930000000  0.6123120000000  0.5235790000000 1.0
C      1  0.5008840000000  0.3898110000000  0.5223650000000 1.0
C      1  0.5613460000000  0.4471900000000  0.4441030000000 1.0
C      1  0.4429720000000  0.5552330000000  0.4371300000000 1.0
C      1  0.5519530000000  0.4958730000000  0.4323070000000 1.0
C      1  0.4463000000000  0.5083060000000  0.4130390000000 1.0
C      1  0.4567000000000  0.5339090000000  0.5748240000000 1.0
C      1  0.5437470000000  0.4638730000000  0.5740550000000 1.0
C      1  0.4334150000000  0.4377270000000  0.4542890000000 1.0
C      1  0.5569660000000  0.5998890000000  0.4763260000000 1.0
C      1  0.5920110000000  0.4666530000000  0.4941510000000 1.0
C      1  0.4039330000000  0.5279900000000  0.4834260000000 1.0
C      1  0.4081410000000  0.4623270000000  0.6058960000000 1.0
C      1  0.5969820000000  0.5447360000000  0.5415220000000 1.0
C      1  0.5781160000000  0.4972540000000  0.5588100000000 1.0
C      1  0.4263460000000  0.4957280000000  0.5610780000000 1.0
C      1  0.5308070000000  0.4252100000000  0.5446690000000 1.0
C      1  0.4607530000000  0.5730760000000  0.5459430000000 1.0
C      1  0.6022710000000  0.5061490000000  0.4724980000000 1.0
C      1  0.3951930000000  0.5009900000000  0.4449340000000 1.0
C      1  0.4928370000000  0.4391680000000  0.5226270000000 1.0
C      1  0.4976270000000  0.5629860000000  0.5237630000000 1.0
C      1  0.5137450000000  0.5189770000000  0.4481800000000 1.0
C      1  0.4722190000000  0.4804090000000  0.4402190000000 1.0
C      1  0.4012240000000  0.5011020000000  0.5738900000000 1.0
C      1  0.6043950000000  0.4963900000000  0.5463480000000 1.0
END
