TITL C-3623282-6910-71 -0.337594023689778 125000 -595.446205188662 0 0 99 (C1) n - 1
REM
REM in /home/nfs/bkarasulu/CARBON/AIRSS/Generating-Clusters/LCBOP/Higher-Symm/SD-CG/FIRE-CG
REM
REM
REM
REM
REM
REM ./C.cell (b20cbc046b6831c77cfcea5457e17084)
REM AIRSS Version 0.9.1 bugfix July 2018 build 013d7b7c2542+ Fri, 06 Jul 2018 19:26:36 +0100
REM compiler GCC version 9.2.1 20190827 (Red Hat 9.2.1-1)
REM options -cpp -mtune=generic -march=x86-64 -g -O0 -fpre-include=/usr/include/finclude/math-vector-fortran.h
REM seed -1534440454 -1058365895 -78481147 -1851320113 -1576285424 79026738 1445691794 1300719049 -94825039 1558629672 -1149542977 -280916688 604549848 -1136204058 8525729 -461574696 -583098413 313390407 -449409673 -69847353 -332334501 1014197000 -543002818 -2086781469 -445694894 407917549 1338511007 1101134306 1281116217 34126865 1510383926 -1485492935 -1028735330
REM
CELL 1.54180   50.00000   50.00000   50.00000   90.00000   90.00000   90.00000
LATT -1
SFAC C  
C      1  0.4470830000000  0.5258940000000  0.5086880000000 1.0
C      1  0.5028000000000  0.4712670000000  0.5004170000000 1.0
C      1  0.5408650000000  0.4183990000000  0.4913240000000 1.0
C      1  0.4808910000000  0.5900660000000  0.5268800000000 1.0
C      1  0.4855650000000  0.5759660000000  0.4813880000000 1.0
C      1  0.5223220000000  0.4229960000000  0.5376870000000 1.0
C      1  0.5441240000000  0.4314520000000  0.5542750000000 1.0
C      1  0.4639320000000  0.5811310000000  0.4635870000000 1.0
C      1  0.5775430000000  0.5262860000000  0.5388550000000 1.0
C      1  0.4632100000000  0.4482980000000  0.4008890000000 1.0
C      1  0.5695120000000  0.4342860000000  0.5417020000000 1.0
C      1  0.4400800000000  0.5850080000000  0.4795080000000 1.0
C      1  0.4814590000000  0.5201910000000  0.5774240000000 1.0
C      1  0.5412130000000  0.4841080000000  0.4333060000000 1.0
C      1  0.4583130000000  0.5605240000000  0.5559740000000 1.0
C      1  0.5645570000000  0.4485570000000  0.4624040000000 1.0
C      1  0.4595540000000  0.5176600000000  0.5332910000000 1.0
C      1  0.4652290000000  0.4762540000000  0.4622460000000 1.0
C      1  0.5373730000000  0.5588640000000  0.5498610000000 1.0
C      1  0.4911840000000  0.4306590000000  0.4435540000000 1.0
C      1  0.5259620000000  0.4077830000000  0.5141310000000 1.0
C      1  0.4922800000000  0.5949370000000  0.5008250000000 1.0
C      1  0.5611760000000  0.4377420000000  0.4893660000000 1.0
C      1  0.4570560000000  0.5760430000000  0.5312160000000 1.0
C      1  0.4919360000000  0.4783350000000  0.4563070000000 1.0
C      1  0.4408950000000  0.5077770000000  0.5526030000000 1.0
C      1  0.4490740000000  0.5263480000000  0.4613740000000 1.0
C      1  0.5095590000000  0.4932970000000  0.5408140000000 1.0
C      1  0.5451840000000  0.4768860000000  0.5694260000000 1.0
C      1  0.4435500000000  0.5568820000000  0.4265150000000 1.0
C      1  0.5083550000000  0.5622940000000  0.5574780000000 1.0
C      1  0.5202790000000  0.4343740000000  0.4472620000000 1.0
C      1  0.5253030000000  0.6008910000000  0.5316710000000 1.0
C      1  0.5019050000000  0.3987660000000  0.4759140000000 1.0
C      1  0.4772400000000  0.4372520000000  0.4204580000000 1.0
C      1  0.5568670000000  0.5386140000000  0.5505460000000 1.0
C      1  0.4844550000000  0.4636870000000  0.5754510000000 1.0
C      1  0.5085340000000  0.5314380000000  0.4422020000000 1.0
C      1  0.5356150000000  0.4507200000000  0.5744730000000 1.0
C      1  0.4674780000000  0.5678960000000  0.4373490000000 1.0
C      1  0.5021970000000  0.5890130000000  0.5460550000000 1.0
C      1  0.5262490000000  0.4133040000000  0.4670800000000 1.0
C      1  0.4267800000000  0.4832220000000  0.5523420000000 1.0
C      1  0.5889480000000  0.5040170000000  0.4449060000000 1.0
C      1  0.5274930000000  0.5184700000000  0.5808730000000 1.0
C      1  0.4132190000000  0.5184590000000  0.4290300000000 1.0
C      1  0.4198100000000  0.4961760000000  0.3555550000000 1.0
C      1  0.6011080000000  0.5103440000000  0.4678650000000 1.0
C      1  0.4129390000000  0.5910970000000  0.4707980000000 1.0
C      1  0.5950150000000  0.4358400000000  0.5558450000000 1.0
C      1  0.4567840000000  0.4784750000000  0.4891610000000 1.0
C      1  0.4833760000000  0.5028350000000  0.5288590000000 1.0
C      1  0.5053910000000  0.3902970000000  0.5032040000000 1.0
C      1  0.5166240000000  0.6098670000000  0.5053710000000 1.0
C      1  0.5118110000000  0.5374670000000  0.4705260000000 1.0
C      1  0.4767570000000  0.4487840000000  0.5505070000000 1.0
C      1  0.5761670000000  0.4422190000000  0.5129550000000 1.0
C      1  0.4375250000000  0.5793100000000  0.5101890000000 1.0
C      1  0.3951400000000  0.5886880000000  0.4918450000000 1.0
C      1  0.6148940000000  0.4453470000000  0.5390550000000 1.0
C      1  0.6026540000000  0.5147550000000  0.4941750000000 1.0
C      1  0.4341950000000  0.4793530000000  0.3693270000000 1.0
C      1  0.4340910000000  0.5330630000000  0.4384730000000 1.0
C      1  0.5280820000000  0.4983870000000  0.5622570000000 1.0
C      1  0.4534910000000  0.4459790000000  0.5329900000000 1.0
C      1  0.5379670000000  0.5379470000000  0.4813680000000 1.0
C      1  0.5895610000000  0.4472430000000  0.4509000000000 1.0
C      1  0.4368380000000  0.5609320000000  0.5732120000000 1.0
C      1  0.4086530000000  0.4759580000000  0.5712780000000 1.0
C      1  0.5681440000000  0.4942650000000  0.4310940000000 1.0
C      1  0.5090330000000  0.4516390000000  0.5862400000000 1.0
C      1  0.4912200000000  0.5517900000000  0.4306960000000 1.0
C      1  0.4487600000000  0.4628870000000  0.3841360000000 1.0
C      1  0.5940120000000  0.5192110000000  0.5190570000000 1.0
C      1  0.5130380000000  0.4676220000000  0.5262410000000 1.0
C      1  0.4626390000000  0.5330720000000  0.4855430000000 1.0
C      1  0.5487420000000  0.5125450000000  0.4852130000000 1.0
C      1  0.4336290000000  0.4669330000000  0.5298830000000 1.0
C      1  0.5281110000000  0.6284050000000  0.4893300000000 1.0
C      1  0.4927940000000  0.3699760000000  0.5159680000000 1.0
C      1  0.4548210000000  0.4278790000000  0.5108640000000 1.0
C      1  0.5528650000000  0.5604190000000  0.4883610000000 1.0
C      1  0.4884410000000  0.5473060000000  0.4837940000000 1.0
C      1  0.5025660000000  0.4434790000000  0.5374610000000 1.0
C      1  0.4800870000000  0.4149800000000  0.4659430000000 1.0
C      1  0.5458500000000  0.5813050000000  0.5329890000000 1.0
C      1  0.5597850000000  0.5755710000000  0.5093110000000 1.0
C      1  0.4606570000000  0.4213880000000  0.4853550000000 1.0
C      1  0.4796250000000  0.4924490000000  0.5806170000000 1.0
C      1  0.5212350000000  0.5065990000000  0.4322420000000 1.0
C      1  0.5130280000000  0.4773280000000  0.4757090000000 1.0
C      1  0.4244630000000  0.5082110000000  0.5034470000000 1.0
C      1  0.4086460000000  0.5816470000000  0.5149880000000 1.0
C      1  0.6043800000000  0.4496810000000  0.5137960000000 1.0
C      1  0.4838450000000  0.5470570000000  0.5646680000000 1.0
C      1  0.5407150000000  0.4554860000000  0.4451750000000 1.0
C      1  0.4322260000000  0.4803840000000  0.5037480000000 1.0
C      1  0.5381110000000  0.4892560000000  0.4782100000000 1.0
C      1  0.4788610000000  0.4853000000000  0.5057820000000 1.0
END
