TITL C-3623282-6910-820 -4.25292273121885e-07 125000 -188.56319685579 0 0 31 (C3v) n - 1
REM
REM in /home/nfs/bkarasulu/CARBON/AIRSS/Generating-Clusters/LCBOP/Higher-Symm/SD-CG/FIRE-CG
REM
REM
REM
REM
REM
REM ./C.cell (b20cbc046b6831c77cfcea5457e17084)
REM AIRSS Version 0.9.1 bugfix July 2018 build 013d7b7c2542+ Fri, 06 Jul 2018 19:26:36 +0100
REM compiler GCC version 9.2.1 20190827 (Red Hat 9.2.1-1)
REM options -cpp -mtune=generic -march=x86-64 -g -O0 -fpre-include=/usr/include/finclude/math-vector-fortran.h
REM seed 2068375828 -1203750463 -999366741 -2103273442 1714801166 -1018586544 -1265437771 463200716 -1449578660 -701124163 2031810873 1410106002 1979050403 -617954877 -1680192229 384209442 405430283 1715421857 -1665596616 -1950548526 -1241376908 -884417927 1342825058 395535765 -1240191629 1644868739 -1575916682 1982807893 -2078525560 366247050 -1600554611 1552219432 -2100572598
REM
CELL 1.54180   50.00000   50.00000   50.00000   90.00000   90.00000   90.00000
LATT -1
SFAC C  
C      1  0.5288460000000  0.4801020000000  0.4260560000000 1.0
C      1  0.4226970000000  0.4800990000000  0.5116850000000 1.0
C      1  0.5499280000000  0.4800820000000  0.5607990000000 1.0
C      1  0.4986670000000  0.5433860000000  0.4371740000000 1.0
C      1  0.4474160000000  0.5433770000000  0.5322800000000 1.0
C      1  0.5554050000000  0.5433690000000  0.5291110000000 1.0
C      1  0.5600540000000  0.5492180000000  0.5036400000000 1.0
C      1  0.4742830000000  0.5492330000000  0.4458850000000 1.0
C      1  0.4671510000000  0.5492200000000  0.5490420000000 1.0
C      1  0.4399470000000  0.5433840000000  0.4845420000000 1.0
C      1  0.5177980000000  0.5433680000000  0.5594480000000 1.0
C      1  0.5437430000000  0.5433800000000  0.4545750000000 1.0
C      1  0.4317020000000  0.4551670000000  0.5102730000000 1.0
C      1  0.5442030000000  0.4551520000000  0.5537000000000 1.0
C      1  0.5255610000000  0.4551690000000  0.4345580000000 1.0
C      1  0.5284860000000  0.5066240000000  0.4270000000000 1.0
C      1  0.4236940000000  0.5066210000000  0.5115330000000 1.0
C      1  0.5492980000000  0.5066040000000  0.5600180000000 1.0
C      1  0.5191460000000  0.4354830000000  0.4511710000000 1.0
C      1  0.4492970000000  0.4354810000000  0.5075170000000 1.0
C      1  0.5330180000000  0.4354700000000  0.5398350000000 1.0
C      1  0.4728850000000  0.4238930000000  0.5038240000000 1.0
C      1  0.5180270000000  0.4238870000000  0.5212500000000 1.0
C      1  0.5105470000000  0.4238940000000  0.4734430000000 1.0
C      1  0.4536190000000  0.5492320000000  0.4625550000000 1.0
C      1  0.4919200000000  0.5492160000000  0.5586030000000 1.0
C      1  0.5559500000000  0.5492220000000  0.4774100000000 1.0
C      1  0.5240930000000  0.5317790000000  0.4383890000000 1.0
C      1  0.4357550000000  0.5317770000000  0.5096500000000 1.0
C      1  0.5416370000000  0.5317620000000  0.5505220000000 1.0
C      1  0.5004860000000  0.4225600000000  0.4995060000000 1.0
END
