TITL C-3623286-7563-928 -1441.03008461189 125000 -457.079361606805 0 0 79 (C1) n - 1
REM
REM in /home/nfs/bkarasulu/CARBON/AIRSS/Generating-Clusters/LCBOP/Higher-Symm/SD-CG/FIRE-CG
REM
REM
REM
REM
REM
REM ./C.cell (b20cbc046b6831c77cfcea5457e17084)
REM AIRSS Version 0.9.1 bugfix July 2018 build 013d7b7c2542+ Fri, 06 Jul 2018 19:26:36 +0100
REM compiler GCC version 9.2.1 20190827 (Red Hat 9.2.1-1)
REM options -cpp -mtune=generic -march=x86-64 -g -O0 -fpre-include=/usr/include/finclude/math-vector-fortran.h
REM seed 181156982 1812622351 477768488 761595788 1820504610 -129091731 -1750024803 802210376 469498067 970928475 1124414124 -1752485794 1389604450 2096593187 -53262968 878429343 -1848912699 1624276303 365342189 1207146252 598973265 -1872385621 295612176 -482932219 -37026148 760984377 698820449 -1423612332 -561888227 1109348413 -1330905007 1091858024 132151970
REM
CELL 1.54180   50.00000   50.00000   50.00000   90.00000   90.00000   90.00000
LATT -1
SFAC C  
C      1  0.4834060000000  0.4639810000000  0.5694800000000 1.0
C      1  0.5044950000000  0.4661300000000  0.4501340000000 1.0
C      1  0.5653560000000  0.5150360000000  0.4055680000000 1.0
C      1  0.4577850000000  0.5191100000000  0.5980070000000 1.0
C      1  0.5351510000000  0.4719500000000  0.5336140000000 1.0
C      1  0.4479620000000  0.4609410000000  0.4612780000000 1.0
C      1  0.5393190000000  0.5659420000000  0.5034300000000 1.0
C      1  0.4535170000000  0.5660820000000  0.4994720000000 1.0
C      1  0.5211370000000  0.5048510000000  0.4931840000000 1.0
C      1  0.4732320000000  0.5116340000000  0.5149590000000 1.0
C      1  0.5332020000000  0.4711880000000  0.4480390000000 1.0
C      1  0.4542520000000  0.4692990000000  0.5689050000000 1.0
C      1  0.5709900000000  0.5257030000000  0.4814780000000 1.0
C      1  0.4262480000000  0.5301910000000  0.5324290000000 1.0
C      1  0.5382930000000  0.5160890000000  0.5624240000000 1.0
C      1  0.4430210000000  0.5118880000000  0.4566270000000 1.0
C      1  0.5171560000000  0.3950640000000  0.4326780000000 1.0
C      1  0.4961040000000  0.3931130000000  0.5882470000000 1.0
C      1  0.5325130000000  0.5224560000000  0.5893720000000 1.0
C      1  0.5794040000000  0.5434190000000  0.3408530000000 1.0
C      1  0.4322540000000  0.5503090000000  0.5123650000000 1.0
C      1  0.5593050000000  0.5488270000000  0.4907750000000 1.0
C      1  0.4557290000000  0.4946580000000  0.4988750000000 1.0
C      1  0.5377970000000  0.4837810000000  0.5071560000000 1.0
C      1  0.4817970000000  0.5693860000000  0.4580870000000 1.0
C      1  0.5109970000000  0.5712340000000  0.5446750000000 1.0
C      1  0.5216900000000  0.5181590000000  0.4657020000000 1.0
C      1  0.4698720000000  0.5234050000000  0.5419700000000 1.0
C      1  0.4972280000000  0.4864320000000  0.5540660000000 1.0
C      1  0.4859900000000  0.4878590000000  0.4562960000000 1.0
C      1  0.5549740000000  0.5117520000000  0.4308310000000 1.0
C      1  0.4390230000000  0.5164340000000  0.5769070000000 1.0
C      1  0.5631630000000  0.4802210000000  0.4950600000000 1.0
C      1  0.4318230000000  0.4863150000000  0.5120630000000 1.0
C      1  0.5247620000000  0.4469790000000  0.5458800000000 1.0
C      1  0.4635880000000  0.4412300000000  0.4509640000000 1.0
C      1  0.4924730000000  0.3694010000000  0.5984550000000 1.0
C      1  0.5285770000000  0.3719930000000  0.4285740000000 1.0
C      1  0.4968940000000  0.5132770000000  0.4528850000000 1.0
C      1  0.4868510000000  0.5127140000000  0.5617610000000 1.0
C      1  0.5085560000000  0.5252010000000  0.6041060000000 1.0
C      1  0.5855230000000  0.5209930000000  0.3553220000000 1.0
C      1  0.5272100000000  0.4917880000000  0.5529030000000 1.0
C      1  0.4577770000000  0.4882600000000  0.4686560000000 1.0
C      1  0.4582950000000  0.5600100000000  0.4711830000000 1.0
C      1  0.5339310000000  0.5600500000000  0.5318820000000 1.0
C      1  0.5693260000000  0.4973620000000  0.4736280000000 1.0
C      1  0.4228240000000  0.5000990000000  0.5350830000000 1.0
C      1  0.5752160000000  0.5179590000000  0.3811700000000 1.0
C      1  0.4849090000000  0.5196610000000  0.5896020000000 1.0
C      1  0.5396680000000  0.5298060000000  0.4467340000000 1.0
C      1  0.4453040000000  0.5335490000000  0.5538280000000 1.0
C      1  0.4441620000000  0.5386130000000  0.4592660000000 1.0
C      1  0.5448840000000  0.5373030000000  0.5448770000000 1.0
C      1  0.5080490000000  0.5748320000000  0.4627990000000 1.0
C      1  0.4846970000000  0.5758060000000  0.5396540000000 1.0
C      1  0.4915600000000  0.4409630000000  0.4458300000000 1.0
C      1  0.5025340000000  0.4417920000000  0.5649810000000 1.0
C      1  0.6016090000000  0.5014990000000  0.3447870000000 1.0
C      1  0.5084200000000  0.5326660000000  0.6303180000000 1.0
C      1  0.5186360000000  0.5817980000000  0.4886880000000 1.0
C      1  0.4744580000000  0.5817840000000  0.5135210000000 1.0
C      1  0.4341500000000  0.4902730000000  0.5626760000000 1.0
C      1  0.5567160000000  0.4888950000000  0.4483670000000 1.0
C      1  0.5050560000000  0.4180790000000  0.4377600000000 1.0
C      1  0.4996820000000  0.4171290000000  0.5776520000000 1.0
C      1  0.4964430000000  0.5971570000000  0.5009310000000 1.0
C      1  0.4998910000000  0.5452280000000  0.5009490000000 1.0
C      1  0.4845450000000  0.3279650000000  0.4727480000000 1.0
C      1  0.4794550000000  0.4015290000000  0.5009670000000 1.0
C      1  0.4804690000000  0.4275680000000  0.5057730000000 1.0
C      1  0.4848630000000  0.4530020000000  0.5118680000000 1.0
C      1  0.4960850000000  0.6515510000000  0.5003390000000 1.0
C      1  0.4959190000000  0.6776190000000  0.5000830000000 1.0
C      1  0.4909390000000  0.4747130000000  0.5260190000000 1.0
C      1  0.4821470000000  0.3517210000000  0.4832120000000 1.0
C      1  0.4802100000000  0.3762400000000  0.4930900000000 1.0
C      1  0.4985450000000  0.5185320000000  0.5047770000000 1.0
C      1  0.4962570000000  0.6250620000000  0.5006070000000 1.0
END
