TITL C-3623284-6838-1151 -1.67437267798763e-07 125000 -187.483262804485 0 0 32 (D3d) n - 1
REM
REM in /home/nfs/bkarasulu/CARBON/AIRSS/Generating-Clusters/LCBOP/Higher-Symm/SD-CG/FIRE-CG
REM
REM
REM
REM
REM
REM ./C.cell (b20cbc046b6831c77cfcea5457e17084)
REM AIRSS Version 0.9.1 bugfix July 2018 build 013d7b7c2542+ Fri, 06 Jul 2018 19:26:36 +0100
REM compiler GCC version 9.2.1 20190827 (Red Hat 9.2.1-1)
REM options -cpp -mtune=generic -march=x86-64 -g -O0 -fpre-include=/usr/include/finclude/math-vector-fortran.h
REM seed -1540041604 -314387678 121829077 -2117306098 1954941091 -1706501052 758657395 1075400252 2087476571 1180034903 1500452827 -2075012805 -1816578175 701733004 1687193754 -634703752 1984192877 -1556824326 -189230522 -5494875 -1161562449 -758092515 -412032721 1865096856 1590361887 -907464658 -57496591 925739274 -493954102 -1640525484 1005937848 418863533 -787629802
REM
CELL 1.54180   50.00000   50.00000   50.00000   90.00000   90.00000   90.00000
LATT -1
SFAC C  
C      1  0.5138480000000  0.5693240000000  0.5229710000000 1.0
C      1  0.4721020000000  0.5693230000000  0.4988680000000 1.0
C      1  0.5138490000000  0.5693240000000  0.4747670000000 1.0
C      1  0.4860200000000  0.4355250000000  0.5229710000000 1.0
C      1  0.5277660000000  0.4355250000000  0.4988690000000 1.0
C      1  0.4860200000000  0.4355250000000  0.4747660000000 1.0
C      1  0.5253610000000  0.5223550000000  0.5429110000000 1.0
C      1  0.4490780000000  0.5223540000000  0.4988680000000 1.0
C      1  0.5253620000000  0.5223550000000  0.4548260000000 1.0
C      1  0.4745060000000  0.4824930000000  0.5429110000000 1.0
C      1  0.5507900000000  0.4824950000000  0.4988690000000 1.0
C      1  0.4745070000000  0.4824930000000  0.4548260000000 1.0
C      1  0.5462030000000  0.4547970000000  0.4988690000000 1.0
C      1  0.4768000000000  0.4547950000000  0.5389380000000 1.0
C      1  0.4768010000000  0.4547960000000  0.4587990000000 1.0
C      1  0.4536650000000  0.5500520000000  0.4988680000000 1.0
C      1  0.5230670000000  0.5500530000000  0.5389380000000 1.0
C      1  0.5230680000000  0.5500530000000  0.4587990000000 1.0
C      1  0.5278390000000  0.4991630000000  0.4988690000000 1.0
C      1  0.4859820000000  0.4991630000000  0.5230340000000 1.0
C      1  0.4859820000000  0.4991630000000  0.4747020000000 1.0
C      1  0.4720300000000  0.5056850000000  0.4988680000000 1.0
C      1  0.5138860000000  0.5056850000000  0.5230350000000 1.0
C      1  0.5138860000000  0.5056860000000  0.4747030000000 1.0
C      1  0.4618990000000  0.4929350000000  0.5647460000000 1.0
C      1  0.4619000000000  0.4929350000000  0.4329910000000 1.0
C      1  0.5760030000000  0.4929370000000  0.4988690000000 1.0
C      1  0.5379680000000  0.5119130000000  0.5647470000000 1.0
C      1  0.5379690000000  0.5119130000000  0.4329910000000 1.0
C      1  0.4238650000000  0.5119110000000  0.4988680000000 1.0
C      1  0.4999330000000  0.5729670000000  0.4988690000000 1.0
C      1  0.4999350000000  0.4318820000000  0.4988690000000 1.0
END
