TITL C-3623283-6828-1825 7813.78342747047 125000 -1012.52327671984 0 0 167 (C1) n - 1
REM
REM in /home/nfs/bkarasulu/CARBON/AIRSS/Generating-Clusters/LCBOP/Higher-Symm/SD-CG/FIRE-CG
REM
REM
REM
REM
REM
REM ./C.cell (b20cbc046b6831c77cfcea5457e17084)
REM AIRSS Version 0.9.1 bugfix July 2018 build 013d7b7c2542+ Fri, 06 Jul 2018 19:26:36 +0100
REM compiler GCC version 9.2.1 20190827 (Red Hat 9.2.1-1)
REM options -cpp -mtune=generic -march=x86-64 -g -O0 -fpre-include=/usr/include/finclude/math-vector-fortran.h
REM seed -41174485 -1093858528 -904217228 -673000772 218555945 189870830 439875311 1908344492 -381427274 -1756012660 -472491039 592908057 1114686331 -618281951 -223761384 -904542283 -1390666154 555843893 2059795386 1491043351 2096669567 -1139354166 -1552463439 -1516434045 -1941909634 -1414500032 21120718 1428657804 2123029345 -1709658943 -2016273252 -132780885 -621723642
REM
CELL 1.54180   50.00000   50.00000   50.00000   90.00000   90.00000   90.00000
LATT -1
SFAC C  
C      1  0.4294900000000  0.4890420000000  0.4107580000000 1.0
C      1  0.4306210000000  0.5833710000000  0.5316140000000 1.0
C      1  0.4274000000000  0.4335000000000  0.5632720000000 1.0
C      1  0.4838410000000  0.5950480000000  0.5326290000000 1.0
C      1  0.4785370000000  0.4250690000000  0.5580130000000 1.0
C      1  0.4821170000000  0.4938650000000  0.4031260000000 1.0
C      1  0.6194160000000  0.5736950000000  0.5115700000000 1.0
C      1  0.6423120000000  0.4635820000000  0.5599570000000 1.0
C      1  0.6033920000000  0.4105830000000  0.4275120000000 1.0
C      1  0.5594110000000  0.3982440000000  0.5275190000000 1.0
C      1  0.5556140000000  0.5419080000000  0.4035770000000 1.0
C      1  0.5552280000000  0.5694640000000  0.5981350000000 1.0
C      1  0.4653060000000  0.4531130000000  0.3962730000000 1.0
C      1  0.4581000000000  0.6085840000000  0.4961540000000 1.0
C      1  0.4607600000000  0.4441860000000  0.5972040000000 1.0
C      1  0.5497610000000  0.5205380000000  0.3840290000000 1.0
C      1  0.5520500000000  0.5929830000000  0.6151050000000 1.0
C      1  0.5461890000000  0.3917890000000  0.5524690000000 1.0
C      1  0.4759760000000  0.5386340000000  0.5589920000000 1.0
C      1  0.4604570000000  0.4262110000000  0.5044490000000 1.0
C      1  0.4629130000000  0.5189970000000  0.4385580000000 1.0
C      1  0.4400560000000  0.4425250000000  0.5156000000000 1.0
C      1  0.4655880000000  0.4999390000000  0.4611590000000 1.0
C      1  0.4649760000000  0.5294870000000  0.5305800000000 1.0
C      1  0.6632230000000  0.4634490000000  0.5755240000000 1.0
C      1  0.6090640000000  0.3988510000000  0.4049340000000 1.0
C      1  0.6308440000000  0.5948890000000  0.5215610000000 1.0
C      1  0.5611370000000  0.4285000000000  0.5187500000000 1.0
C      1  0.5515440000000  0.5334530000000  0.4307170000000 1.0
C      1  0.5553240000000  0.5727950000000  0.5699840000000 1.0
C      1  0.4934750000000  0.4481370000000  0.5483890000000 1.0
C      1  0.4941110000000  0.4858790000000  0.4291410000000 1.0
C      1  0.4975010000000  0.5726660000000  0.5197910000000 1.0
C      1  0.5214710000000  0.5510450000000  0.4819370000000 1.0
C      1  0.5373120000000  0.4822370000000  0.5492130000000 1.0
C      1  0.5312000000000  0.4791570000000  0.4647530000000 1.0
C      1  0.4854630000000  0.4391560000000  0.4994500000000 1.0
C      1  0.4780980000000  0.5417510000000  0.4450440000000 1.0
C      1  0.5024730000000  0.5246350000000  0.5602220000000 1.0
C      1  0.4937740000000  0.3794670000000  0.5001010000000 1.0
C      1  0.4881880000000  0.5616820000000  0.3847650000000 1.0
C      1  0.4926790000000  0.5560800000000  0.6247430000000 1.0
C      1  0.5165580000000  0.3906420000000  0.5494720000000 1.0
C      1  0.5206470000000  0.5187760000000  0.3786790000000 1.0
C      1  0.5307070000000  0.5895140000000  0.6323060000000 1.0
C      1  0.4922190000000  0.4475860000000  0.3877080000000 1.0
C      1  0.4821510000000  0.6222910000000  0.4877530000000 1.0
C      1  0.4839240000000  0.4337020000000  0.6097240000000 1.0
C      1  0.5678720000000  0.5368550000000  0.4770410000000 1.0
C      1  0.5747310000000  0.4506210000000  0.5350400000000 1.0
C      1  0.5625570000000  0.5192070000000  0.4537520000000 1.0
C      1  0.5290100000000  0.4809590000000  0.5213680000000 1.0
C      1  0.5140310000000  0.4975530000000  0.4793470000000 1.0
C      1  0.5136520000000  0.5331720000000  0.5051150000000 1.0
C      1  0.5235610000000  0.5001190000000  0.6168450000000 1.0
C      1  0.5325950000000  0.4093890000000  0.4541810000000 1.0
C      1  0.5183480000000  0.5968550000000  0.4287300000000 1.0
C      1  0.5149650000000  0.3828990000000  0.5187270000000 1.0
C      1  0.5130110000000  0.5482630000000  0.3827070000000 1.0
C      1  0.5193880000000  0.5633140000000  0.6286460000000 1.0
C      1  0.4159210000000  0.4604860000000  0.4785110000000 1.0
C      1  0.4246900000000  0.5273570000000  0.4736240000000 1.0
C      1  0.4204620000000  0.5066380000000  0.5411630000000 1.0
C      1  0.4451340000000  0.4212430000000  0.4598690000000 1.0
C      1  0.4366590000000  0.5622300000000  0.4381150000000 1.0
C      1  0.4427140000000  0.5191050000000  0.5821550000000 1.0
C      1  0.4214480000000  0.4424420000000  0.5371670000000 1.0
C      1  0.4169050000000  0.5086600000000  0.4307110000000 1.0
C      1  0.4214950000000  0.5558110000000  0.5391110000000 1.0
C      1  0.5988890000000  0.4773410000000  0.5025460000000 1.0
C      1  0.5970960000000  0.4606100000000  0.4802250000000 1.0
C      1  0.5972100000000  0.5050610000000  0.5001650000000 1.0
C      1  0.5247040000000  0.5962880000000  0.4583190000000 1.0
C      1  0.5268360000000  0.4738420000000  0.6014810000000 1.0
C      1  0.5357460000000  0.4361630000000  0.4364010000000 1.0
C      1  0.5494940000000  0.5583920000000  0.4853500000000 1.0
C      1  0.5580690000000  0.4620870000000  0.5557830000000 1.0
C      1  0.5548420000000  0.4895940000000  0.4506000000000 1.0
C      1  0.4802720000000  0.5596500000000  0.4977880000000 1.0
C      1  0.4873970000000  0.4756410000000  0.5429810000000 1.0
C      1  0.4798300000000  0.4759020000000  0.4541650000000 1.0
C      1  0.5478190000000  0.4033190000000  0.4788960000000 1.0
C      1  0.5359490000000  0.5894290000000  0.4071190000000 1.0
C      1  0.5445090000000  0.5199810000000  0.6191910000000 1.0
C      1  0.4567550000000  0.4817120000000  0.3992460000000 1.0
C      1  0.4564040000000  0.5969260000000  0.5240390000000 1.0
C      1  0.4545840000000  0.4304500000000  0.5721060000000 1.0
C      1  0.3977990000000  0.4826410000000  0.4750730000000 1.0
C      1  0.4043650000000  0.5275290000000  0.4942970000000 1.0
C      1  0.4004250000000  0.4904890000000  0.5272390000000 1.0
C      1  0.5024050000000  0.5433240000000  0.4317950000000 1.0
C      1  0.5258080000000  0.5391910000000  0.5583930000000 1.0
C      1  0.5106580000000  0.4282370000000  0.5037920000000 1.0
C      1  0.5003450000000  0.4073810000000  0.5696430000000 1.0
C      1  0.5067360000000  0.4933970000000  0.3849350000000 1.0
C      1  0.5024180000000  0.6172090000000  0.5278520000000 1.0
C      1  0.4635580000000  0.4306340000000  0.4396470000000 1.0
C      1  0.4506040000000  0.5808010000000  0.4571570000000 1.0
C      1  0.4568430000000  0.4924230000000  0.5878510000000 1.0
C      1  0.4912500000000  0.4335410000000  0.4492070000000 1.0
C      1  0.4797730000000  0.5840960000000  0.4529550000000 1.0
C      1  0.4867600000000  0.4930010000000  0.5874500000000 1.0
C      1  0.4132690000000  0.4648230000000  0.4082360000000 1.0
C      1  0.4097760000000  0.5955420000000  0.5149830000000 1.0
C      1  0.4094600000000  0.4429500000000  0.5836750000000 1.0
C      1  0.4837710000000  0.3935650000000  0.4773310000000 1.0
C      1  0.4740360000000  0.5765260000000  0.4044440000000 1.0
C      1  0.4822420000000  0.5357950000000  0.6085450000000 1.0
C      1  0.5401730000000  0.5478820000000  0.6134950000000 1.0
C      1  0.5416720000000  0.3878500000000  0.5047350000000 1.0
C      1  0.5359520000000  0.5629510000000  0.3957610000000 1.0
C      1  0.5295210000000  0.4444650000000  0.5947300000000 1.0
C      1  0.5381820000000  0.4563650000000  0.4122030000000 1.0
C      1  0.5313580000000  0.6060210000000  0.4857800000000 1.0
C      1  0.4977440000000  0.5029910000000  0.5410970000000 1.0
C      1  0.4874900000000  0.4641780000000  0.4878890000000 1.0
C      1  0.4800330000000  0.5406570000000  0.4747040000000 1.0
C      1  0.5986200000000  0.4639620000000  0.5276540000000 1.0
C      1  0.5867280000000  0.4358100000000  0.4726100000000 1.0
C      1  0.5908250000000  0.5313840000000  0.4930640000000 1.0
C      1  0.4643170000000  0.5386340000000  0.5854990000000 1.0
C      1  0.4582560000000  0.4080610000000  0.4818130000000 1.0
C      1  0.4473420000000  0.5681730000000  0.4117670000000 1.0
C      1  0.4908770000000  0.5198720000000  0.5186840000000 1.0
C      1  0.5079930000000  0.4804170000000  0.5014110000000 1.0
C      1  0.4890480000000  0.5131030000000  0.4760140000000 1.0
C      1  0.4456790000000  0.4687690000000  0.5996460000000 1.0
C      1  0.4515800000000  0.4361790000000  0.4143500000000 1.0
C      1  0.4393230000000  0.5973410000000  0.4773650000000 1.0
C      1  0.5444960000000  0.5833180000000  0.5018320000000 1.0
C      1  0.5410670000000  0.4426000000000  0.5684410000000 1.0
C      1  0.5449900000000  0.4832600000000  0.4237090000000 1.0
C      1  0.4130530000000  0.5977470000000  0.4878940000000 1.0
C      1  0.4177580000000  0.4633410000000  0.5999030000000 1.0
C      1  0.4233650000000  0.4396800000000  0.4117110000000 1.0
C      1  0.5309910000000  0.4342390000000  0.5214930000000 1.0
C      1  0.5235040000000  0.5258700000000  0.4305430000000 1.0
C      1  0.5379700000000  0.5630450000000  0.5499510000000 1.0
C      1  0.4238150000000  0.5271290000000  0.5607980000000 1.0
C      1  0.4214050000000  0.4366740000000  0.4641780000000 1.0
C      1  0.4248660000000  0.5354440000000  0.4448040000000 1.0
C      1  0.4007310000000  0.4626890000000  0.5343330000000 1.0
C      1  0.3978570000000  0.4946350000000  0.4488320000000 1.0
C      1  0.4061890000000  0.5451420000000  0.5164620000000 1.0
C      1  0.5966480000000  0.4226560000000  0.4501080000000 1.0
C      1  0.6069120000000  0.5524700000000  0.5018210000000 1.0
C      1  0.6210660000000  0.4636920000000  0.5441320000000 1.0
C      1  0.5168410000000  0.4636560000000  0.3902560000000 1.0
C      1  0.5089610000000  0.6205860000000  0.4994430000000 1.0
C      1  0.5075250000000  0.4241780000000  0.5958530000000 1.0
C      1  0.5064150000000  0.5738920000000  0.4662560000000 1.0
C      1  0.5143940000000  0.4832790000000  0.5759720000000 1.0
C      1  0.5165440000000  0.4527310000000  0.4529650000000 1.0
C      1  0.5211450000000  0.4398490000000  0.5472760000000 1.0
C      1  0.5198020000000  0.4983580000000  0.4261910000000 1.0
C      1  0.5277020000000  0.5741870000000  0.5252060000000 1.0
C      1  0.4891360000000  0.5906440000000  0.4251480000000 1.0
C      1  0.4964410000000  0.5105660000000  0.6094770000000 1.0
C      1  0.5022520000000  0.4068610000000  0.4584940000000 1.0
C      1  0.5531310000000  0.6082590000000  0.3969540000000 1.0
C      1  0.5694700000000  0.5119000000000  0.6273210000000 1.0
C      1  0.5664640000000  0.4242950000000  0.4885450000000 1.0
C      1  0.4351480000000  0.4653400000000  0.4994400000000 1.0
C      1  0.4437450000000  0.5062860000000  0.4789570000000 1.0
C      1  0.4448990000000  0.5083760000000  0.5258490000000 1.0
C      1  0.4441630000000  0.4919160000000  0.5028490000000 1.0
C      1  0.3946590000000  0.4999970000000  0.4993370000000 1.0
END
