TITL C-3623285-6872-1134 0.000638363993592294 125000 -737.17909070296 0 0 121 (C1) n - 1
REM
REM in /home/nfs/bkarasulu/CARBON/AIRSS/Generating-Clusters/LCBOP/Higher-Symm/SD-CG/FIRE-CG
REM
REM
REM
REM
REM
REM ./C.cell (b20cbc046b6831c77cfcea5457e17084)
REM AIRSS Version 0.9.1 bugfix July 2018 build 013d7b7c2542+ Fri, 06 Jul 2018 19:26:36 +0100
REM compiler GCC version 9.2.1 20190827 (Red Hat 9.2.1-1)
REM options -cpp -mtune=generic -march=x86-64 -g -O0 -fpre-include=/usr/include/finclude/math-vector-fortran.h
REM seed -1960410314 695052268 2103858919 -292103334 1278564174 -2023668128 2146135396 -719966946 242011554 1029961400 2114814588 -788154919 -2011856439 1588107449 -1797180202 -902381470 1647892771 -2022903078 1738625592 156570415 345878620 311718472 11313569 1556456856 1570053362 -26781051 -621260418 292197141 -1304241516 2069799930 443907640 1674245997 1247267978
REM
CELL 1.54180   50.00000   50.00000   50.00000   90.00000   90.00000   90.00000
LATT -1
SFAC C  
C      1  0.5259800000000  0.5276160000000  0.4808410000000 1.0
C      1  0.4653260000000  0.5264980000000  0.4756070000000 1.0
C      1  0.4780710000000  0.4004500000000  0.4661920000000 1.0
C      1  0.5314030000000  0.4060040000000  0.4858600000000 1.0
C      1  0.5539070000000  0.4475680000000  0.4697940000000 1.0
C      1  0.4494140000000  0.4359210000000  0.4488240000000 1.0
C      1  0.4902720000000  0.5240940000000  0.5501720000000 1.0
C      1  0.5167570000000  0.5306620000000  0.5588610000000 1.0
C      1  0.5366430000000  0.5542070000000  0.5223360000000 1.0
C      1  0.4673520000000  0.5514970000000  0.5189590000000 1.0
C      1  0.4163210000000  0.5243970000000  0.5183470000000 1.0
C      1  0.5859760000000  0.5223390000000  0.5177100000000 1.0
C      1  0.4839390000000  0.4186670000000  0.4879950000000 1.0
C      1  0.5098820000000  0.4205980000000  0.4995620000000 1.0
C      1  0.4976450000000  0.3401100000000  0.5256000000000 1.0
C      1  0.5178660000000  0.3973260000000  0.6194010000000 1.0
C      1  0.4653420000000  0.4398430000000  0.4924610000000 1.0
C      1  0.5151570000000  0.4402380000000  0.5194230000000 1.0
C      1  0.4705750000000  0.5162360000000  0.3844910000000 1.0
C      1  0.5249870000000  0.5121800000000  0.3878970000000 1.0
C      1  0.5438350000000  0.4045340000000  0.5525290000000 1.0
C      1  0.4742020000000  0.4042470000000  0.5478980000000 1.0
C      1  0.4132060000000  0.5730280000000  0.5159700000000 1.0
C      1  0.5926620000000  0.5704020000000  0.5126980000000 1.0
C      1  0.4795500000000  0.5973160000000  0.5315100000000 1.0
C      1  0.5303690000000  0.6018310000000  0.5317830000000 1.0
C      1  0.5681940000000  0.5823010000000  0.4617300000000 1.0
C      1  0.4341450000000  0.5884330000000  0.4642570000000 1.0
C      1  0.4722670000000  0.5401650000000  0.6053500000000 1.0
C      1  0.5349860000000  0.5300680000000  0.6049450000000 1.0
C      1  0.5724490000000  0.4688360000000  0.4639180000000 1.0
C      1  0.4125120000000  0.4870780000000  0.4581060000000 1.0
C      1  0.5230610000000  0.4672330000000  0.4067350000000 1.0
C      1  0.4641670000000  0.4717310000000  0.4035200000000 1.0
C      1  0.4843390000000  0.5087480000000  0.6392680000000 1.0
C      1  0.5113450000000  0.5078030000000  0.6415350000000 1.0
C      1  0.4550620000000  0.4714540000000  0.5304510000000 1.0
C      1  0.5457310000000  0.4736060000000  0.5353440000000 1.0
C      1  0.5559660000000  0.4232970000000  0.5374130000000 1.0
C      1  0.4575480000000  0.4217560000000  0.5362670000000 1.0
C      1  0.5859420000000  0.4930550000000  0.5121050000000 1.0
C      1  0.4135240000000  0.4953980000000  0.5117270000000 1.0
C      1  0.4677170000000  0.4924460000000  0.5966280000000 1.0
C      1  0.5273150000000  0.4832700000000  0.6039210000000 1.0
C      1  0.5182200000000  0.5415910000000  0.5852390000000 1.0
C      1  0.4938360000000  0.5527350000000  0.5949090000000 1.0
C      1  0.5102280000000  0.4887630000000  0.3921900000000 1.0
C      1  0.4813020000000  0.4910160000000  0.3904270000000 1.0
C      1  0.5210130000000  0.5234610000000  0.4528890000000 1.0
C      1  0.4701530000000  0.5234160000000  0.4474040000000 1.0
C      1  0.5765950000000  0.5559340000000  0.4556030000000 1.0
C      1  0.4237120000000  0.5633210000000  0.4561650000000 1.0
C      1  0.4088870000000  0.5476490000000  0.5039210000000 1.0
C      1  0.5949310000000  0.5441610000000  0.5021530000000 1.0
C      1  0.5477450000000  0.5799100000000  0.5277340000000 1.0
C      1  0.4598650000000  0.5776380000000  0.5273050000000 1.0
C      1  0.5663100000000  0.4831090000000  0.4389520000000 1.0
C      1  0.4224230000000  0.4957510000000  0.4327070000000 1.0
C      1  0.4710650000000  0.5483370000000  0.4913150000000 1.0
C      1  0.5267540000000  0.5503770000000  0.4962800000000 1.0
C      1  0.4636460000000  0.5004240000000  0.4880630000000 1.0
C      1  0.5261930000000  0.5019900000000  0.4946710000000 1.0
C      1  0.5294100000000  0.5064860000000  0.6197380000000 1.0
C      1  0.4699310000000  0.5136800000000  0.6152650000000 1.0
C      1  0.5277090000000  0.4577540000000  0.4710020000000 1.0
C      1  0.4581330000000  0.4540430000000  0.4689150000000 1.0
C      1  0.5715180000000  0.5109650000000  0.4361920000000 1.0
C      1  0.4197780000000  0.5236920000000  0.4273470000000 1.0
C      1  0.4665410000000  0.4806350000000  0.4668150000000 1.0
C      1  0.5183050000000  0.4832260000000  0.4743290000000 1.0
C      1  0.5702180000000  0.5258830000000  0.5433390000000 1.0
C      1  0.4348450000000  0.5248340000000  0.5422900000000 1.0
C      1  0.5052710000000  0.4455470000000  0.4113230000000 1.0
C      1  0.4782050000000  0.4475810000000  0.4089340000000 1.0
C      1  0.5193010000000  0.3958200000000  0.5934240000000 1.0
C      1  0.4971250000000  0.3627230000000  0.5385420000000 1.0
C      1  0.4855580000000  0.5661450000000  0.4326170000000 1.0
C      1  0.5128360000000  0.5651690000000  0.4333410000000 1.0
C      1  0.5602780000000  0.5969580000000  0.4846030000000 1.0
C      1  0.4448050000000  0.6003160000000  0.4876570000000 1.0
C      1  0.4772540000000  0.4675860000000  0.5515680000000 1.0
C      1  0.5235170000000  0.4700810000000  0.5563960000000 1.0
C      1  0.5438510000000  0.4452560000000  0.5242000000000 1.0
C      1  0.4553260000000  0.4438120000000  0.5183450000000 1.0
C      1  0.5853570000000  0.4809520000000  0.4864390000000 1.0
C      1  0.4092320000000  0.4871920000000  0.4849340000000 1.0
C      1  0.5313740000000  0.5327810000000  0.4034700000000 1.0
C      1  0.4650020000000  0.5376390000000  0.3993990000000 1.0
C      1  0.5545340000000  0.4204580000000  0.4774110000000 1.0
C      1  0.4584310000000  0.4101620000000  0.4482380000000 1.0
C      1  0.5326790000000  0.5419140000000  0.4319450000000 1.0
C      1  0.4634060000000  0.5458980000000  0.4280610000000 1.0
C      1  0.4830870000000  0.4780150000000  0.5781490000000 1.0
C      1  0.5122810000000  0.4769330000000  0.5814170000000 1.0
C      1  0.5778050000000  0.5018810000000  0.5583070000000 1.0
C      1  0.4265310000000  0.5008020000000  0.5568030000000 1.0
C      1  0.5480110000000  0.4712490000000  0.4200210000000 1.0
C      1  0.4395700000000  0.4799960000000  0.4157880000000 1.0
C      1  0.4261940000000  0.4806690000000  0.5353180000000 1.0
C      1  0.5749140000000  0.4813480000000  0.5377490000000 1.0
C      1  0.4975070000000  0.3804570000000  0.4621600000000 1.0
C      1  0.5226590000000  0.3827850000000  0.4721190000000 1.0
C      1  0.4370260000000  0.5876960000000  0.5128320000000 1.0
C      1  0.5696390000000  0.5863540000000  0.5101710000000 1.0
C      1  0.5345310000000  0.5005730000000  0.5213910000000 1.0
C      1  0.4654110000000  0.4979410000000  0.5158910000000 1.0
C      1  0.4649430000000  0.5250680000000  0.5338110000000 1.0
C      1  0.5394730000000  0.5284650000000  0.5383990000000 1.0
C      1  0.4334250000000  0.5481230000000  0.4341330000000 1.0
C      1  0.5625100000000  0.5382580000000  0.4385580000000 1.0
C      1  0.4083640000000  0.5492270000000  0.4756910000000 1.0
C      1  0.5945270000000  0.5437590000000  0.4739850000000 1.0
C      1  0.4897850000000  0.6120490000000  0.5089590000000 1.0
C      1  0.5180450000000  0.6133220000000  0.5083600000000 1.0
C      1  0.4970100000000  0.3878870000000  0.5508060000000 1.0
C      1  0.5202410000000  0.3959620000000  0.5654810000000 1.0
C      1  0.4696690000000  0.6147560000000  0.4888430000000 1.0
C      1  0.5363650000000  0.6128950000000  0.4863680000000 1.0
C      1  0.4810660000000  0.4964690000000  0.4464890000000 1.0
C      1  0.5088250000000  0.4973290000000  0.4508740000000 1.0
C      1  0.5020880000000  0.4563040000000  0.5399570000000 1.0
END
