TITL C-3623288-6813-1007 83.638295199977 125000 -859.001716784634 0 0 142 (C1) n - 1
REM
REM in /home/nfs/bkarasulu/CARBON/AIRSS/Generating-Clusters/LCBOP/Higher-Symm/SD-CG/FIRE-CG
REM
REM
REM
REM
REM
REM ./C.cell (b20cbc046b6831c77cfcea5457e17084)
REM AIRSS Version 0.9.1 bugfix July 2018 build 013d7b7c2542+ Fri, 06 Jul 2018 19:26:36 +0100
REM compiler GCC version 9.2.1 20190827 (Red Hat 9.2.1-1)
REM options -cpp -mtune=generic -march=x86-64 -g -O0 -fpre-include=/usr/include/finclude/math-vector-fortran.h
REM seed -2138283458 -650762037 -1417156729 -1861745447 971416755 675196136 -1044567744 340559952 1994967662 551951137 -1484913960 1055104111 -1639036199 -906887309 -1953773910 30594193 -216598055 -1761205013 1974611299 -1583371247 -287337933 -1715298920 823194544 -1651237318 -1378638066 1036794404 1969429282 -1974844256 -1564180131 542162746 -1137587575 -152667940 -710386403
REM
CELL 1.54180   50.00000   50.00000   50.00000   90.00000   90.00000   90.00000
LATT -1
SFAC C  
C      1  0.5056920000000  0.5815470000000  0.4412080000000 1.0
C      1  0.5118110000000  0.5647790000000  0.5546460000000 1.0
C      1  0.5663120000000  0.4298030000000  0.5589350000000 1.0
C      1  0.5701300000000  0.4266270000000  0.4487610000000 1.0
C      1  0.4150590000000  0.5186940000000  0.5691370000000 1.0
C      1  0.4073270000000  0.5116860000000  0.4300260000000 1.0
C      1  0.5943770000000  0.4616620000000  0.4261900000000 1.0
C      1  0.5883840000000  0.4676120000000  0.5799230000000 1.0
C      1  0.5601420000000  0.5480820000000  0.4809540000000 1.0
C      1  0.5593310000000  0.5500480000000  0.5104690000000 1.0
C      1  0.4345160000000  0.5402800000000  0.4624730000000 1.0
C      1  0.4417410000000  0.5480910000000  0.5360150000000 1.0
C      1  0.4992600000000  0.4387240000000  0.5604260000000 1.0
C      1  0.5053370000000  0.4298640000000  0.4419480000000 1.0
C      1  0.5355680000000  0.5451070000000  0.4656610000000 1.0
C      1  0.5360130000000  0.5391460000000  0.5228300000000 1.0
C      1  0.5174970000000  0.5454360000000  0.6087200000000 1.0
C      1  0.5079570000000  0.5435540000000  0.3942230000000 1.0
C      1  0.3971250000000  0.4891800000000  0.4727470000000 1.0
C      1  0.3934610000000  0.4898060000000  0.5318160000000 1.0
C      1  0.6144160000000  0.4762930000000  0.4369100000000 1.0
C      1  0.6074130000000  0.4829860000000  0.5688230000000 1.0
C      1  0.4317300000000  0.5393320000000  0.5618910000000 1.0
C      1  0.4227620000000  0.5322630000000  0.4380250000000 1.0
C      1  0.3967600000000  0.4915680000000  0.4446360000000 1.0
C      1  0.3998910000000  0.4982030000000  0.5588470000000 1.0
C      1  0.5424080000000  0.4478150000000  0.4162180000000 1.0
C      1  0.5380180000000  0.4532160000000  0.5878060000000 1.0
C      1  0.5084420000000  0.5112860000000  0.4443270000000 1.0
C      1  0.5087520000000  0.5095070000000  0.5473440000000 1.0
C      1  0.4832540000000  0.5410820000000  0.4812150000000 1.0
C      1  0.4780460000000  0.5321570000000  0.5075280000000 1.0
C      1  0.5591640000000  0.5009410000000  0.4159980000000 1.0
C      1  0.5513440000000  0.5186340000000  0.5896750000000 1.0
C      1  0.5623890000000  0.4060160000000  0.5186550000000 1.0
C      1  0.5642020000000  0.4043640000000  0.4905180000000 1.0
C      1  0.4408790000000  0.6051360000000  0.5205830000000 1.0
C      1  0.4531240000000  0.6020130000000  0.4936070000000 1.0
C      1  0.4184190000000  0.5400340000000  0.4857590000000 1.0
C      1  0.4238860000000  0.5334720000000  0.5162810000000 1.0
C      1  0.4659200000000  0.4562820000000  0.4896830000000 1.0
C      1  0.4767930000000  0.4434100000000  0.5138760000000 1.0
C      1  0.5269450000000  0.5983260000000  0.4871620000000 1.0
C      1  0.5286540000000  0.5961990000000  0.5141250000000 1.0
C      1  0.4898580000000  0.5687140000000  0.5732090000000 1.0
C      1  0.4815220000000  0.5694380000000  0.4301060000000 1.0
C      1  0.5291720000000  0.5287990000000  0.4434720000000 1.0
C      1  0.5201010000000  0.5378940000000  0.5471500000000 1.0
C      1  0.6269870000000  0.5150720000000  0.4704660000000 1.0
C      1  0.6201530000000  0.5189920000000  0.5324220000000 1.0
C      1  0.3727580000000  0.5581050000000  0.4745710000000 1.0
C      1  0.3800570000000  0.5589440000000  0.5331810000000 1.0
C      1  0.4325110000000  0.4258310000000  0.5222660000000 1.0
C      1  0.4347480000000  0.4338870000000  0.4588190000000 1.0
C      1  0.5233810000000  0.4760710000000  0.5978370000000 1.0
C      1  0.5239540000000  0.4701400000000  0.4066510000000 1.0
C      1  0.6082580000000  0.5362430000000  0.5134910000000 1.0
C      1  0.6091080000000  0.5319990000000  0.4848280000000 1.0
C      1  0.5216530000000  0.5186480000000  0.3912800000000 1.0
C      1  0.5198510000000  0.5195600000000  0.6227670000000 1.0
C      1  0.4753840000000  0.5269650000000  0.5973580000000 1.0
C      1  0.4720700000000  0.5171990000000  0.4101660000000 1.0
C      1  0.4204310000000  0.4796950000000  0.4872470000000 1.0
C      1  0.4165600000000  0.4842520000000  0.5149760000000 1.0
C      1  0.5320960000000  0.3395450000000  0.4722510000000 1.0
C      1  0.5358720000000  0.3653160000000  0.4722960000000 1.0
C      1  0.5264440000000  0.4618750000000  0.5282330000000 1.0
C      1  0.5273600000000  0.4559930000000  0.4766470000000 1.0
C      1  0.5166230000000  0.4104620000000  0.4868980000000 1.0
C      1  0.5150910000000  0.4135510000000  0.5166800000000 1.0
C      1  0.4318400000000  0.4447890000000  0.5436290000000 1.0
C      1  0.4373210000000  0.4522930000000  0.4364500000000 1.0
C      1  0.5697900000000  0.4324940000000  0.5304960000000 1.0
C      1  0.5702550000000  0.4300690000000  0.4771090000000 1.0
C      1  0.5588610000000  0.5684050000000  0.5910720000000 1.0
C      1  0.5236780000000  0.5879850000000  0.3680130000000 1.0
C      1  0.4576730000000  0.4327170000000  0.4754900000000 1.0
C      1  0.4591210000000  0.4207960000000  0.5142060000000 1.0
C      1  0.5178070000000  0.4811220000000  0.4795950000000 1.0
C      1  0.5281350000000  0.4885100000000  0.5397210000000 1.0
C      1  0.5186260000000  0.5934640000000  0.4618510000000 1.0
C      1  0.5230680000000  0.5859570000000  0.5386440000000 1.0
C      1  0.4680270000000  0.5511920000000  0.5252530000000 1.0
C      1  0.4617220000000  0.5435020000000  0.4647690000000 1.0
C      1  0.4919540000000  0.5501680000000  0.5956780000000 1.0
C      1  0.4844610000000  0.5443820000000  0.4119330000000 1.0
C      1  0.5435320000000  0.5463230000000  0.5951100000000 1.0
C      1  0.5161150000000  0.5662350000000  0.3802140000000 1.0
C      1  0.4811060000000  0.5754910000000  0.5204380000000 1.0
C      1  0.4794120000000  0.5943080000000  0.5014020000000 1.0
C      1  0.5658340000000  0.4509960000000  0.5783980000000 1.0
C      1  0.5702590000000  0.4469400000000  0.4280580000000 1.0
C      1  0.5108000000000  0.4334980000000  0.4698880000000 1.0
C      1  0.5028400000000  0.4405190000000  0.5295290000000 1.0
C      1  0.5527110000000  0.4499460000000  0.4884330000000 1.0
C      1  0.5520920000000  0.4515000000000  0.5170400000000 1.0
C      1  0.4520330000000  0.4769030000000  0.4320250000000 1.0
C      1  0.4455960000000  0.4673910000000  0.5501180000000 1.0
C      1  0.4881210000000  0.4442630000000  0.4254210000000 1.0
C      1  0.4841870000000  0.4563570000000  0.5764860000000 1.0
C      1  0.4552530000000  0.4927710000000  0.5402550000000 1.0
C      1  0.4603360000000  0.4894890000000  0.4568920000000 1.0
C      1  0.4943810000000  0.4770230000000  0.5931160000000 1.0
C      1  0.4946420000000  0.4682800000000  0.4109550000000 1.0
C      1  0.3800630000000  0.5105240000000  0.5164500000000 1.0
C      1  0.3819380000000  0.5098010000000  0.4873380000000 1.0
C      1  0.5410920000000  0.4132360000000  0.5598530000000 1.0
C      1  0.5474160000000  0.4075520000000  0.4450930000000 1.0
C      1  0.4810540000000  0.5028110000000  0.5459960000000 1.0
C      1  0.4857460000000  0.5016470000000  0.4551150000000 1.0
C      1  0.4358630000000  0.5043630000000  0.5221930000000 1.0
C      1  0.4493720000000  0.4780250000000  0.4803230000000 1.0
C      1  0.4507890000000  0.5992270000000  0.5463590000000 1.0
C      1  0.4487590000000  0.5961950000000  0.4655260000000 1.0
C      1  0.5399350000000  0.3943150000000  0.4733500000000 1.0
C      1  0.5365310000000  0.4020790000000  0.5327950000000 1.0
C      1  0.3935000000000  0.5353430000000  0.5263450000000 1.0
C      1  0.3899680000000  0.5364270000000  0.4790120000000 1.0
C      1  0.5177840000000  0.5289070000000  0.5045790000000 1.0
C      1  0.5121460000000  0.5423630000000  0.4813950000000 1.0
C      1  0.5688890000000  0.4997280000000  0.4407880000000 1.0
C      1  0.5625120000000  0.5103730000000  0.5654120000000 1.0
C      1  0.3625890000000  0.5763040000000  0.4917050000000 1.0
C      1  0.3662350000000  0.5768240000000  0.5184720000000 1.0
C      1  0.4679120000000  0.5867200000000  0.5646230000000 1.0
C      1  0.4586150000000  0.5836470000000  0.4427450000000 1.0
C      1  0.5294830000000  0.4232320000000  0.4283390000000 1.0
C      1  0.5232490000000  0.4307980000000  0.5741230000000 1.0
C      1  0.4122360000000  0.4256450000000  0.4745460000000 1.0
C      1  0.4126800000000  0.4225570000000  0.5018460000000 1.0
C      1  0.5852140000000  0.5510400000000  0.5220660000000 1.0
C      1  0.5827120000000  0.5326220000000  0.4725830000000 1.0
C      1  0.4719360000000  0.4875630000000  0.4122120000000 1.0
C      1  0.4788650000000  0.5001630000000  0.5985380000000 1.0
C      1  0.6263960000000  0.4946170000000  0.4527080000000 1.0
C      1  0.6185520000000  0.5005380000000  0.5518500000000 1.0
C      1  0.5747520000000  0.5056280000000  0.4672040000000 1.0
C      1  0.5556560000000  0.4975290000000  0.5414070000000 1.0
C      1  0.5354790000000  0.4960940000000  0.4015680000000 1.0
C      1  0.5351250000000  0.5005370000000  0.6065570000000 1.0
C      1  0.5710070000000  0.4941560000000  0.5180260000000 1.0
C      1  0.5737060000000  0.4913420000000  0.4914060000000 1.0
END
