TITL C-3623287-7182-514 -3.77373844542743e-07 125000 -721.388141500978 0 0 116 (C1) n - 1
REM
REM in /home/nfs/bkarasulu/CARBON/AIRSS/Generating-Clusters/LCBOP/Higher-Symm/SD-CG/FIRE-CG
REM
REM
REM
REM
REM
REM ./C.cell (b20cbc046b6831c77cfcea5457e17084)
REM AIRSS Version 0.9.1 bugfix July 2018 build 013d7b7c2542+ Fri, 06 Jul 2018 19:26:36 +0100
REM compiler GCC version 9.2.1 20190827 (Red Hat 9.2.1-1)
REM options -cpp -mtune=generic -march=x86-64 -g -O0 -fpre-include=/usr/include/finclude/math-vector-fortran.h
REM seed 1948503582 1665660323 990977903 -1909362893 524155805 1877980921 1039184230 1408781523 168757349 -1441175772 -725274602 1116752148 645104084 1187502791 -1814499808 -1666185105 396350731 -167916135 2036805095 1694123368 1543369294 -645692919 -1920903508 -808125908 195905409 1807123788 -973875380 1049430087 1876956683 430236696 -1632299439 -1996300819 -1188761199
REM
CELL 1.54180   50.00000   50.00000   50.00000   90.00000   90.00000   90.00000
LATT -1
SFAC C  
C      1  0.5137400000000  0.4097180000000  0.4500530000000 1.0
C      1  0.4507360000000  0.4100540000000  0.5127830000000 1.0
C      1  0.5365560000000  0.4096790000000  0.5358580000000 1.0
C      1  0.5062660000000  0.5938350000000  0.5504940000000 1.0
C      1  0.4504920000000  0.5932400000000  0.4848910000000 1.0
C      1  0.5376370000000  0.5915860000000  0.4673630000000 1.0
C      1  0.5692070000000  0.5714460000000  0.5477980000000 1.0
C      1  0.5060210000000  0.5704250000000  0.4137240000000 1.0
C      1  0.4242570000000  0.5713210000000  0.5390510000000 1.0
C      1  0.5764470000000  0.4318220000000  0.4453480000000 1.0
C      1  0.5096470000000  0.4309260000000  0.5920160000000 1.0
C      1  0.4145970000000  0.4323620000000  0.4616520000000 1.0
C      1  0.4356400000000  0.5234390000000  0.5505230000000 1.0
C      1  0.5793880000000  0.5226790000000  0.5362990000000 1.0
C      1  0.4919870000000  0.5215160000000  0.4131050000000 1.0
C      1  0.4269340000000  0.4802780000000  0.4493720000000 1.0
C      1  0.5802400000000  0.4799230000000  0.4620960000000 1.0
C      1  0.4931440000000  0.4788990000000  0.5876720000000 1.0
C      1  0.5696260000000  0.4731650000000  0.5309470000000 1.0
C      1  0.4926930000000  0.4724240000000  0.4238990000000 1.0
C      1  0.4403390000000  0.4740970000000  0.5440880000000 1.0
C      1  0.5691470000000  0.5276640000000  0.4693880000000 1.0
C      1  0.4916290000000  0.5268760000000  0.5751210000000 1.0
C      1  0.4384410000000  0.5280190000000  0.4549110000000 1.0
C      1  0.5345840000000  0.5805460000000  0.5136440000000 1.0
C      1  0.4902470000000  0.5813070000000  0.4617850000000 1.0
C      1  0.4623240000000  0.6072950000000  0.5330610000000 1.0
C      1  0.5458150000000  0.4137750000000  0.4889340000000 1.0
C      1  0.4867890000000  0.4150630000000  0.5439170000000 1.0
C      1  0.4682740000000  0.4141370000000  0.4655760000000 1.0
C      1  0.5249530000000  0.4283280000000  0.4300100000000 1.0
C      1  0.4284660000000  0.4294430000000  0.5134200000000 1.0
C      1  0.5485470000000  0.4283420000000  0.5552640000000 1.0
C      1  0.5188530000000  0.5735970000000  0.5679940000000 1.0
C      1  0.4287530000000  0.5737280000000  0.4863790000000 1.0
C      1  0.5478520000000  0.5731490000000  0.4468230000000 1.0
C      1  0.5339420000000  0.5116440000000  0.4962440000000 1.0
C      1  0.4797970000000  0.5112580000000  0.4701930000000 1.0
C      1  0.4884870000000  0.5138790000000  0.5298390000000 1.0
C      1  0.5334570000000  0.4845920000000  0.5029290000000 1.0
C      1  0.4815730000000  0.4870180000000  0.5256350000000 1.0
C      1  0.4864740000000  0.4844220000000  0.4687760000000 1.0
C      1  0.5006060000000  0.5539360000000  0.5809880000000 1.0
C      1  0.5688560000000  0.5538360000000  0.4563720000000 1.0
C      1  0.4268880000000  0.5540570000000  0.4632370000000 1.0
C      1  0.5049750000000  0.4466570000000  0.4164360000000 1.0
C      1  0.5699770000000  0.4470300000000  0.5447590000000 1.0
C      1  0.4279870000000  0.4482330000000  0.5371690000000 1.0
C      1  0.4614490000000  0.4036060000000  0.5385600000000 1.0
C      1  0.5534760000000  0.4027100000000  0.5138470000000 1.0
C      1  0.4860510000000  0.4033910000000  0.4463360000000 1.0
C      1  0.4642420000000  0.5917820000000  0.4598380000000 1.0
C      1  0.5510880000000  0.5893970000000  0.4925400000000 1.0
C      1  0.4792170000000  0.6021590000000  0.5537960000000 1.0
C      1  0.4747340000000  0.5016090000000  0.5796710000000 1.0
C      1  0.5824370000000  0.5027940000000  0.4821830000000 1.0
C      1  0.4431860000000  0.5028540000000  0.4368640000000 1.0
C      1  0.4743430000000  0.4977560000000  0.4200700000000 1.0
C      1  0.5820270000000  0.4986330000000  0.5174260000000 1.0
C      1  0.4476230000000  0.4983820000000  0.5624100000000 1.0
C      1  0.5212820000000  0.4755010000000  0.5480870000000 1.0
C      1  0.5319040000000  0.4750200000000  0.4572260000000 1.0
C      1  0.4476950000000  0.4764600000000  0.4933150000000 1.0
C      1  0.5214020000000  0.5231130000000  0.4512250000000 1.0
C      1  0.5321790000000  0.5221880000000  0.5430470000000 1.0
C      1  0.4524880000000  0.5278390000000  0.5044870000000 1.0
C      1  0.5391100000000  0.5395340000000  0.4115800000000 1.0
C      1  0.4077450000000  0.5386220000000  0.5125070000000 1.0
C      1  0.5556290000000  0.5405340000000  0.5778750000000 1.0
C      1  0.5409340000000  0.4633680000000  0.5886010000000 1.0
C      1  0.4028430000000  0.4648110000000  0.4908510000000 1.0
C      1  0.5573160000000  0.4639650000000  0.4200160000000 1.0
C      1  0.4156800000000  0.5665900000000  0.5113580000000 1.0
C      1  0.5479430000000  0.5670290000000  0.5678100000000 1.0
C      1  0.5339520000000  0.5664650000000  0.4218820000000 1.0
C      1  0.4115230000000  0.4368390000000  0.4905450000000 1.0
C      1  0.5533110000000  0.4359590000000  0.4276350000000 1.0
C      1  0.5365380000000  0.4354710000000  0.5810720000000 1.0
C      1  0.5410510000000  0.4778640000000  0.5287960000000 1.0
C      1  0.5052700000000  0.4772470000000  0.4497020000000 1.0
C      1  0.4552060000000  0.4802620000000  0.5197430000000 1.0
C      1  0.5411590000000  0.5202290000000  0.4706440000000 1.0
C      1  0.5056710000000  0.5201080000000  0.5508910000000 1.0
C      1  0.4546750000000  0.5207880000000  0.4777510000000 1.0
C      1  0.4299670000000  0.5230380000000  0.5213050000000 1.0
C      1  0.5571420000000  0.5213130000000  0.5565030000000 1.0
C      1  0.5206080000000  0.5207350000000  0.4227590000000 1.0
C      1  0.4231560000000  0.4814110000000  0.4793850000000 1.0
C      1  0.5564210000000  0.4805260000000  0.4433550000000 1.0
C      1  0.5211240000000  0.4799150000000  0.5763770000000 1.0
C      1  0.4969690000000  0.5313090000000  0.4617280000000 1.0
C      1  0.4774660000000  0.5351030000000  0.5152930000000 1.0
C      1  0.5337490000000  0.5308440000000  0.5163520000000 1.0
C      1  0.4964960000000  0.4670260000000  0.5381510000000 1.0
C      1  0.4676540000000  0.4657390000000  0.4767200000000 1.0
C      1  0.5362060000000  0.4653790000000  0.4831910000000 1.0
C      1  0.4909140000000  0.4511660000000  0.5966940000000 1.0
C      1  0.5895910000000  0.4522820000000  0.4592590000000 1.0
C      1  0.4197170000000  0.4526290000000  0.4430460000000 1.0
C      1  0.4877520000000  0.5500430000000  0.4083560000000 1.0
C      1  0.5840790000000  0.5515930000000  0.5348200000000 1.0
C      1  0.4319020000000  0.5515530000000  0.5571690000000 1.0
C      1  0.4928100000000  0.5558890000000  0.4737340000000 1.0
C      1  0.4951300000000  0.5534410000000  0.5021790000000 1.0
C      1  0.5222120000000  0.5554010000000  0.5112050000000 1.0
C      1  0.4866040000000  0.4427140000000  0.5467700000000 1.0
C      1  0.4641070000000  0.4415270000000  0.4639090000000 1.0
C      1  0.5491820000000  0.4412720000000  0.4869160000000 1.0
C      1  0.4715100000000  0.4052520000000  0.4924400000000 1.0
C      1  0.5084970000000  0.4057010000000  0.5280170000000 1.0
C      1  0.5208960000000  0.4050770000000  0.4782090000000 1.0
C      1  0.4684410000000  0.6048480000000  0.5053340000000 1.0
C      1  0.5096460000000  0.5995040000000  0.4728130000000 1.0
C      1  0.5155270000000  0.5993330000000  0.5233750000000 1.0
C      1  0.4981920000000  0.6071140000000  0.5002650000000 1.0
C      1  0.5002950000000  0.4019340000000  0.4995550000000 1.0
END
