TITL C-3623282-6910-1113 13093.456742566 125000 -1136.54038098345 0 0 189 (C1) n - 1
REM
REM in /home/nfs/bkarasulu/CARBON/AIRSS/Generating-Clusters/LCBOP/Higher-Symm/SD-CG/FIRE-CG
REM
REM
REM
REM
REM
REM ./C.cell (b20cbc046b6831c77cfcea5457e17084)
REM AIRSS Version 0.9.1 bugfix July 2018 build 013d7b7c2542+ Fri, 06 Jul 2018 19:26:36 +0100
REM compiler GCC version 9.2.1 20190827 (Red Hat 9.2.1-1)
REM options -cpp -mtune=generic -march=x86-64 -g -O0 -fpre-include=/usr/include/finclude/math-vector-fortran.h
REM seed -1071447513 -1530393608 -1750448339 164449745 -279089845 -1341372035 420802415 1186633146 1582585369 507682961 401873178 -533167400 1889374315 -874338962 1853417874 -2136126921 -1398355973 454415410 28526929 -694041331 2022506455 985027725 1512470912 -1438434841 1139180122 694111288 -875773957 1280346185 1755739695 66163591 2000298525 -526893863 -2139389878
REM
CELL 1.54180   50.00000   50.00000   50.00000   90.00000   90.00000   90.00000
LATT -1
SFAC C  
C      1  0.3843160000000  0.5522200000000  0.5158490000000 1.0
C      1  0.6040850000000  0.5735380000000  0.5163810000000 1.0
C      1  0.5122760000000  0.3726530000000  0.5156550000000 1.0
C      1  0.3983110000000  0.5394450000000  0.5385200000000 1.0
C      1  0.5859460000000  0.5679990000000  0.5389890000000 1.0
C      1  0.5162680000000  0.3909490000000  0.5386960000000 1.0
C      1  0.5549190000000  0.4594840000000  0.5682340000000 1.0
C      1  0.4369030000000  0.4717610000000  0.5682910000000 1.0
C      1  0.5067790000000  0.5679390000000  0.5691120000000 1.0
C      1  0.3888390000000  0.5210420000000  0.5587060000000 1.0
C      1  0.5753040000000  0.5855860000000  0.5593060000000 1.0
C      1  0.5371310000000  0.3926720000000  0.5588730000000 1.0
C      1  0.4627160000000  0.4540240000000  0.4042980000000 1.0
C      1  0.4791930000000  0.5530440000000  0.4055700000000 1.0
C      1  0.5573650000000  0.4912740000000  0.4045620000000 1.0
C      1  0.6313790000000  0.5075620000000  0.4509550000000 1.0
C      1  0.4401520000000  0.3814460000000  0.4511400000000 1.0
C      1  0.4300250000000  0.6135340000000  0.4574920000000 1.0
C      1  0.5223700000000  0.5502750000000  0.5246370000000 1.0
C      1  0.5292210000000  0.4554930000000  0.5221110000000 1.0
C      1  0.4477380000000  0.4952260000000  0.5218350000000 1.0
C      1  0.4734160000000  0.4834440000000  0.5994360000000 1.0
C      1  0.4987160000000  0.5318640000000  0.6003980000000 1.0
C      1  0.5273800000000  0.4858530000000  0.5992890000000 1.0
C      1  0.4245510000000  0.5462660000000  0.4217960000000 1.0
C      1  0.5774380000000  0.5430830000000  0.4222560000000 1.0
C      1  0.4968830000000  0.4109040000000  0.4208170000000 1.0
C      1  0.4233840000000  0.3899260000000  0.5406180000000 1.0
C      1  0.4442030000000  0.6215130000000  0.5389970000000 1.0
C      1  0.6316910000000  0.4860130000000  0.5391060000000 1.0
C      1  0.5248450000000  0.5169480000000  0.4371280000000 1.0
C      1  0.5014660000000  0.4669370000000  0.4361100000000 1.0
C      1  0.4712830000000  0.5111010000000  0.4372790000000 1.0
C      1  0.5258660000000  0.4945670000000  0.4958340000000 1.0
C      1  0.4814910000000  0.4712540000000  0.4982050000000 1.0
C      1  0.4891810000000  0.5292530000000  0.4974370000000 1.0
C      1  0.4425760000000  0.4065540000000  0.5307120000000 1.0
C      1  0.4489510000000  0.5961750000000  0.5301180000000 1.0
C      1  0.6079890000000  0.4957780000000  0.5299200000000 1.0
C      1  0.4654650000000  0.4321160000000  0.5792280000000 1.0
C      1  0.4581560000000  0.5640790000000  0.5783830000000 1.0
C      1  0.5752180000000  0.5040740000000  0.5790300000000 1.0
C      1  0.5488260000000  0.4356670000000  0.4824180000000 1.0
C      1  0.4191590000000  0.4887860000000  0.4833960000000 1.0
C      1  0.5312060000000  0.5696580000000  0.4828500000000 1.0
C      1  0.5765170000000  0.5101980000000  0.4192710000000 1.0
C      1  0.4688560000000  0.4279740000000  0.4189760000000 1.0
C      1  0.4531430000000  0.5613580000000  0.4194880000000 1.0
C      1  0.5713430000000  0.3906030000000  0.5195710000000 1.0
C      1  0.3686400000000  0.4926110000000  0.5202930000000 1.0
C      1  0.5649320000000  0.6204360000000  0.5219610000000 1.0
C      1  0.5157560000000  0.4297260000000  0.5991070000000 1.0
C      1  0.4312760000000  0.5215370000000  0.5984280000000 1.0
C      1  0.5532240000000  0.5493370000000  0.5994890000000 1.0
C      1  0.5467270000000  0.6235760000000  0.4741280000000 1.0
C      1  0.5724150000000  0.4171210000000  0.4763160000000 1.0
C      1  0.3911280000000  0.4782890000000  0.4772430000000 1.0
C      1  0.5730670000000  0.4378050000000  0.5719450000000 1.0
C      1  0.4090290000000  0.4672520000000  0.5722170000000 1.0
C      1  0.5184110000000  0.5933110000000  0.5729270000000 1.0
C      1  0.5617490000000  0.3881740000000  0.5449270000000 1.0
C      1  0.3718080000000  0.5022960000000  0.5455130000000 1.0
C      1  0.5698450000000  0.6107220000000  0.5469030000000 1.0
C      1  0.3966220000000  0.5266910000000  0.4628190000000 1.0
C      1  0.5743980000000  0.5761720000000  0.4644740000000 1.0
C      1  0.5281710000000  0.3966720000000  0.4621650000000 1.0
C      1  0.5181510000000  0.4399760000000  0.5423110000000 1.0
C      1  0.4397900000000  0.5128920000000  0.5417850000000 1.0
C      1  0.5424930000000  0.5449780000000  0.5430140000000 1.0
C      1  0.5239550000000  0.5434070000000  0.6092300000000 1.0
C      1  0.5244830000000  0.4584090000000  0.6084740000000 1.0
C      1  0.4513300000000  0.4998910000000  0.6083230000000 1.0
C      1  0.4515900000000  0.4549140000000  0.4634070000000 1.0
C      1  0.4860510000000  0.5646660000000  0.4626590000000 1.0
C      1  0.5600920000000  0.4810440000000  0.4623800000000 1.0
C      1  0.4268390000000  0.5903300000000  0.4711570000000 1.0
C      1  0.6146380000000  0.5183480000000  0.4704810000000 1.0
C      1  0.4584130000000  0.3902930000000  0.4702700000000 1.0
C      1  0.6202500000000  0.5327970000000  0.4943750000000 1.0
C      1  0.4684430000000  0.3784150000000  0.4941180000000 1.0
C      1  0.4111840000000  0.5871800000000  0.4948090000000 1.0
C      1  0.4840500000000  0.4766700000000  0.5479260000000 1.0
C      1  0.4864990000000  0.5265170000000  0.5490520000000 1.0
C      1  0.5273360000000  0.4972750000000  0.5476100000000 1.0
C      1  0.4740560000000  0.4147380000000  0.4666000000000 1.0
C      1  0.4398870000000  0.5647790000000  0.4668580000000 1.0
C      1  0.5856690000000  0.5193750000000  0.4671210000000 1.0
C      1  0.4741570000000  0.4837770000000  0.5227880000000 1.0
C      1  0.4990690000000  0.5331660000000  0.5253200000000 1.0
C      1  0.5249500000000  0.4839510000000  0.5236600000000 1.0
C      1  0.4811160000000  0.5582660000000  0.4907030000000 1.0
C      1  0.5555690000000  0.4891750000000  0.4899360000000 1.0
C      1  0.4601420000000  0.4529980000000  0.4910310000000 1.0
C      1  0.5057480000000  0.5447360000000  0.3990160000000 1.0
C      1  0.5361070000000  0.4729650000000  0.3982280000000 1.0
C      1  0.4580720000000  0.4817360000000  0.3982160000000 1.0
C      1  0.3906960000000  0.5547780000000  0.4626270000000 1.0
C      1  0.6018390000000  0.5676100000000  0.4635010000000 1.0
C      1  0.5070100000000  0.3772340000000  0.4619490000000 1.0
C      1  0.5435430000000  0.4575080000000  0.4607440000000 1.0
C      1  0.4405480000000  0.4813110000000  0.4621020000000 1.0
C      1  0.5141980000000  0.5596840000000  0.4608260000000 1.0
C      1  0.4483690000000  0.4994200000000  0.5651750000000 1.0
C      1  0.5273360000000  0.5388890000000  0.5663390000000 1.0
C      1  0.5251800000000  0.4552260000000  0.5653370000000 1.0
C      1  0.4029390000000  0.5622360000000  0.4364260000000 1.0
C      1  0.6019970000000  0.5539380000000  0.4369820000000 1.0
C      1  0.4944790000000  0.3840070000000  0.4356120000000 1.0
C      1  0.5640360000000  0.5729300000000  0.5839250000000 1.0
C      1  0.5312230000000  0.4085830000000  0.5836370000000 1.0
C      1  0.4053030000000  0.5183630000000  0.5834100000000 1.0
C      1  0.4350090000000  0.4974780000000  0.4064810000000 1.0
C      1  0.5301290000000  0.5579870000000  0.4077150000000 1.0
C      1  0.5340310000000  0.4449960000000  0.4061340000000 1.0
C      1  0.5190120000000  0.5733070000000  0.5084990000000 1.0
C      1  0.5529800000000  0.4488260000000  0.5087740000000 1.0
C      1  0.4287640000000  0.4784120000000  0.5096430000000 1.0
C      1  0.6103200000000  0.4264930000000  0.5381720000000 1.0
C      1  0.3800670000000  0.4407310000000  0.5388700000000 1.0
C      1  0.5126730000000  0.6327500000000  0.5401070000000 1.0
C      1  0.4864820000000  0.4164350000000  0.5135940000000 1.0
C      1  0.4355430000000  0.5525800000000  0.5137990000000 1.0
C      1  0.5782580000000  0.5295550000000  0.5138960000000 1.0
C      1  0.5483230000000  0.6107700000000  0.4499940000000 1.0
C      1  0.5700040000000  0.4092440000000  0.4485160000000 1.0
C      1  0.3857330000000  0.4843580000000  0.4493960000000 1.0
C      1  0.5156060000000  0.6177270000000  0.5620920000000 1.0
C      1  0.5961870000000  0.4297710000000  0.5607620000000 1.0
C      1  0.3902620000000  0.4513340000000  0.5613300000000 1.0
C      1  0.4178850000000  0.5198890000000  0.4809320000000 1.0
C      1  0.5582290000000  0.5603410000000  0.4812460000000 1.0
C      1  0.5233100000000  0.4182840000000  0.4804100000000 1.0
C      1  0.6134670000000  0.5614450000000  0.4909850000000 1.0
C      1  0.4967700000000  0.3703440000000  0.4902010000000 1.0
C      1  0.3900470000000  0.5669600000000  0.4907050000000 1.0
C      1  0.5254710000000  0.4205360000000  0.4193580000000 1.0
C      1  0.4182560000000  0.5168920000000  0.4201020000000 1.0
C      1  0.5551090000000  0.5634290000000  0.4214570000000 1.0
C      1  0.4708090000000  0.5100980000000  0.4848250000000 1.0
C      1  0.5154830000000  0.5197510000000  0.4845050000000 1.0
C      1  0.5055690000000  0.4749050000000  0.4832710000000 1.0
C      1  0.4493100000000  0.4463120000000  0.5605140000000 1.0
C      1  0.4792190000000  0.5708100000000  0.5603140000000 1.0
C      1  0.5703770000000  0.4831010000000  0.5601740000000 1.0
C      1  0.4345040000000  0.5431480000000  0.4866270000000 1.0
C      1  0.5701020000000  0.5346930000000  0.4869760000000 1.0
C      1  0.4951940000000  0.4207100000000  0.4865580000000 1.0
C      1  0.4390530000000  0.4513110000000  0.5110270000000 1.0
C      1  0.4900080000000  0.5777270000000  0.5103570000000 1.0
C      1  0.5692770000000  0.4729010000000  0.5100960000000 1.0
C      1  0.5453910000000  0.6276970000000  0.5023890000000 1.0
C      1  0.5850870000000  0.4067730000000  0.5002260000000 1.0
C      1  0.3756670000000  0.4725700000000  0.5010120000000 1.0
C      1  0.4485870000000  0.4067950000000  0.4103600000000 1.0
C      1  0.4458350000000  0.5876190000000  0.4062850000000 1.0
C      1  0.6049750000000  0.5036930000000  0.4101990000000 1.0
C      1  0.5214300000000  0.6363370000000  0.5148980000000 1.0
C      1  0.6072770000000  0.4198490000000  0.5121700000000 1.0
C      1  0.3756590000000  0.4468020000000  0.5129240000000 1.0
C      1  0.5154820000000  0.4641000000000  0.4589880000000 1.0
C      1  0.4604430000000  0.5017730000000  0.4601870000000 1.0
C      1  0.5200900000000  0.5315980000000  0.4592050000000 1.0
C      1  0.4432050000000  0.5476500000000  0.5937790000000 1.0
C      1  0.5691810000000  0.5252870000000  0.5947800000000 1.0
C      1  0.4870730000000  0.4272110000000  0.5946720000000 1.0
C      1  0.4418180000000  0.4350700000000  0.5345670000000 1.0
C      1  0.4742480000000  0.5830310000000  0.5340470000000 1.0
C      1  0.5828670000000  0.4822940000000  0.5336800000000 1.0
C      1  0.3969630000000  0.5091220000000  0.4393040000000 1.0
C      1  0.5594560000000  0.5856860000000  0.4412920000000 1.0
C      1  0.5429630000000  0.4060200000000  0.4385570000000 1.0
C      1  0.4362740000000  0.3880650000000  0.4253410000000 1.0
C      1  0.4403350000000  0.6089210000000  0.3923490000000 1.0
C      1  0.6274570000000  0.5018260000000  0.4249540000000 1.0
C      1  0.5690540000000  0.5454630000000  0.5347730000000 1.0
C      1  0.5047660000000  0.4167330000000  0.5345720000000 1.0
C      1  0.4263410000000  0.5361830000000  0.5343210000000 1.0
C      1  0.4784310000000  0.5194170000000  0.5745100000000 1.0
C      1  0.5270530000000  0.5094620000000  0.5734060000000 1.0
C      1  0.4936820000000  0.4721080000000  0.5737070000000 1.0
C      1  0.5735660000000  0.5014500000000  0.4487140000000 1.0
C      1  0.4635290000000  0.4342430000000  0.4487190000000 1.0
C      1  0.4616590000000  0.5645010000000  0.4486330000000 1.0
C      1  0.4797460000000  0.4944390000000  0.3861960000000 1.0
C      1  0.5067730000000  0.5201700000000  0.3861040000000 1.0
C      1  0.5143080000000  0.4851570000000  0.3859710000000 1.0
C      1  0.6055620000000  0.5201330000000  0.5159980000000 1.0
C      1  0.4647740000000  0.3973770000000  0.5158720000000 1.0
C      1  0.4297010000000  0.5808120000000  0.5163420000000 1.0
END
