TITL C-3623285-6872-857 -7.26979040941914e-07 125000 -1205.02028889671 0 0 198 (C1) n - 1
REM
REM in /home/nfs/bkarasulu/CARBON/AIRSS/Generating-Clusters/LCBOP/Higher-Symm/SD-CG/FIRE-CG
REM
REM
REM
REM
REM
REM ./C.cell (b20cbc046b6831c77cfcea5457e17084)
REM AIRSS Version 0.9.1 bugfix July 2018 build 013d7b7c2542+ Fri, 06 Jul 2018 19:26:36 +0100
REM compiler GCC version 9.2.1 20190827 (Red Hat 9.2.1-1)
REM options -cpp -mtune=generic -march=x86-64 -g -O0 -fpre-include=/usr/include/finclude/math-vector-fortran.h
REM seed -292857975 -1501190756 -885443578 1542417155 1155235397 786481093 -1290051397 -2102523240 -1043783198 460248 -1396849611 -1562985074 -1063962060 -733323847 224838746 1180788526 1540943440 -408440160 -1174160510 -2117621919 1557224096 -700474449 1074618147 405799132 1971204814 1877881224 80523956 -1479023171 1731905370 -54866919 -1998204216 -367479855 -1810658838
REM
CELL 1.54180   50.00000   50.00000   50.00000   90.00000   90.00000   90.00000
LATT -1
SFAC C  
C      1  0.4824010000000  0.5565230000000  0.4712730000000 1.0
C      1  0.4449110000000  0.5233410000000  0.4722750000000 1.0
C      1  0.4433780000000  0.4772210000000  0.4692500000000 1.0
C      1  0.4871590000000  0.4334480000000  0.4742200000000 1.0
C      1  0.5356100000000  0.4421970000000  0.4705120000000 1.0
C      1  0.5582170000000  0.4961480000000  0.4747270000000 1.0
C      1  0.5300380000000  0.5541900000000  0.4716280000000 1.0
C      1  0.5917140000000  0.5602530000000  0.4777730000000 1.0
C      1  0.5091270000000  0.6017770000000  0.4740240000000 1.0
C      1  0.4288450000000  0.5709300000000  0.4706140000000 1.0
C      1  0.3983470000000  0.4901710000000  0.4730540000000 1.0
C      1  0.4436370000000  0.4050670000000  0.4665710000000 1.0
C      1  0.5317130000000  0.3959320000000  0.4702340000000 1.0
C      1  0.5999120000000  0.4651390000000  0.4711370000000 1.0
C      1  0.4816160000000  0.4822110000000  0.6094480000000 1.0
C      1  0.5085890000000  0.4710250000000  0.6036830000000 1.0
C      1  0.5363130000000  0.4784710000000  0.6092100000000 1.0
C      1  0.5427780000000  0.5070590000000  0.6068170000000 1.0
C      1  0.5240740000000  0.5294550000000  0.6148660000000 1.0
C      1  0.4944130000000  0.5328340000000  0.6174940000000 1.0
C      1  0.4749360000000  0.5107470000000  0.6149870000000 1.0
C      1  0.4635440000000  0.4781200000000  0.4485900000000 1.0
C      1  0.4859460000000  0.4564720000000  0.4509250000000 1.0
C      1  0.5335100000000  0.4595710000000  0.4487580000000 1.0
C      1  0.5468030000000  0.5116040000000  0.4536040000000 1.0
C      1  0.5267450000000  0.5345170000000  0.4512810000000 1.0
C      1  0.4905990000000  0.5351100000000  0.4493480000000 1.0
C      1  0.4667290000000  0.5130630000000  0.4487800000000 1.0
C      1  0.5116980000000  0.5861550000000  0.5335900000000 1.0
C      1  0.4528970000000  0.5749380000000  0.5337400000000 1.0
C      1  0.4119510000000  0.4902030000000  0.5323850000000 1.0
C      1  0.4325430000000  0.4351650000000  0.5238420000000 1.0
C      1  0.5320520000000  0.4133990000000  0.5309260000000 1.0
C      1  0.5722920000000  0.4442130000000  0.5309290000000 1.0
C      1  0.5725710000000  0.5306200000000  0.5266780000000 1.0
C      1  0.5364420000000  0.5018930000000  0.4065330000000 1.0
C      1  0.5226050000000  0.5270120000000  0.4038680000000 1.0
C      1  0.4941250000000  0.5304840000000  0.4017810000000 1.0
C      1  0.4726910000000  0.5113170000000  0.4007460000000 1.0
C      1  0.4741760000000  0.4824170000000  0.4016490000000 1.0
C      1  0.4981420000000  0.4658770000000  0.4040180000000 1.0
C      1  0.5264820000000  0.4744460000000  0.4048950000000 1.0
C      1  0.4033910000000  0.5303300000000  0.5804850000000 1.0
C      1  0.4116510000000  0.4525250000000  0.5788850000000 1.0
C      1  0.4948010000000  0.4055510000000  0.5684460000000 1.0
C      1  0.5787930000000  0.4128870000000  0.5811140000000 1.0
C      1  0.6060070000000  0.5121120000000  0.5770810000000 1.0
C      1  0.5634790000000  0.5928870000000  0.5899620000000 1.0
C      1  0.4733440000000  0.6074600000000  0.5854480000000 1.0
C      1  0.4567550000000  0.5532330000000  0.5133110000000 1.0
C      1  0.4254130000000  0.5119400000000  0.5215140000000 1.0
C      1  0.4445020000000  0.4412350000000  0.4973420000000 1.0
C      1  0.5189490000000  0.4302970000000  0.5136360000000 1.0
C      1  0.5599240000000  0.4609300000000  0.5124280000000 1.0
C      1  0.5592730000000  0.5426440000000  0.5056760000000 1.0
C      1  0.5090710000000  0.5668180000000  0.5109570000000 1.0
C      1  0.5850090000000  0.5849070000000  0.5203690000000 1.0
C      1  0.4845370000000  0.6281840000000  0.5086260000000 1.0
C      1  0.4014900000000  0.5700720000000  0.5117170000000 1.0
C      1  0.3767170000000  0.4601070000000  0.5076690000000 1.0
C      1  0.4491510000000  0.3827600000000  0.5078740000000 1.0
C      1  0.5658020000000  0.3830170000000  0.5071920000000 1.0
C      1  0.6211320000000  0.4794750000000  0.5111380000000 1.0
C      1  0.5079410000000  0.5741740000000  0.4693620000000 1.0
C      1  0.4506760000000  0.5538310000000  0.4674610000000 1.0
C      1  0.4251690000000  0.4984840000000  0.4691770000000 1.0
C      1  0.4577770000000  0.4271040000000  0.4767000000000 1.0
C      1  0.5185900000000  0.4203440000000  0.4671460000000 1.0
C      1  0.5745490000000  0.4753590000000  0.4660190000000 1.0
C      1  0.5677030000000  0.5459570000000  0.4796080000000 1.0
C      1  0.4117080000000  0.5980460000000  0.5117600000000 1.0
C      1  0.3659110000000  0.4870740000000  0.5152010000000 1.0
C      1  0.4195100000000  0.3885390000000  0.5084510000000 1.0
C      1  0.5405790000000  0.3682340000000  0.5140130000000 1.0
C      1  0.6200240000000  0.4512730000000  0.5184320000000 1.0
C      1  0.6025340000000  0.5628550000000  0.5314650000000 1.0
C      1  0.5127400000000  0.6353270000000  0.5146910000000 1.0
C      1  0.5397190000000  0.5775900000000  0.5423000000000 1.0
C      1  0.4802200000000  0.5889850000000  0.5384110000000 1.0
C      1  0.4323050000000  0.5615670000000  0.5505200000000 1.0
C      1  0.4173170000000  0.4612760000000  0.5302030000000 1.0
C      1  0.4553200000000  0.4222670000000  0.5376380000000 1.0
C      1  0.5592820000000  0.4198260000000  0.5341750000000 1.0
C      1  0.5808150000000  0.5042950000000  0.5227700000000 1.0
C      1  0.5851760000000  0.3952860000000  0.5604800000000 1.0
C      1  0.6170290000000  0.4990610000000  0.5561260000000 1.0
C      1  0.5726510000000  0.6014780000000  0.5660630000000 1.0
C      1  0.4708670000000  0.6248390000000  0.5641040000000 1.0
C      1  0.3919040000000  0.5421220000000  0.5587500000000 1.0
C      1  0.3900900000000  0.4461590000000  0.5623970000000 1.0
C      1  0.4819940000000  0.3882760000000  0.5517360000000 1.0
C      1  0.5128650000000  0.3740900000000  0.4748760000000 1.0
C      1  0.6016000000000  0.4362960000000  0.4765020000000 1.0
C      1  0.6135850000000  0.5414340000000  0.4849610000000 1.0
C      1  0.5357020000000  0.6132780000000  0.4788050000000 1.0
C      1  0.4341630000000  0.5993010000000  0.4703810000000 1.0
C      1  0.3808960000000  0.5129880000000  0.4770400000000 1.0
C      1  0.4144370000000  0.4108090000000  0.4661340000000 1.0
C      1  0.4367580000000  0.4619510000000  0.5848150000000 1.0
C      1  0.5036340000000  0.4303230000000  0.5742270000000 1.0
C      1  0.5680540000000  0.4347350000000  0.5939010000000 1.0
C      1  0.5827660000000  0.5279700000000  0.5728320000000 1.0
C      1  0.5468940000000  0.5740680000000  0.5993850000000 1.0
C      1  0.4781100000000  0.5832130000000  0.5970630000000 1.0
C      1  0.4262090000000  0.5238120000000  0.5933390000000 1.0
C      1  0.5591680000000  0.4903610000000  0.5098400000000 1.0
C      1  0.5306000000000  0.5478240000000  0.5024940000000 1.0
C      1  0.4839880000000  0.5522170000000  0.5015830000000 1.0
C      1  0.4457110000000  0.5248000000000  0.5052280000000 1.0
C      1  0.4490030000000  0.4681780000000  0.4943190000000 1.0
C      1  0.4928380000000  0.4377390000000  0.5050710000000 1.0
C      1  0.5352860000000  0.4515800000000  0.4988830000000 1.0
C      1  0.4830130000000  0.6143990000000  0.4820750000000 1.0
C      1  0.4048680000000  0.5589800000000  0.4839300000000 1.0
C      1  0.3915940000000  0.4609150000000  0.4806840000000 1.0
C      1  0.4596040000000  0.3827050000000  0.4793160000000 1.0
C      1  0.5622280000000  0.3977360000000  0.4799590000000 1.0
C      1  0.6167630000000  0.4860460000000  0.4835110000000 1.0
C      1  0.5824810000000  0.5863520000000  0.4899710000000 1.0
C      1  0.5557660000000  0.4570660000000  0.6041190000000 1.0
C      1  0.5571920000000  0.5153800000000  0.5811290000000 1.0
C      1  0.5309010000000  0.5516390000000  0.5953430000000 1.0
C      1  0.4851360000000  0.5555390000000  0.5983130000000 1.0
C      1  0.4539470000000  0.5192970000000  0.5946610000000 1.0
C      1  0.4624310000000  0.4748070000000  0.5861330000000 1.0
C      1  0.5074990000000  0.4580240000000  0.5770340000000 1.0
C      1  0.5339070000000  0.5465480000000  0.4234610000000 1.0
C      1  0.4866470000000  0.5511350000000  0.4220440000000 1.0
C      1  0.4514360000000  0.5195200000000  0.4207990000000 1.0
C      1  0.4529110000000  0.4727870000000  0.4201860000000 1.0
C      1  0.4911310000000  0.4432870000000  0.4229410000000 1.0
C      1  0.5429470000000  0.4574170000000  0.4222650000000 1.0
C      1  0.5577590000000  0.5049940000000  0.4269960000000 1.0
C      1  0.4150980000000  0.6119540000000  0.4870860000000 1.0
C      1  0.3603880000000  0.5066550000000  0.4953600000000 1.0
C      1  0.4044980000000  0.3904510000000  0.4839540000000 1.0
C      1  0.5235730000000  0.3566180000000  0.4943850000000 1.0
C      1  0.6202350000000  0.4319320000000  0.4974170000000 1.0
C      1  0.6205290000000  0.5498320000000  0.5122390000000 1.0
C      1  0.5329480000000  0.6365000000000  0.4948750000000 1.0
C      1  0.4907910000000  0.4650540000000  0.5131330000000 1.0
C      1  0.5161660000000  0.4766050000000  0.5026640000000 1.0
C      1  0.5307440000000  0.4966380000000  0.5192480000000 1.0
C      1  0.5190900000000  0.5219020000000  0.5099840000000 1.0
C      1  0.4916720000000  0.5241160000000  0.5084960000000 1.0
C      1  0.4697380000000  0.5076900000000  0.5110850000000 1.0
C      1  0.4680670000000  0.4802930000000  0.5103030000000 1.0
C      1  0.4112240000000  0.4501950000000  0.4356180000000 1.0
C      1  0.4856980000000  0.3930790000000  0.4392700000000 1.0
C      1  0.5760650000000  0.4251350000000  0.4373690000000 1.0
C      1  0.6041900000000  0.5112990000000  0.4434830000000 1.0
C      1  0.5582520000000  0.5858920000000  0.4453660000000 1.0
C      1  0.4699900000000  0.5962950000000  0.4381590000000 1.0
C      1  0.4043500000000  0.5351710000000  0.4406550000000 1.0
C      1  0.5858990000000  0.5440920000000  0.5479460000000 1.0
C      1  0.5184660000000  0.6164870000000  0.5352460000000 1.0
C      1  0.4357520000000  0.5993500000000  0.5266390000000 1.0
C      1  0.3837240000000  0.4958410000000  0.5361530000000 1.0
C      1  0.4135400000000  0.4114770000000  0.5244020000000 1.0
C      1  0.5268150000000  0.3854770000000  0.5324760000000 1.0
C      1  0.5996290000000  0.4462530000000  0.5375260000000 1.0
C      1  0.4876690000000  0.4134080000000  0.4161430000000 1.0
C      1  0.5702280000000  0.4483590000000  0.4211450000000 1.0
C      1  0.5856000000000  0.4973450000000  0.4259710000000 1.0
C      1  0.5494890000000  0.5708490000000  0.4224090000000 1.0
C      1  0.4783070000000  0.5781630000000  0.4178110000000 1.0
C      1  0.4202870000000  0.5228870000000  0.4172580000000 1.0
C      1  0.4243130000000  0.4698360000000  0.4195480000000 1.0
C      1  0.5022590000000  0.4801450000000  0.5587020000000 1.0
C      1  0.5238890000000  0.4959380000000  0.5482400000000 1.0
C      1  0.5343690000000  0.5179840000000  0.5627440000000 1.0
C      1  0.5186650000000  0.5407180000000  0.5703140000000 1.0
C      1  0.4897530000000  0.5413350000000  0.5719380000000 1.0
C      1  0.4709000000000  0.5194480000000  0.5695810000000 1.0
C      1  0.4756880000000  0.4910680000000  0.5641870000000 1.0
C      1  0.6073010000000  0.4957650000000  0.5298250000000 1.0
C      1  0.5651230000000  0.5910900000000  0.5407680000000 1.0
C      1  0.4746660000000  0.6184590000000  0.5360060000000 1.0
C      1  0.4054860000000  0.5572840000000  0.5387550000000 1.0
C      1  0.3893940000000  0.4502520000000  0.5335430000000 1.0
C      1  0.4633500000000  0.3948360000000  0.5313050000000 1.0
C      1  0.5761140000000  0.3961610000000  0.5327540000000 1.0
C      1  0.4154760000000  0.5396900000000  0.3924740000000 1.0
C      1  0.4111450000000  0.4941220000000  0.4128180000000 1.0
C      1  0.4620030000000  0.4106300000000  0.3998400000000 1.0
C      1  0.5115630000000  0.4048590000000  0.3991650000000 1.0
C      1  0.5889300000000  0.4700020000000  0.4172170000000 1.0
C      1  0.5564610000000  0.5804400000000  0.3975810000000 1.0
C      1  0.4783410000000  0.5875660000000  0.3919520000000 1.0
C      1  0.5599960000000  0.5980720000000  0.4721370000000 1.0
C      1  0.4612320000000  0.6068410000000  0.4635820000000 1.0
C      1  0.3929530000000  0.5376470000000  0.4675380000000 1.0
C      1  0.4037010000000  0.4390840000000  0.4617000000000 1.0
C      1  0.4855970000000  0.3794650000000  0.4651280000000 1.0
C      1  0.5812570000000  0.4177600000000  0.4652610000000 1.0
C      1  0.6142540000000  0.5136600000000  0.4711940000000 1.0
C      1  0.5098970000000  0.4741950000000  0.4537310000000 1.0
C      1  0.5097790000000  0.4893460000000  0.4767760000000 1.0
END
