TITL C-3623286-7563-262 3906.2306995158 125000 -811.250562567488 0 0 132 (C1) n - 1
REM
REM in /home/nfs/bkarasulu/CARBON/AIRSS/Generating-Clusters/LCBOP/Higher-Symm/SD-CG/FIRE-CG
REM
REM
REM
REM
REM
REM ./C.cell (b20cbc046b6831c77cfcea5457e17084)
REM AIRSS Version 0.9.1 bugfix July 2018 build 013d7b7c2542+ Fri, 06 Jul 2018 19:26:36 +0100
REM compiler GCC version 9.2.1 20190827 (Red Hat 9.2.1-1)
REM options -cpp -mtune=generic -march=x86-64 -g -O0 -fpre-include=/usr/include/finclude/math-vector-fortran.h
REM seed 1283587539 -1661824793 1622546013 -155418291 -1255020053 -1273054757 -649416044 961594537 -820852421 995901042 -1153954477 245655615 1076475403 -1192773980 1627773254 -144080275 -1039793510 -1515576533 -1524181187 402050691 914637701 517393026 -2046228644 355180394 778495323 -47314339 -2144961877 -1100251671 -953138429 1455724860 -1250200894 1567240851 -1907071048
REM
CELL 1.54180   50.00000   50.00000   50.00000   90.00000   90.00000   90.00000
LATT -1
SFAC C  
C      1  0.5313370000000  0.5600790000000  0.4264950000000 1.0
C      1  0.5254340000000  0.4069080000000  0.4852110000000 1.0
C      1  0.5368030000000  0.5253530000000  0.5782360000000 1.0
C      1  0.5379480000000  0.5546130000000  0.5689860000000 1.0
C      1  0.5386620000000  0.5348320000000  0.4143140000000 1.0
C      1  0.5315220000000  0.4061320000000  0.5134750000000 1.0
C      1  0.5153400000000  0.4552650000000  0.5916870000000 1.0
C      1  0.5148730000000  0.5924370000000  0.4787370000000 1.0
C      1  0.5139170000000  0.4392980000000  0.4328780000000 1.0
C      1  0.5454770000000  0.5852270000000  0.4852170000000 1.0
C      1  0.5451600000000  0.4483300000000  0.4394930000000 1.0
C      1  0.5428510000000  0.4520160000000  0.5822720000000 1.0
C      1  0.5713870000000  0.4670800000000  0.4965460000000 1.0
C      1  0.5797350000000  0.5200700000000  0.5317670000000 1.0
C      1  0.5800640000000  0.5283800000000  0.4818450000000 1.0
C      1  0.4077800000000  0.4597120000000  0.5286910000000 1.0
C      1  0.4143450000000  0.5400310000000  0.5108790000000 1.0
C      1  0.4102870000000  0.4897590000000  0.4695120000000 1.0
C      1  0.5247640000000  0.4832590000000  0.4089270000000 1.0
C      1  0.5183470000000  0.4152320000000  0.5611560000000 1.0
C      1  0.5224860000000  0.5909110000000  0.5295210000000 1.0
C      1  0.4475380000000  0.5686250000000  0.5385920000000 1.0
C      1  0.4450800000000  0.5010770000000  0.4354170000000 1.0
C      1  0.4477140000000  0.4279090000000  0.5357190000000 1.0
C      1  0.5033570000000  0.4956920000000  0.4954560000000 1.0
C      1  0.5171800000000  0.4999270000000  0.5217510000000 1.0
C      1  0.5044280000000  0.5222420000000  0.4818860000000 1.0
C      1  0.5240230000000  0.4567650000000  0.5241100000000 1.0
C      1  0.5169980000000  0.5444450000000  0.5202570000000 1.0
C      1  0.5170860000000  0.4934170000000  0.4514170000000 1.0
C      1  0.5158950000000  0.5506020000000  0.4486050000000 1.0
C      1  0.5120240000000  0.4317170000000  0.4814880000000 1.0
C      1  0.5137940000000  0.5164060000000  0.5639210000000 1.0
C      1  0.4391260000000  0.5586750000000  0.4389880000000 1.0
C      1  0.4437790000000  0.4187430000000  0.4801370000000 1.0
C      1  0.4422830000000  0.5221560000000  0.5785860000000 1.0
C      1  0.4291920000000  0.4399350000000  0.4932750000000 1.0
C      1  0.4228370000000  0.5343830000000  0.5614930000000 1.0
C      1  0.4232080000000  0.5379400000000  0.4552800000000 1.0
C      1  0.5448500000000  0.4275770000000  0.5645560000000 1.0
C      1  0.5479850000000  0.5863960000000  0.5156850000000 1.0
C      1  0.5496550000000  0.4756210000000  0.4247490000000 1.0
C      1  0.5372880000000  0.4823760000000  0.5301860000000 1.0
C      1  0.5293260000000  0.5337930000000  0.4966780000000 1.0
C      1  0.5244390000000  0.4795680000000  0.4787600000000 1.0
C      1  0.4381620000000  0.5813710000000  0.4585310000000 1.0
C      1  0.4455040000000  0.4289540000000  0.4532270000000 1.0
C      1  0.4419280000000  0.4929470000000  0.5823180000000 1.0
C      1  0.5639120000000  0.4312870000000  0.5432580000000 1.0
C      1  0.5686930000000  0.5749290000000  0.5310010000000 1.0
C      1  0.5684740000000  0.4969820000000  0.4315360000000 1.0
C      1  0.5776360000000  0.4563210000000  0.5470380000000 1.0
C      1  0.5903490000000  0.5640600000000  0.5156540000000 1.0
C      1  0.5917290000000  0.4926590000000  0.4472540000000 1.0
C      1  0.5039040000000  0.5965490000000  0.5077670000000 1.0
C      1  0.5048330000000  0.4609190000000  0.4119300000000 1.0
C      1  0.5013360000000  0.4326700000000  0.5785620000000 1.0
C      1  0.5980340000000  0.5078210000000  0.4689830000000 1.0
C      1  0.5808530000000  0.4723790000000  0.5238050000000 1.0
C      1  0.5893270000000  0.5363690000000  0.5090480000000 1.0
C      1  0.4833780000000  0.4428260000000  0.5597620000000 1.0
C      1  0.4823420000000  0.5800470000000  0.5132200000000 1.0
C      1  0.4802040000000  0.4722970000000  0.4208640000000 1.0
C      1  0.5794970000000  0.5359470000000  0.5554360000000 1.0
C      1  0.5709900000000  0.5454560000000  0.4577680000000 1.0
C      1  0.5663690000000  0.4392130000000  0.4905780000000 1.0
C      1  0.4666590000000  0.5380910000000  0.5841650000000 1.0
C      1  0.4657220000000  0.5579210000000  0.4225600000000 1.0
C      1  0.4665220000000  0.4043040000000  0.4915060000000 1.0
C      1  0.4743850000000  0.4105920000000  0.5203110000000 1.0
C      1  0.4752040000000  0.5630080000000  0.5616190000000 1.0
C      1  0.4833660000000  0.5324840000000  0.4192520000000 1.0
C      1  0.5530750000000  0.5168470000000  0.4894220000000 1.0
C      1  0.5525860000000  0.4880430000000  0.4856930000000 1.0
C      1  0.5647190000000  0.4954240000000  0.5308360000000 1.0
C      1  0.5602520000000  0.5728420000000  0.4619560000000 1.0
C      1  0.5583940000000  0.4319150000000  0.4619630000000 1.0
C      1  0.5609790000000  0.4730570000000  0.5744290000000 1.0
C      1  0.5551430000000  0.5015380000000  0.5814800000000 1.0
C      1  0.5497970000000  0.5795730000000  0.4355520000000 1.0
C      1  0.5465070000000  0.4053710000000  0.4659700000000 1.0
C      1  0.4920220000000  0.6041580000000  0.4347700000000 1.0
C      1  0.4933990000000  0.3935440000000  0.4462820000000 1.0
C      1  0.4930630000000  0.5014570000000  0.6119690000000 1.0
C      1  0.4911420000000  0.4911800000000  0.4400250000000 1.0
C      1  0.4980470000000  0.4520980000000  0.5361620000000 1.0
C      1  0.4904660000000  0.5534930000000  0.5189560000000 1.0
C      1  0.4758270000000  0.5577740000000  0.4734460000000 1.0
C      1  0.4773300000000  0.4600000000000  0.4701100000000 1.0
C      1  0.4781450000000  0.4914560000000  0.5465260000000 1.0
C      1  0.5162730000000  0.5225350000000  0.5372650000000 1.0
C      1  0.5180820000000  0.5222530000000  0.4552510000000 1.0
C      1  0.5228270000000  0.4535040000000  0.4953900000000 1.0
C      1  0.4981590000000  0.4432790000000  0.4601950000000 1.0
C      1  0.4966880000000  0.4943700000000  0.5678720000000 1.0
C      1  0.5017720000000  0.5673310000000  0.4669490000000 1.0
C      1  0.4503760000000  0.4586470000000  0.4549340000000 1.0
C      1  0.4394750000000  0.4696070000000  0.5649320000000 1.0
C      1  0.4482860000000  0.5691380000000  0.4847470000000 1.0
C      1  0.4827350000000  0.5261800000000  0.6049410000000 1.0
C      1  0.4790900000000  0.5839630000000  0.4217830000000 1.0
C      1  0.4816200000000  0.3909290000000  0.4708330000000 1.0
C      1  0.3891400000000  0.4721040000000  0.5107300000000 1.0
C      1  0.3938130000000  0.5205130000000  0.5060140000000 1.0
C      1  0.3930380000000  0.4947880000000  0.4931430000000 1.0
C      1  0.4757760000000  0.5275640000000  0.4712200000000 1.0
C      1  0.4781660000000  0.4782860000000  0.4966850000000 1.0
C      1  0.4605100000000  0.5109510000000  0.5365260000000 1.0
C      1  0.5068680000000  0.4099350000000  0.4286730000000 1.0
C      1  0.5011960000000  0.4808470000000  0.5931980000000 1.0
C      1  0.5067450000000  0.6116480000000  0.4569000000000 1.0
C      1  0.4247690000000  0.4781330000000  0.5415180000000 1.0
C      1  0.4319610000000  0.5419150000000  0.4861660000000 1.0
C      1  0.4322530000000  0.4693920000000  0.4782230000000 1.0
C      1  0.4213670000000  0.5094600000000  0.4495690000000 1.0
C      1  0.4245780000000  0.4376710000000  0.5205600000000 1.0
C      1  0.4251990000000  0.5494840000000  0.5373470000000 1.0
C      1  0.5081690000000  0.4072380000000  0.5329490000000 1.0
C      1  0.5100160000000  0.5719600000000  0.5569890000000 1.0
C      1  0.5149600000000  0.5175120000000  0.4086000000000 1.0
C      1  0.5630880000000  0.5596470000000  0.5552670000000 1.0
C      1  0.5613820000000  0.5253030000000  0.4306950000000 1.0
C      1  0.5572670000000  0.4222460000000  0.5160550000000 1.0
C      1  0.4550630000000  0.4447710000000  0.5587550000000 1.0
C      1  0.4540300000000  0.5803530000000  0.5125640000000 1.0
C      1  0.4526540000000  0.4732850000000  0.4292860000000 1.0
C      1  0.4712840000000  0.5341970000000  0.5262100000000 1.0
C      1  0.4725420000000  0.5148850000000  0.4425890000000 1.0
C      1  0.4802610000000  0.4710760000000  0.5260330000000 1.0
C      1  0.4493110000000  0.4899450000000  0.4961740000000 1.0
C      1  0.4392470000000  0.4955150000000  0.5244360000000 1.0
C      1  0.4521600000000  0.5185570000000  0.4864950000000 1.0
END
