TITL C-3623289-7120-44 1.08485888884175e-07 125000 -329.409500581404 0 0 54 (C1) n - 1
REM
REM in /home/nfs/bkarasulu/CARBON/AIRSS/Generating-Clusters/LCBOP/Higher-Symm/SD-CG/FIRE-CG
REM
REM
REM
REM
REM
REM ./C.cell (b20cbc046b6831c77cfcea5457e17084)
REM AIRSS Version 0.9.1 bugfix July 2018 build 013d7b7c2542+ Fri, 06 Jul 2018 19:26:36 +0100
REM compiler GCC version 9.2.1 20190827 (Red Hat 9.2.1-1)
REM options -cpp -mtune=generic -march=x86-64 -g -O0 -fpre-include=/usr/include/finclude/math-vector-fortran.h
REM seed 1157195847 1034805 -1050802907 1039471423 -1254748343 2113213312 -1527860295 1245402283 -305075753 -1601220338 29787293 -1507998535 1115967493 -368307739 -1129339056 -1753126033 1925577110 -1840898935 2037351616 -1197119894 1312101684 933768236 1215594022 408158682 -731039378 -1099709022 1247095460 -1987678135 -1697538026 1747283434 -169823834 1332356346 -1367317277
REM
CELL 1.54180   50.00000   50.00000   50.00000   90.00000   90.00000   90.00000
LATT -1
SFAC C  
C      1  0.5179090000000  0.4481150000000  0.4731130000000 1.0
C      1  0.5517080000000  0.4498320000000  0.4345020000000 1.0
C      1  0.5362030000000  0.4737340000000  0.5268370000000 1.0
C      1  0.5311260000000  0.5442000000000  0.5417060000000 1.0
C      1  0.5269950000000  0.5650800000000  0.4989840000000 1.0
C      1  0.4490130000000  0.5005250000000  0.4859830000000 1.0
C      1  0.4569300000000  0.5709280000000  0.5007460000000 1.0
C      1  0.5466180000000  0.4978060000000  0.5373580000000 1.0
C      1  0.5006490000000  0.4431000000000  0.5375780000000 1.0
C      1  0.5896800000000  0.4655550000000  0.4838780000000 1.0
C      1  0.4805240000000  0.4951230000000  0.5645510000000 1.0
C      1  0.5284380000000  0.5165710000000  0.5504490000000 1.0
C      1  0.4315450000000  0.5029070000000  0.5096870000000 1.0
C      1  0.5452390000000  0.5500920000000  0.5165400000000 1.0
C      1  0.4493480000000  0.5252680000000  0.5449200000000 1.0
C      1  0.5065530000000  0.5789590000000  0.5159340000000 1.0
C      1  0.5688420000000  0.5098180000000  0.5244150000000 1.0
C      1  0.5330360000000  0.5256630000000  0.4694740000000 1.0
C      1  0.4629530000000  0.4643520000000  0.5127560000000 1.0
C      1  0.4733970000000  0.5381100000000  0.5367250000000 1.0
C      1  0.5465250000000  0.4530520000000  0.4616370000000 1.0
C      1  0.4939780000000  0.4367650000000  0.4586610000000 1.0
C      1  0.4495190000000  0.4738250000000  0.4425940000000 1.0
C      1  0.4551890000000  0.4974480000000  0.5515090000000 1.0
C      1  0.4705830000000  0.4333420000000  0.4748000000000 1.0
C      1  0.5477920000000  0.4541140000000  0.5088490000000 1.0
C      1  0.4448830000000  0.4820470000000  0.5284050000000 1.0
C      1  0.4330710000000  0.5563720000000  0.5105540000000 1.0
C      1  0.5095400000000  0.4406300000000  0.4121540000000 1.0
C      1  0.4760620000000  0.5059710000000  0.4978670000000 1.0
C      1  0.4798480000000  0.5316800000000  0.5084290000000 1.0
C      1  0.5640030000000  0.5310940000000  0.5064460000000 1.0
C      1  0.5634430000000  0.4585430000000  0.4847770000000 1.0
C      1  0.4548470000000  0.4535470000000  0.4868150000000 1.0
C      1  0.5598820000000  0.5251680000000  0.4790520000000 1.0
C      1  0.4898850000000  0.4801630000000  0.5062320000000 1.0
C      1  0.5110390000000  0.5647440000000  0.5432060000000 1.0
C      1  0.4838100000000  0.5600140000000  0.5515900000000 1.0
C      1  0.5101090000000  0.4239660000000  0.5204440000000 1.0
C      1  0.4742970000000  0.5518970000000  0.4883980000000 1.0
C      1  0.5191510000000  0.5008110000000  0.4689220000000 1.0
C      1  0.4927210000000  0.5544020000000  0.4675960000000 1.0
C      1  0.5055370000000  0.5059570000000  0.5640170000000 1.0
C      1  0.5085950000000  0.4770220000000  0.4811970000000 1.0
C      1  0.4891890000000  0.4439400000000  0.4311090000000 1.0
C      1  0.4468890000000  0.4764920000000  0.4703970000000 1.0
C      1  0.4303860000000  0.5295390000000  0.5225170000000 1.0
C      1  0.5266100000000  0.4344040000000  0.4999070000000 1.0
C      1  0.4760470000000  0.5875060000000  0.5165090000000 1.0
C      1  0.5074610000000  0.4698090000000  0.5291480000000 1.0
C      1  0.4700210000000  0.5850090000000  0.5454580000000 1.0
C      1  0.5198130000000  0.5509990000000  0.4744890000000 1.0
C      1  0.5361640000000  0.4439230000000  0.4134290000000 1.0
C      1  0.4664050000000  0.4600670000000  0.4267490000000 1.0
END
