TITL C-3623284-6838-483 0.00230462147638129 125000 -924.640489750529 0 0 150 (C1) n - 1
REM
REM in /home/nfs/bkarasulu/CARBON/AIRSS/Generating-Clusters/LCBOP/Higher-Symm/SD-CG/FIRE-CG
REM
REM
REM
REM
REM
REM ./C.cell (b20cbc046b6831c77cfcea5457e17084)
REM AIRSS Version 0.9.1 bugfix July 2018 build 013d7b7c2542+ Fri, 06 Jul 2018 19:26:36 +0100
REM compiler GCC version 9.2.1 20190827 (Red Hat 9.2.1-1)
REM options -cpp -mtune=generic -march=x86-64 -g -O0 -fpre-include=/usr/include/finclude/math-vector-fortran.h
REM seed -1661038626 -1112392493 686010175 1310409241 -176065005 -1679716347 -2127260678 1345007526 -1549760215 1590082276 -1273126248 -23013049 -235226292 -1482352632 1666661552 -495460000 391056311 -543232646 142623321 -139384306 -899945513 -550209326 1121884553 -74646841 2031530482 618119638 2102715474 949252365 1584014948 -875120728 -595562250 -2069457501 -605040476
REM
CELL 1.54180   50.00000   50.00000   50.00000   90.00000   90.00000   90.00000
LATT -1
SFAC C  
C      1  0.4961690000000  0.4687420000000  0.4991810000000 1.0
C      1  0.4932150000000  0.5127630000000  0.4704840000000 1.0
C      1  0.4871530000000  0.5121230000000  0.5336580000000 1.0
C      1  0.5735100000000  0.4561200000000  0.5748900000000 1.0
C      1  0.5502480000000  0.4649030000000  0.4451430000000 1.0
C      1  0.5827990000000  0.5869490000000  0.4960630000000 1.0
C      1  0.4484870000000  0.4243830000000  0.3955810000000 1.0
C      1  0.4562210000000  0.6477290000000  0.5038520000000 1.0
C      1  0.4389840000000  0.4186790000000  0.6091520000000 1.0
C      1  0.4850120000000  0.5878570000000  0.4756750000000 1.0
C      1  0.4819180000000  0.4718650000000  0.5971320000000 1.0
C      1  0.4894200000000  0.4167600000000  0.4460170000000 1.0
C      1  0.5963190000000  0.4667730000000  0.4990140000000 1.0
C      1  0.5846950000000  0.5190770000000  0.4752980000000 1.0
C      1  0.5866400000000  0.5112460000000  0.5296920000000 1.0
C      1  0.4185030000000  0.3991200000000  0.5158250000000 1.0
C      1  0.4140460000000  0.5245520000000  0.4011920000000 1.0
C      1  0.4187600000000  0.5698170000000  0.5619740000000 1.0
C      1  0.5417120000000  0.5326730000000  0.6176230000000 1.0
C      1  0.5583960000000  0.3783570000000  0.4760360000000 1.0
C      1  0.5435290000000  0.5887160000000  0.4152110000000 1.0
C      1  0.4155050000000  0.5405710000000  0.3784600000000 1.0
C      1  0.4254700000000  0.5894230000000  0.5805310000000 1.0
C      1  0.4222720000000  0.3719400000000  0.5207840000000 1.0
C      1  0.5030260000000  0.4573240000000  0.4712850000000 1.0
C      1  0.4934230000000  0.5390370000000  0.4813170000000 1.0
C      1  0.4927260000000  0.4935550000000  0.5537730000000 1.0
C      1  0.4858380000000  0.4617440000000  0.4461010000000 1.0
C      1  0.5212930000000  0.5705050000000  0.5016950000000 1.0
C      1  0.5214930000000  0.4625970000000  0.5711200000000 1.0
C      1  0.4500950000000  0.4576990000000  0.5051990000000 1.0
C      1  0.4463560000000  0.5035870000000  0.4559890000000 1.0
C      1  0.4396620000000  0.5171630000000  0.5282980000000 1.0
C      1  0.4695420000000  0.3995940000000  0.4355500000000 1.0
C      1  0.4664200000000  0.6086070000000  0.4728210000000 1.0
C      1  0.4620070000000  0.4630620000000  0.6147920000000 1.0
C      1  0.4448340000000  0.4429650000000  0.6186190000000 1.0
C      1  0.4536200000000  0.4056970000000  0.4143450000000 1.0
C      1  0.4554030000000  0.6303010000000  0.4836910000000 1.0
C      1  0.4900220000000  0.3699490000000  0.5042640000000 1.0
C      1  0.4807400000000  0.5603260000000  0.3766120000000 1.0
C      1  0.4938440000000  0.5946470000000  0.6051210000000 1.0
C      1  0.5229020000000  0.6215440000000  0.5682070000000 1.0
C      1  0.5048310000000  0.3979780000000  0.5405510000000 1.0
C      1  0.5014630000000  0.5100250000000  0.3773640000000 1.0
C      1  0.4544740000000  0.5676260000000  0.3702810000000 1.0
C      1  0.4659200000000  0.5961330000000  0.6063090000000 1.0
C      1  0.4662940000000  0.3558420000000  0.5088520000000 1.0
C      1  0.5713850000000  0.4256880000000  0.4858470000000 1.0
C      1  0.5663090000000  0.5542710000000  0.4416620000000 1.0
C      1  0.5692080000000  0.5189920000000  0.5794120000000 1.0
C      1  0.4109680000000  0.5748530000000  0.5352840000000 1.0
C      1  0.4025390000000  0.4178840000000  0.5296210000000 1.0
C      1  0.4087510000000  0.4968410000000  0.4021350000000 1.0
C      1  0.5057560000000  0.5327510000000  0.5289480000000 1.0
C      1  0.5153050000000  0.4646460000000  0.5206370000000 1.0
C      1  0.5180970000000  0.5023130000000  0.4608380000000 1.0
C      1  0.5872520000000  0.5298170000000  0.5098930000000 1.0
C      1  0.5932510000000  0.4768820000000  0.5236910000000 1.0
C      1  0.5856260000000  0.4927040000000  0.4703440000000 1.0
C      1  0.5638690000000  0.5815710000000  0.4332890000000 1.0
C      1  0.5588570000000  0.5144080000000  0.6052300000000 1.0
C      1  0.5666500000000  0.4038870000000  0.4678030000000 1.0
C      1  0.4992890000000  0.5778070000000  0.3884520000000 1.0
C      1  0.5077710000000  0.5730920000000  0.6165960000000 1.0
C      1  0.5126050000000  0.3595200000000  0.4912460000000 1.0
C      1  0.4275900000000  0.5617930000000  0.3645720000000 1.0
C      1  0.4389860000000  0.6022320000000  0.6014710000000 1.0
C      1  0.4402790000000  0.3504460000000  0.5181670000000 1.0
C      1  0.4528400000000  0.4473210000000  0.3821900000000 1.0
C      1  0.4694950000000  0.6552060000000  0.5257350000000 1.0
C      1  0.4481610000000  0.4002980000000  0.5921100000000 1.0
C      1  0.5344400000000  0.4835450000000  0.3968190000000 1.0
C      1  0.5534350000000  0.6128150000000  0.5333020000000 1.0
C      1  0.5403140000000  0.4116690000000  0.5699680000000 1.0
C      1  0.4164120000000  0.4797180000000  0.4215930000000 1.0
C      1  0.4132360000000  0.5583460000000  0.5140400000000 1.0
C      1  0.4065210000000  0.4446740000000  0.5299080000000 1.0
C      1  0.5264300000000  0.4745760000000  0.4621200000000 1.0
C      1  0.5087930000000  0.5454980000000  0.5040680000000 1.0
C      1  0.5116850000000  0.4737130000000  0.5474920000000 1.0
C      1  0.4754370000000  0.4903410000000  0.5763330000000 1.0
C      1  0.4977040000000  0.4261220000000  0.4732490000000 1.0
C      1  0.4779540000000  0.5605180000000  0.4703900000000 1.0
C      1  0.5124520000000  0.4665550000000  0.3898620000000 1.0
C      1  0.5305010000000  0.6270720000000  0.5223300000000 1.0
C      1  0.5152750000000  0.4099070000000  0.5850640000000 1.0
C      1  0.4260070000000  0.6205790000000  0.6170650000000 1.0
C      1  0.4327000000000  0.3249850000000  0.5245510000000 1.0
C      1  0.4136450000000  0.5762960000000  0.3461020000000 1.0
C      1  0.5587930000000  0.4122820000000  0.4422220000000 1.0
C      1  0.5788380000000  0.6006040000000  0.4474370000000 1.0
C      1  0.5646010000000  0.4884810000000  0.6147470000000 1.0
C      1  0.5871560000000  0.6024320000000  0.4728410000000 1.0
C      1  0.5726730000000  0.4665890000000  0.6013460000000 1.0
C      1  0.5481990000000  0.4361430000000  0.4368110000000 1.0
C      1  0.5239950000000  0.5523540000000  0.6207790000000 1.0
C      1  0.5376360000000  0.3628660000000  0.4825950000000 1.0
C      1  0.5209300000000  0.5869640000000  0.4011020000000 1.0
C      1  0.5510730000000  0.4784020000000  0.4184570000000 1.0
C      1  0.5734070000000  0.6001340000000  0.5187950000000 1.0
C      1  0.5615030000000  0.4304190000000  0.5718820000000 1.0
C      1  0.5422080000000  0.5311650000000  0.4023060000000 1.0
C      1  0.5499320000000  0.5802240000000  0.5694440000000 1.0
C      1  0.5511100000000  0.4041800000000  0.5232800000000 1.0
C      1  0.5822980000000  0.5591580000000  0.4923160000000 1.0
C      1  0.5810920000000  0.4748910000000  0.5544670000000 1.0
C      1  0.5752720000000  0.4691420000000  0.4604820000000 1.0
C      1  0.5335520000000  0.4006180000000  0.5440780000000 1.0
C      1  0.5281470000000  0.5106900000000  0.3891600000000 1.0
C      1  0.5465600000000  0.6064380000000  0.5606690000000 1.0
C      1  0.4665720000000  0.4694440000000  0.3751820000000 1.0
C      1  0.4908080000000  0.6507670000000  0.5411060000000 1.0
C      1  0.4685520000000  0.3938310000000  0.5762270000000 1.0
C      1  0.5383120000000  0.4495710000000  0.5142380000000 1.0
C      1  0.5343160000000  0.5203190000000  0.4476160000000 1.0
C      1  0.5222210000000  0.5411070000000  0.5499840000000 1.0
C      1  0.5485380000000  0.5357660000000  0.4294240000000 1.0
C      1  0.5386530000000  0.5568550000000  0.5635310000000 1.0
C      1  0.5541460000000  0.4271700000000  0.5080540000000 1.0
C      1  0.4254430000000  0.4605670000000  0.5191020000000 1.0
C      1  0.4313890000000  0.4830050000000  0.4437180000000 1.0
C      1  0.4242150000000  0.5338730000000  0.5117060000000 1.0
C      1  0.4546980000000  0.5525440000000  0.4573400000000 1.0
C      1  0.4503140000000  0.5025580000000  0.5740680000000 1.0
C      1  0.4843060000000  0.4182370000000  0.4975110000000 1.0
C      1  0.4370980000000  0.4113100000000  0.4985270000000 1.0
C      1  0.4235250000000  0.5349770000000  0.4255510000000 1.0
C      1  0.4240380000000  0.5426840000000  0.5674410000000 1.0
C      1  0.4912870000000  0.4826480000000  0.3776500000000 1.0
C      1  0.5139560000000  0.6358710000000  0.5447220000000 1.0
C      1  0.4943310000000  0.3993180000000  0.5675010000000 1.0
C      1  0.5191180000000  0.6182350000000  0.4982350000000 1.0
C      1  0.5091680000000  0.4303400000000  0.6033610000000 1.0
C      1  0.5051330000000  0.4438390000000  0.4042940000000 1.0
C      1  0.4581130000000  0.4300390000000  0.5002160000000 1.0
C      1  0.4407340000000  0.5305860000000  0.4472250000000 1.0
C      1  0.4360020000000  0.5195550000000  0.5569640000000 1.0
C      1  0.4676300000000  0.4819840000000  0.4995500000000 1.0
C      1  0.4683420000000  0.4981240000000  0.4732320000000 1.0
C      1  0.4636900000000  0.5047740000000  0.5194070000000 1.0
C      1  0.5094820000000  0.5932600000000  0.4897750000000 1.0
C      1  0.5059910000000  0.4567430000000  0.5941940000000 1.0
C      1  0.4919370000000  0.4399510000000  0.4283430000000 1.0
C      1  0.5077530000000  0.6140180000000  0.5902680000000 1.0
C      1  0.4926130000000  0.3965850000000  0.5148430000000 1.0
C      1  0.4881140000000  0.5336740000000  0.3719720000000 1.0
C      1  0.5792660000000  0.5456840000000  0.4656610000000 1.0
C      1  0.5773820000000  0.5055880000000  0.5567640000000 1.0
C      1  0.5848440000000  0.4496280000000  0.4802260000000 1.0
END
