TITL C-3623282-6910-1359 -7.18514608586382 125000 -1139.61315628635 0 0 187 (C1) n - 1
REM
REM in /home/nfs/bkarasulu/CARBON/AIRSS/Generating-Clusters/LCBOP/Higher-Symm/SD-CG/FIRE-CG
REM
REM
REM
REM
REM
REM ./C.cell (b20cbc046b6831c77cfcea5457e17084)
REM AIRSS Version 0.9.1 bugfix July 2018 build 013d7b7c2542+ Fri, 06 Jul 2018 19:26:36 +0100
REM compiler GCC version 9.2.1 20190827 (Red Hat 9.2.1-1)
REM options -cpp -mtune=generic -march=x86-64 -g -O0 -fpre-include=/usr/include/finclude/math-vector-fortran.h
REM seed 56583036 1230988116 188431664 -715523376 -6167179 888943605 1950507826 366494202 -1567551540 -459783919 -1923696373 -2097920785 -1050936708 981544768 616074986 1832577102 1554259294 -752914195 163005700 -2042853835 -1954370987 -1627294323 -760597350 1836037985 40398782 53988887 -2019986302 1130892374 -2094613221 -1779415793 1203991220 250875181 983335128
REM
CELL 1.54180   50.00000   50.00000   50.00000   90.00000   90.00000   90.00000
LATT -1
SFAC C  
C      1  0.5250280000000  0.5864510000000  0.6177340000000 1.0
C      1  0.4544590000000  0.5569930000000  0.4083000000000 1.0
C      1  0.5351790000000  0.4283890000000  0.5909940000000 1.0
C      1  0.4564840000000  0.4475340000000  0.4078420000000 1.0
C      1  0.5065060000000  0.5276540000000  0.4060780000000 1.0
C      1  0.5063130000000  0.5223020000000  0.5957080000000 1.0
C      1  0.5065510000000  0.4793300000000  0.4074360000000 1.0
C      1  0.5004990000000  0.4789580000000  0.5630290000000 1.0
C      1  0.4711670000000  0.4534300000000  0.5067820000000 1.0
C      1  0.4974860000000  0.4633180000000  0.5103900000000 1.0
C      1  0.4928310000000  0.5474320000000  0.5047200000000 1.0
C      1  0.5208250000000  0.5492920000000  0.5009800000000 1.0
C      1  0.5158070000000  0.4526870000000  0.4923280000000 1.0
C      1  0.4680830000000  0.4371820000000  0.5295130000000 1.0
C      1  0.5286580000000  0.5671600000000  0.4819090000000 1.0
C      1  0.4865060000000  0.5591700000000  0.5295410000000 1.0
C      1  0.4245140000000  0.5521940000000  0.5765130000000 1.0
C      1  0.5779750000000  0.5514900000000  0.4263980000000 1.0
C      1  0.4195290000000  0.4512890000000  0.5781880000000 1.0
C      1  0.5779860000000  0.4520470000000  0.4251680000000 1.0
C      1  0.5280780000000  0.5170110000000  0.3902300000000 1.0
C      1  0.4800070000000  0.5134370000000  0.5984800000000 1.0
C      1  0.5276630000000  0.4886930000000  0.3903990000000 1.0
C      1  0.4769450000000  0.4863510000000  0.5897330000000 1.0
C      1  0.5142370000000  0.5522610000000  0.4178280000000 1.0
C      1  0.4859630000000  0.5480970000000  0.5559970000000 1.0
C      1  0.5155540000000  0.4573450000000  0.4226100000000 1.0
C      1  0.4670850000000  0.4396940000000  0.5784510000000 1.0
C      1  0.5840560000000  0.5494620000000  0.4734310000000 1.0
C      1  0.4081250000000  0.5230950000000  0.5423790000000 1.0
C      1  0.5888290000000  0.4820260000000  0.4606940000000 1.0
C      1  0.4082260000000  0.4543790000000  0.5331440000000 1.0
C      1  0.4487960000000  0.5839980000000  0.4160590000000 1.0
C      1  0.5305030000000  0.6055410000000  0.5991000000000 1.0
C      1  0.4519790000000  0.4203650000000  0.4161400000000 1.0
C      1  0.5354660000000  0.4000750000000  0.5929070000000 1.0
C      1  0.4818450000000  0.4893130000000  0.4181330000000 1.0
C      1  0.5258190000000  0.4883970000000  0.5714550000000 1.0
C      1  0.4820290000000  0.5173750000000  0.4184770000000 1.0
C      1  0.5256510000000  0.5154220000000  0.5767840000000 1.0
C      1  0.5367100000000  0.5205190000000  0.4507180000000 1.0
C      1  0.4579600000000  0.5037910000000  0.5463440000000 1.0
C      1  0.5378930000000  0.4936630000000  0.4510780000000 1.0
C      1  0.4547510000000  0.4777040000000  0.5485830000000 1.0
C      1  0.5518730000000  0.4728230000000  0.5740970000000 1.0
C      1  0.4579370000000  0.4703490000000  0.4301330000000 1.0
C      1  0.5569550000000  0.5326320000000  0.5733000000000 1.0
C      1  0.4603350000000  0.5368550000000  0.4319520000000 1.0
C      1  0.5323020000000  0.5994630000000  0.5257480000000 1.0
C      1  0.4726780000000  0.5974720000000  0.4786220000000 1.0
C      1  0.5306780000000  0.4106780000000  0.5294700000000 1.0
C      1  0.4708670000000  0.4080510000000  0.4827890000000 1.0
C      1  0.6297380000000  0.4205360000000  0.5023620000000 1.0
C      1  0.3167890000000  0.4403990000000  0.4699670000000 1.0
C      1  0.6975140000000  0.5417870000000  0.5285740000000 1.0
C      1  0.3539920000000  0.5602390000000  0.4602070000000 1.0
C      1  0.5362500000000  0.4214050000000  0.4614520000000 1.0
C      1  0.4557590000000  0.3991020000000  0.5506570000000 1.0
C      1  0.5361340000000  0.5999510000000  0.4493020000000 1.0
C      1  0.4562440000000  0.5908220000000  0.5423520000000 1.0
C      1  0.4751790000000  0.4761030000000  0.2980230000000 1.0
C      1  0.5620350000000  0.5162820000000  0.6042390000000 1.0
C      1  0.4764790000000  0.4805720000000  0.3236660000000 1.0
C      1  0.5606410000000  0.4833290000000  0.6016620000000 1.0
C      1  0.5352510000000  0.4850780000000  0.6237020000000 1.0
C      1  0.4779650000000  0.4854190000000  0.3512550000000 1.0
C      1  0.5388610000000  0.5172320000000  0.6253290000000 1.0
C      1  0.4760770000000  0.5124680000000  0.3598290000000 1.0
C      1  0.4296750000000  0.4891210000000  0.6045880000000 1.0
C      1  0.5771540000000  0.4871220000000  0.3919370000000 1.0
C      1  0.4307990000000  0.5168660000000  0.6080350000000 1.0
C      1  0.5763170000000  0.5150710000000  0.3956730000000 1.0
C      1  0.4537710000000  0.4739320000000  0.6028380000000 1.0
C      1  0.5518940000000  0.4727050000000  0.3889720000000 1.0
C      1  0.4569690000000  0.5298420000000  0.6050600000000 1.0
C      1  0.5531830000000  0.5313380000000  0.3896240000000 1.0
C      1  0.4728150000000  0.5816930000000  0.4554220000000 1.0
C      1  0.5387660000000  0.5847570000000  0.5525240000000 1.0
C      1  0.4672080000000  0.4235410000000  0.4592230000000 1.0
C      1  0.5449660000000  0.4335210000000  0.5428140000000 1.0
C      1  0.5038260000000  0.6015970000000  0.5162600000000 1.0
C      1  0.4993020000000  0.6037310000000  0.4877450000000 1.0
C      1  0.5026780000000  0.4053540000000  0.5219100000000 1.0
C      1  0.4979690000000  0.4083910000000  0.4931000000000 1.0
C      1  0.5283550000000  0.4918820000000  0.5253710000000 1.0
C      1  0.4545900000000  0.4925640000000  0.4853450000000 1.0
C      1  0.5428650000000  0.5131320000000  0.5196460000000 1.0
C      1  0.4758330000000  0.5102460000000  0.4806240000000 1.0
C      1  0.6555610000000  0.5081640000000  0.5280460000000 1.0
C      1  0.3915780000000  0.5198910000000  0.4687180000000 1.0
C      1  0.6097710000000  0.4678270000000  0.5241790000000 1.0
C      1  0.3687520000000  0.4587550000000  0.4774140000000 1.0
C      1  0.5122900000000  0.3857690000000  0.5934710000000 1.0
C      1  0.4723800000000  0.4109880000000  0.4342120000000 1.0
C      1  0.5197320000000  0.6008240000000  0.5731270000000 1.0
C      1  0.4709550000000  0.5950690000000  0.4304220000000 1.0
C      1  0.3864750000000  0.5069040000000  0.4964440000000 1.0
C      1  0.6379640000000  0.5050160000000  0.5061350000000 1.0
C      1  0.3688260000000  0.4838380000000  0.4951570000000 1.0
C      1  0.6139560000000  0.4898610000000  0.5033810000000 1.0
C      1  0.4643320000000  0.4517390000000  0.5527710000000 1.0
C      1  0.5298460000000  0.4687570000000  0.4441640000000 1.0
C      1  0.4708790000000  0.5248410000000  0.5554790000000 1.0
C      1  0.5282770000000  0.5443650000000  0.4410610000000 1.0
C      1  0.4296040000000  0.4112410000000  0.5421190000000 1.0
C      1  0.5621870000000  0.4338110000000  0.4704370000000 1.0
C      1  0.4346560000000  0.5720900000000  0.5319540000000 1.0
C      1  0.5635820000000  0.5917590000000  0.4577050000000 1.0
C      1  0.4658260000000  0.6011730000000  0.5673960000000 1.0
C      1  0.5203990000000  0.6069820000000  0.4268900000000 1.0
C      1  0.4649570000000  0.3882630000000  0.5752400000000 1.0
C      1  0.5243720000000  0.4073330000000  0.4394620000000 1.0
C      1  0.4332570000000  0.5731760000000  0.5028170000000 1.0
C      1  0.5681860000000  0.6018780000000  0.4847240000000 1.0
C      1  0.4249510000000  0.4076720000000  0.5129330000000 1.0
C      1  0.5654830000000  0.4282650000000  0.4991030000000 1.0
C      1  0.5462710000000  0.4433900000000  0.5696820000000 1.0
C      1  0.4605150000000  0.4520230000000  0.4585510000000 1.0
C      1  0.5383660000000  0.5528230000000  0.5459070000000 1.0
C      1  0.4716000000000  0.5528020000000  0.4572320000000 1.0
C      1  0.4258230000000  0.5521630000000  0.4848190000000 1.0
C      1  0.5650990000000  0.5834210000000  0.5687700000000 1.0
C      1  0.4022560000000  0.4185650000000  0.4997540000000 1.0
C      1  0.5647930000000  0.4450140000000  0.5235810000000 1.0
C      1  0.4447020000000  0.4483010000000  0.5931780000000 1.0
C      1  0.5575320000000  0.4480750000000  0.4046630000000 1.0
C      1  0.4490320000000  0.5548670000000  0.5918650000000 1.0
C      1  0.5604410000000  0.5560890000000  0.4033650000000 1.0
C      1  0.5508350000000  0.4040280000000  0.5086730000000 1.0
C      1  0.4473510000000  0.4001970000000  0.4967050000000 1.0
C      1  0.5545520000000  0.6049250000000  0.5081260000000 1.0
C      1  0.4479470000000  0.5953770000000  0.4920810000000 1.0
C      1  0.6483040000000  0.4914120000000  0.5496490000000 1.0
C      1  0.3873380000000  0.4967490000000  0.4493250000000 1.0
C      1  0.6275940000000  0.4740750000000  0.5480380000000 1.0
C      1  0.3799020000000  0.4708820000000  0.4519830000000 1.0
C      1  0.4962010000000  0.5961690000000  0.4160940000000 1.0
C      1  0.4920460000000  0.5924800000000  0.5748950000000 1.0
C      1  0.4999810000000  0.4126700000000  0.4248710000000 1.0
C      1  0.4869610000000  0.3980900000000  0.5905480000000 1.0
C      1  0.5202620000000  0.5921190000000  0.4720740000000 1.0
C      1  0.4820360000000  0.5871060000000  0.5283280000000 1.0
C      1  0.5161490000000  0.4269980000000  0.4810660000000 1.0
C      1  0.4776510000000  0.4106490000000  0.5347850000000 1.0
C      1  0.4034740000000  0.5060950000000  0.5194600000000 1.0
C      1  0.5874280000000  0.5249550000000  0.4836600000000 1.0
C      1  0.4111840000000  0.4791160000000  0.5239170000000 1.0
C      1  0.5947870000000  0.4975090000000  0.4839540000000 1.0
C      1  0.5918240000000  0.4758910000000  0.4145570000000 1.0
C      1  0.4113110000000  0.4809020000000  0.5818310000000 1.0
C      1  0.5878540000000  0.5230410000000  0.4228380000000 1.0
C      1  0.4121040000000  0.5288430000000  0.5891140000000 1.0
C      1  0.4575830000000  0.4644180000000  0.4843320000000 1.0
C      1  0.5051940000000  0.4774610000000  0.5335680000000 1.0
C      1  0.4774420000000  0.5383970000000  0.4821520000000 1.0
C      1  0.5367080000000  0.5400550000000  0.5221130000000 1.0
C      1  0.4213590000000  0.5508120000000  0.5473110000000 1.0
C      1  0.5764680000000  0.5658450000000  0.4512770000000 1.0
C      1  0.4168970000000  0.4362270000000  0.5532630000000 1.0
C      1  0.5770900000000  0.4538800000000  0.4548740000000 1.0
C      1  0.4807470000000  0.4463380000000  0.3911710000000 1.0
C      1  0.5117350000000  0.4402770000000  0.6035100000000 1.0
C      1  0.4764180000000  0.5578000000000  0.3886150000000 1.0
C      1  0.5120500000000  0.5626220000000  0.6108960000000 1.0
C      1  0.5711050000000  0.5586130000000  0.5797880000000 1.0
C      1  0.4196910000000  0.5315100000000  0.4655120000000 1.0
C      1  0.5809870000000  0.4666320000000  0.5330000000000 1.0
C      1  0.3863880000000  0.4367390000000  0.4879800000000 1.0
C      1  0.4365370000000  0.5206740000000  0.4436360000000 1.0
C      1  0.5730450000000  0.5130130000000  0.5562610000000 1.0
C      1  0.4369410000000  0.4926210000000  0.4357980000000 1.0
C      1  0.5713420000000  0.4843450000000  0.5535850000000 1.0
C      1  0.6771780000000  0.5254900000000  0.5283170000000 1.0
C      1  0.3713440000000  0.5411730000000  0.4639030000000 1.0
C      1  0.6187160000000  0.4417920000000  0.5126210000000 1.0
C      1  0.3411500000000  0.4489370000000  0.4734460000000 1.0
C      1  0.4813050000000  0.4628760000000  0.3682460000000 1.0
C      1  0.5173700000000  0.4631260000000  0.6203350000000 1.0
C      1  0.4764310000000  0.5380960000000  0.3682100000000 1.0
C      1  0.5182070000000  0.5360610000000  0.6177810000000 1.0
C      1  0.5027130000000  0.4358310000000  0.4084810000000 1.0
C      1  0.4876690000000  0.4271610000000  0.5931410000000 1.0
C      1  0.4994680000000  0.5713100000000  0.4022190000000 1.0
C      1  0.4941610000000  0.5640680000000  0.5798120000000 1.0
C      1  0.4045030000000  0.5081910000000  0.5690030000000 1.0
C      1  0.5944020000000  0.4966910000000  0.4352310000000 1.0
C      1  0.4993280000000  0.4981370000000  0.4740390000000 1.0
END
