TITL C-3623289-7120-1972 20.9193316638043 125000 -918.953319300903 0 0 155 (C5) n - 1
REM
REM in /home/nfs/bkarasulu/CARBON/AIRSS/Generating-Clusters/LCBOP/Higher-Symm/SD-CG/FIRE-CG
REM
REM
REM
REM
REM
REM ./C.cell (b20cbc046b6831c77cfcea5457e17084)
REM AIRSS Version 0.9.1 bugfix July 2018 build 013d7b7c2542+ Fri, 06 Jul 2018 19:26:36 +0100
REM compiler GCC version 9.2.1 20190827 (Red Hat 9.2.1-1)
REM options -cpp -mtune=generic -march=x86-64 -g -O0 -fpre-include=/usr/include/finclude/math-vector-fortran.h
REM seed 1364063003 274070140 264172421 -1048577892 -938348196 1562556410 2021612253 431276042 14254505 -806780714 -1553713156 566612792 51351831 1466732334 -134925157 486170706 547020870 -744066029 2023124308 -1153250093 1860792795 1527892096 -496677286 304208035 1039745018 -458923273 -1354398709 1415203753 -188781443 -1911450088 -1536343124 -138050834 399358872
REM
CELL 1.54180   50.00000   50.00000   50.00000   90.00000   90.00000   90.00000
LATT -1
SFAC C  
C      1  0.6094710000000  0.5650520000000  0.4882030000000 1.0
C      1  0.6094670000000  0.5313200000000  0.5582300000000 1.0
C      1  0.6094640000000  0.4542970000000  0.5477890000000 1.0
C      1  0.6094650000000  0.4404260000000  0.4713090000000 1.0
C      1  0.6094700000000  0.5088760000000  0.4344830000000 1.0
C      1  0.4837250000000  0.5227920000000  0.4932760000000 1.0
C      1  0.4837230000000  0.5134380000000  0.5195980000000 1.0
C      1  0.4837220000000  0.4855140000000  0.5188350000000 1.0
C      1  0.4837220000000  0.4776100000000  0.4920420000000 1.0
C      1  0.4837240000000  0.5006490000000  0.4762460000000 1.0
C      1  0.4968580000000  0.6285700000000  0.4382390000000 1.0
C      1  0.4968520000000  0.5984680000000  0.6031920000000 1.0
C      1  0.4968420000000  0.4322870000000  0.6255370000000 1.0
C      1  0.4968430000000  0.3596830000000  0.4743940000000 1.0
C      1  0.4968530000000  0.4809930000000  0.3586370000000 1.0
C      1  0.4426200000000  0.4820940000000  0.4791400000000 1.0
C      1  0.4426210000000  0.5143060000000  0.4765200000000 1.0
C      1  0.4426210000000  0.5267520000000  0.5063460000000 1.0
C      1  0.4426190000000  0.5022320000000  0.5274000000000 1.0
C      1  0.4426180000000  0.4746320000000  0.5105860000000 1.0
C      1  0.4836710000000  0.4534990000000  0.4544750000000 1.0
C      1  0.4836750000000  0.5289270000000  0.4417060000000 1.0
C      1  0.4836750000000  0.5643800000000  0.5094970000000 1.0
C      1  0.4836710000000  0.5108630000000  0.5641620000000 1.0
C      1  0.4836680000000  0.4423350000000  0.5301570000000 1.0
C      1  0.4639570000000  0.5357260000000  0.5967550000000 1.0
C      1  0.4639520000000  0.4190210000000  0.5638740000000 1.0
C      1  0.4639550000000  0.4142290000000  0.4427200000000 1.0
C      1  0.4639620000000  0.5279720000000  0.4007240000000 1.0
C      1  0.4639630000000  0.6030610000000  0.4959220000000 1.0
C      1  0.5270620000000  0.4482480000000  0.5109890000000 1.0
C      1  0.5270650000000  0.4735570000000  0.4541790000000 1.0
C      1  0.5270680000000  0.5354070000000  0.4606930000000 1.0
C      1  0.5270670000000  0.5483240000000  0.5215290000000 1.0
C      1  0.5270630000000  0.4944570000000  0.5526140000000 1.0
C      1  0.4721180000000  0.4246140000000  0.6147020000000 1.0
C      1  0.4721190000000  0.3676170000000  0.4637470000000 1.0
C      1  0.4721290000000  0.4935700000000  0.3628920000000 1.0
C      1  0.4721330000000  0.6284110000000  0.4515140000000 1.0
C      1  0.4721270000000  0.5857940000000  0.6071420000000 1.0
C      1  0.5343700000000  0.4752420000000  0.5054520000000 1.0
C      1  0.5343720000000  0.4871640000000  0.4781400000000 1.0
C      1  0.5343730000000  0.5168230000000  0.4810400000000 1.0
C      1  0.5343730000000  0.5232310000000  0.5101430000000 1.0
C      1  0.5343710000000  0.4975320000000  0.5252300000000 1.0
C      1  0.4912230000000  0.5933610000000  0.5058380000000 1.0
C      1  0.4912170000000  0.5232980000000  0.5905950000000 1.0
C      1  0.4912130000000  0.4210380000000  0.5501530000000 1.0
C      1  0.4912170000000  0.4279010000000  0.4404000000000 1.0
C      1  0.4912230000000  0.5344030000000  0.4130120000000 1.0
C      1  0.4532190000000  0.4615210000000  0.4535030000000 1.0
C      1  0.4532230000000  0.5323310000000  0.4490330000000 1.0
C      1  0.4532220000000  0.5584630000000  0.5149960000000 1.0
C      1  0.4532180000000  0.5038050000000  0.5602330000000 1.0
C      1  0.4532160000000  0.4438920000000  0.5222290000000 1.0
C      1  0.3948130000000  0.4578220000000  0.5029920000000 1.0
C      1  0.3948160000000  0.4841220000000  0.4608040000000 1.0
C      1  0.3948180000000  0.5323720000000  0.4727790000000 1.0
C      1  0.3948170000000  0.5358930000000  0.5223680000000 1.0
C      1  0.3948140000000  0.4898190000000  0.5410410000000 1.0
C      1  0.5339200000000  0.5948180000000  0.4504480000000 1.0
C      1  0.5339160000000  0.5764270000000  0.5748680000000 1.0
C      1  0.5339090000000  0.4524140000000  0.5958240000000 1.0
C      1  0.5339090000000  0.3941610000000  0.4843560000000 1.0
C      1  0.5339160000000  0.4821720000000  0.3945090000000 1.0
C      1  0.5371390000000  0.4532240000000  0.4359230000000 1.0
C      1  0.5371440000000  0.5464860000000  0.4357150000000 1.0
C      1  0.5371430000000  0.5755030000000  0.5243480000000 1.0
C      1  0.5371380000000  0.5001750000000  0.5793350000000 1.0
C      1  0.5371350000000  0.4246020000000  0.5246850000000 1.0
C      1  0.4672630000000  0.5016820000000  0.3892580000000 1.0
C      1  0.4672660000000  0.6058420000000  0.4673760000000 1.0
C      1  0.4672600000000  0.5637340000000  0.5905780000000 1.0
C      1  0.4672540000000  0.4335500000000  0.5886030000000 1.0
C      1  0.4672550000000  0.3952000000000  0.4641800000000 1.0
C      1  0.4541400000000  0.4974780000000  0.3427920000000 1.0
C      1  0.4541450000000  0.6487350000000  0.4490180000000 1.0
C      1  0.4541370000000  0.5944480000000  0.6256980000000 1.0
C      1  0.4541270000000  0.4096410000000  0.6286650000000 1.0
C      1  0.4541290000000  0.3497100000000  0.4538200000000 1.0
C      1  0.4688830000000  0.5634540000000  0.5622840000000 1.0
C      1  0.4688770000000  0.4603730000000  0.5795930000000 1.0
C      1  0.4688770000000  0.4120570000000  0.4869060000000 1.0
C      1  0.4688830000000  0.4852780000000  0.4123130000000 1.0
C      1  0.4688860000000  0.5788460000000  0.4588990000000 1.0
C      1  0.4406500000000  0.5241320000000  0.5795790000000 1.0
C      1  0.4406460000000  0.4317730000000  0.5475380000000 1.0
C      1  0.4406490000000  0.4337060000000  0.4497980000000 1.0
C      1  0.4406550000000  0.5272590000000  0.4214330000000 1.0
C      1  0.4406550000000  0.5831450000000  0.5016420000000 1.0
C      1  0.6326810000000  0.4334530000000  0.4617460000000 1.0
C      1  0.6326870000000  0.5158170000000  0.4248980000000 1.0
C      1  0.6326880000000  0.5763130000000  0.4918440000000 1.0
C      1  0.6326830000000  0.5313380000000  0.5700660000000 1.0
C      1  0.6326790000000  0.4430460000000  0.5514650000000 1.0
C      1  0.5843980000000  0.5008670000000  0.4748150000000 1.0
C      1  0.5843990000000  0.5242190000000  0.4930480000000 1.0
C      1  0.5843970000000  0.5140950000000  0.5208910000000 1.0
C      1  0.5843960000000  0.4844860000000  0.5198670000000 1.0
C      1  0.5843960000000  0.4763110000000  0.4913910000000 1.0
C      1  0.5381140000000  0.4376490000000  0.5708810000000 1.0
C      1  0.5381160000000  0.4133200000000  0.4626070000000 1.0
C      1  0.5381220000000  0.5087770000000  0.4060100000000 1.0
C      1  0.5381240000000  0.5921020000000  0.4793050000000 1.0
C      1  0.5381190000000  0.5481430000000  0.5812010000000 1.0
C      1  0.4500400000000  0.4780430000000  0.5736540000000 1.0
C      1  0.4500390000000  0.4231660000000  0.5018740000000 1.0
C      1  0.4500440000000  0.4744750000000  0.4275020000000 1.0
C      1  0.4500480000000  0.5610620000000  0.4533180000000 1.0
C      1  0.4500450000000  0.5632670000000  0.5436440000000 1.0
C      1  0.5002670000000  0.5451590000000  0.4600250000000 1.0
C      1  0.5002660000000  0.5519740000000  0.5305950000000 1.0
C      1  0.5002610000000  0.4869630000000  0.5588840000000 1.0
C      1  0.5002610000000  0.4399690000000  0.5057970000000 1.0
C      1  0.5002640000000  0.4759360000000  0.4446990000000 1.0
C      1  0.5231360000000  0.5323220000000  0.4132350000000 1.0
C      1  0.5231370000000  0.5925060000000  0.5039300000000 1.0
C      1  0.5231310000000  0.5248480000000  0.5891940000000 1.0
C      1  0.5231270000000  0.4228490000000  0.5511960000000 1.0
C      1  0.5231300000000  0.4274690000000  0.4424470000000 1.0
C      1  0.3992030000000  0.4588620000000  0.4744180000000 1.0
C      1  0.3992060000000  0.5116180000000  0.4529640000000 1.0
C      1  0.3992070000000  0.5483250000000  0.4965080000000 1.0
C      1  0.3992040000000  0.5182560000000  0.5448740000000 1.0
C      1  0.3992010000000  0.4629640000000  0.5312220000000 1.0
C      1  0.5633670000000  0.4600640000000  0.5588130000000 1.0
C      1  0.5633670000000  0.4317240000000  0.4801970000000 1.0
C      1  0.5633720000000  0.4977350000000  0.4289500000000 1.0
C      1  0.5633750000000  0.5668720000000  0.4758940000000 1.0
C      1  0.5633710000000  0.5435900000000  0.5561540000000 1.0
C      1  0.5847780000000  0.4665330000000  0.5422170000000 1.0
C      1  0.5847790000000  0.4495070000000  0.4812220000000 1.0
C      1  0.5847830000000  0.5022550000000  0.4461810000000 1.0
C      1  0.5847840000000  0.5518810000000  0.4855190000000 1.0
C      1  0.5847810000000  0.5298030000000  0.5448730000000 1.0
C      1  0.4137880000000  0.5181750000000  0.4284260000000 1.0
C      1  0.4137890000000  0.5736880000000  0.4951620000000 1.0
C      1  0.4137850000000  0.5273730000000  0.5685810000000 1.0
C      1  0.4137810000000  0.4432350000000  0.5472200000000 1.0
C      1  0.4137830000000  0.4375500000000  0.4605990000000 1.0
C      1  0.4870790000000  0.5499810000000  0.4838400000000 1.0
C      1  0.4870770000000  0.5308140000000  0.5425400000000 1.0
C      1  0.4870740000000  0.4690650000000  0.5424510000000 1.0
C      1  0.4870740000000  0.4500680000000  0.4836960000000 1.0
C      1  0.4870780000000  0.5000760000000  0.4474720000000 1.0
C      1  0.5485950000000  0.4669610000000  0.4141840000000 1.0
C      1  0.5486000000000  0.5714060000000  0.4420630000000 1.0
C      1  0.5485970000000  0.5771670000000  0.5500110000000 1.0
C      1  0.5485910000000  0.4762820000000  0.5888470000000 1.0
C      1  0.5485900000000  0.4081710000000  0.5049020000000 1.0
C      1  0.5194640000000  0.5945800000000  0.5896600000000 1.0
C      1  0.5194560000000  0.4439550000000  0.6176590000000 1.0
C      1  0.5194560000000  0.3707810000000  0.4830580000000 1.0
C      1  0.5194640000000  0.4761820000000  0.3718710000000 1.0
C      1  0.5194700000000  0.6144980000000  0.4377550000000 1.0
END
