TITL C-3623284-6838-1340 3.4473325211976e-06 125000 -1143.19821334941 0 0 186 (C1) n - 1
REM
REM in /home/nfs/bkarasulu/CARBON/AIRSS/Generating-Clusters/LCBOP/Higher-Symm/SD-CG/FIRE-CG
REM
REM
REM
REM
REM
REM ./C.cell (b20cbc046b6831c77cfcea5457e17084)
REM AIRSS Version 0.9.1 bugfix July 2018 build 013d7b7c2542+ Fri, 06 Jul 2018 19:26:36 +0100
REM compiler GCC version 9.2.1 20190827 (Red Hat 9.2.1-1)
REM options -cpp -mtune=generic -march=x86-64 -g -O0 -fpre-include=/usr/include/finclude/math-vector-fortran.h
REM seed 905855330 1763039822 1367890280 -1313748516 -1258690579 790392766 -909303753 547892411 -330792542 -1387810316 123887914 -489255890 175268390 1582966750 -1172281287 1331189982 555066008 1473233010 2040675926 331566200 -1580739508 17710430 -986749522 -1191340985 883261241 426920199 873261964 30754002 -587720802 1095293733 446267230 -1850337705 89874770
REM
CELL 1.54180   50.00000   50.00000   50.00000   90.00000   90.00000   90.00000
LATT -1
SFAC C  
C      1  0.5630100000000  0.5279100000000  0.5563770000000 1.0
C      1  0.4791160000000  0.5505360000000  0.4560810000000 1.0
C      1  0.4373660000000  0.4730710000000  0.5543150000000 1.0
C      1  0.5250670000000  0.4483430000000  0.4478320000000 1.0
C      1  0.5235880000000  0.4761720000000  0.4619250000000 1.0
C      1  0.5230930000000  0.5135790000000  0.5216270000000 1.0
C      1  0.4901890000000  0.5132530000000  0.4816550000000 1.0
C      1  0.4845480000000  0.4879440000000  0.5220290000000 1.0
C      1  0.5041450000000  0.5623770000000  0.5837520000000 1.0
C      1  0.4366370000000  0.5067410000000  0.4149450000000 1.0
C      1  0.4989050000000  0.4383910000000  0.5812420000000 1.0
C      1  0.5578950000000  0.4947420000000  0.4233780000000 1.0
C      1  0.5136950000000  0.4865380000000  0.5286560000000 1.0
C      1  0.5112840000000  0.5257590000000  0.4686960000000 1.0
C      1  0.4772280000000  0.5122210000000  0.5356120000000 1.0
C      1  0.4908740000000  0.4858300000000  0.4684640000000 1.0
C      1  0.5152670000000  0.5747860000000  0.4035430000000 1.0
C      1  0.4203800000000  0.5230990000000  0.5958060000000 1.0
C      1  0.4794070000000  0.4240310000000  0.4024630000000 1.0
C      1  0.5796490000000  0.4767800000000  0.5983130000000 1.0
C      1  0.5511960000000  0.5697430000000  0.5851740000000 1.0
C      1  0.4455820000000  0.5529280000000  0.4248390000000 1.0
C      1  0.4517100000000  0.4323350000000  0.5835020000000 1.0
C      1  0.5672510000000  0.4494490000000  0.4163290000000 1.0
C      1  0.5306260000000  0.4709110000000  0.6024630000000 1.0
C      1  0.5294480000000  0.5291630000000  0.3969040000000 1.0
C      1  0.4698620000000  0.5297180000000  0.6016170000000 1.0
C      1  0.4702300000000  0.4719010000000  0.3974230000000 1.0
C      1  0.4653610000000  0.5830390000000  0.4265000000000 1.0
C      1  0.3836440000000  0.4990280000000  0.5657710000000 1.0
C      1  0.5050890000000  0.3913710000000  0.4333220000000 1.0
C      1  0.6132410000000  0.5021830000000  0.5668930000000 1.0
C      1  0.6311870000000  0.4604850000000  0.5363960000000 1.0
C      1  0.5330890000000  0.6273200000000  0.4608920000000 1.0
C      1  0.3678460000000  0.5414410000000  0.5344940000000 1.0
C      1  0.4611320000000  0.3705550000000  0.4616320000000 1.0
C      1  0.3905170000000  0.4851470000000  0.4667720000000 1.0
C      1  0.5194260000000  0.3899330000000  0.5291360000000 1.0
C      1  0.6080170000000  0.5166980000000  0.4694000000000 1.0
C      1  0.4821660000000  0.6128060000000  0.5283750000000 1.0
C      1  0.6182910000000  0.5305830000000  0.4931080000000 1.0
C      1  0.4684400000000  0.6180190000000  0.5022130000000 1.0
C      1  0.3810850000000  0.4715690000000  0.4913820000000 1.0
C      1  0.5326220000000  0.3796580000000  0.5052200000000 1.0
C      1  0.4317480000000  0.5131830000000  0.5307780000000 1.0
C      1  0.4846960000000  0.4386580000000  0.4694530000000 1.0
C      1  0.5626710000000  0.4857730000000  0.5346180000000 1.0
C      1  0.5156960000000  0.5690170000000  0.4728710000000 1.0
C      1  0.5653020000000  0.4719290000000  0.4853090000000 1.0
C      1  0.5280180000000  0.5622800000000  0.5214580000000 1.0
C      1  0.4376450000000  0.5249920000000  0.4821790000000 1.0
C      1  0.4762240000000  0.4395490000000  0.5190990000000 1.0
C      1  0.5285210000000  0.5972350000000  0.5519300000000 1.0
C      1  0.4064280000000  0.5324320000000  0.4472570000000 1.0
C      1  0.4738580000000  0.4054910000000  0.5501720000000 1.0
C      1  0.5944640000000  0.4708200000000  0.4493990000000 1.0
C      1  0.5415210000000  0.4993690000000  0.4485110000000 1.0
C      1  0.4922310000000  0.5505100000000  0.5607040000000 1.0
C      1  0.4536340000000  0.5041320000000  0.4408620000000 1.0
C      1  0.5113510000000  0.4510580000000  0.5591180000000 1.0
C      1  0.4996030000000  0.4780230000000  0.4019730000000 1.0
C      1  0.5242450000000  0.5004210000000  0.5983050000000 1.0
C      1  0.4998210000000  0.5241810000000  0.3987960000000 1.0
C      1  0.4771470000000  0.5004510000000  0.5968420000000 1.0
C      1  0.5188200000000  0.5251900000000  0.6130740000000 1.0
C      1  0.4744400000000  0.5194670000000  0.3852850000000 1.0
C      1  0.4815370000000  0.4748030000000  0.6103720000000 1.0
C      1  0.5257050000000  0.4807730000000  0.3894180000000 1.0
C      1  0.5481400000000  0.5827390000000  0.5300080000000 1.0
C      1  0.4208470000000  0.5476320000000  0.4716850000000 1.0
C      1  0.4554420000000  0.4198790000000  0.5283570000000 1.0
C      1  0.5820810000000  0.4512360000000  0.4713060000000 1.0
C      1  0.5507820000000  0.6045990000000  0.5090790000000 1.0
C      1  0.3972250000000  0.5525680000000  0.4894650000000 1.0
C      1  0.4512970000000  0.3979890000000  0.5083840000000 1.0
C      1  0.6055180000000  0.4468150000000  0.4894790000000 1.0
C      1  0.4136960000000  0.4720050000000  0.4530470000000 1.0
C      1  0.5331420000000  0.4123220000000  0.5428370000000 1.0
C      1  0.5836350000000  0.5285670000000  0.4564070000000 1.0
C      1  0.4699870000000  0.5916040000000  0.5453270000000 1.0
C      1  0.6017780000000  0.4331070000000  0.5140680000000 1.0
C      1  0.5636950000000  0.6007910000000  0.4840460000000 1.0
C      1  0.3997500000000  0.5665380000000  0.5138250000000 1.0
C      1  0.4371110000000  0.4023200000000  0.4843210000000 1.0
C      1  0.4670520000000  0.4664140000000  0.5103440000000 1.0
C      1  0.5388590000000  0.4643200000000  0.4921700000000 1.0
C      1  0.5376620000000  0.5370820000000  0.5110230000000 1.0
C      1  0.4633530000000  0.5321310000000  0.4951930000000 1.0
C      1  0.6383520000000  0.4717610000000  0.5122570000000 1.0
C      1  0.5229080000000  0.6351530000000  0.4851340000000 1.0
C      1  0.3612230000000  0.5306250000000  0.5098920000000 1.0
C      1  0.4727350000000  0.3630830000000  0.4855960000000 1.0
C      1  0.5281500000000  0.6228330000000  0.5101990000000 1.0
C      1  0.3773910000000  0.5315410000000  0.4863370000000 1.0
C      1  0.4726190000000  0.3783160000000  0.5097690000000 1.0
C      1  0.6233990000000  0.4699210000000  0.4880530000000 1.0
C      1  0.5496080000000  0.4152960000000  0.5658810000000 1.0
C      1  0.5783580000000  0.5462100000000  0.4346980000000 1.0
C      1  0.4501080000000  0.5863930000000  0.5649010000000 1.0
C      1  0.4172480000000  0.4539900000000  0.4316560000000 1.0
C      1  0.5734820000000  0.5648010000000  0.5271290000000 1.0
C      1  0.4399580000000  0.5705490000000  0.4781760000000 1.0
C      1  0.4302890000000  0.4373020000000  0.5242800000000 1.0
C      1  0.5634810000000  0.4265110000000  0.4724490000000 1.0
C      1  0.3734190000000  0.4892740000000  0.5424910000000 1.0
C      1  0.5144120000000  0.3777700000000  0.4546110000000 1.0
C      1  0.6239420000000  0.5124550000000  0.5442190000000 1.0
C      1  0.4645370000000  0.6039680000000  0.4482160000000 1.0
C      1  0.5630900000000  0.5473090000000  0.5764470000000 1.0
C      1  0.4620130000000  0.5358240000000  0.4411500000000 1.0
C      1  0.4387650000000  0.4540810000000  0.5746280000000 1.0
C      1  0.5432080000000  0.4415250000000  0.4256250000000 1.0
C      1  0.6085190000000  0.4431070000000  0.5399550000000 1.0
C      1  0.5527980000000  0.6067190000000  0.4583180000000 1.0
C      1  0.3912550000000  0.5576100000000  0.5394900000000 1.0
C      1  0.4447760000000  0.3940560000000  0.4581470000000 1.0
C      1  0.4294530000000  0.5944380000000  0.4887940000000 1.0
C      1  0.4057490000000  0.4317760000000  0.5117240000000 1.0
C      1  0.5713870000000  0.4019320000000  0.4837350000000 1.0
C      1  0.5972540000000  0.5711620000000  0.5136780000000 1.0
C      1  0.3865480000000  0.5144700000000  0.4632410000000 1.0
C      1  0.4902770000000  0.3864170000000  0.5325880000000 1.0
C      1  0.6134080000000  0.4877950000000  0.4661170000000 1.0
C      1  0.5113710000000  0.6158160000000  0.5332850000000 1.0
C      1  0.5668890000000  0.4994600000000  0.5595550000000 1.0
C      1  0.5021390000000  0.5658840000000  0.4480640000000 1.0
C      1  0.4290080000000  0.5002900000000  0.5562950000000 1.0
C      1  0.4974490000000  0.4371060000000  0.4437180000000 1.0
C      1  0.4403520000000  0.4115860000000  0.4362660000000 1.0
C      1  0.5906640000000  0.4400720000000  0.5618220000000 1.0
C      1  0.5568350000000  0.5893650000000  0.4364560000000 1.0
C      1  0.4091130000000  0.5608590000000  0.5612780000000 1.0
C      1  0.3887470000000  0.4444390000000  0.4951730000000 1.0
C      1  0.5601870000000  0.3850670000000  0.5014850000000 1.0
C      1  0.6130010000000  0.5582550000000  0.4960970000000 1.0
C      1  0.4399180000000  0.6143890000000  0.5036130000000 1.0
C      1  0.4914320000000  0.5226080000000  0.5576010000000 1.0
C      1  0.4800310000000  0.4927220000000  0.4407780000000 1.0
C      1  0.5104510000000  0.4794920000000  0.5579990000000 1.0
C      1  0.5179700000000  0.5169410000000  0.4417990000000 1.0
C      1  0.4431980000000  0.5411170000000  0.5925870000000 1.0
C      1  0.4600090000000  0.4452550000000  0.4046960000000 1.0
C      1  0.5570990000000  0.4589150000000  0.5946130000000 1.0
C      1  0.5372740000000  0.5559060000000  0.4052040000000 1.0
C      1  0.4221480000000  0.5336960000000  0.4218120000000 1.0
C      1  0.4764010000000  0.4213780000000  0.5747180000000 1.0
C      1  0.5778410000000  0.4739250000000  0.4260660000000 1.0
C      1  0.5261620000000  0.5805710000000  0.5768790000000 1.0
C      1  0.4556900000000  0.4981630000000  0.3939090000000 1.0
C      1  0.5037660000000  0.4565760000000  0.6038820000000 1.0
C      1  0.5432210000000  0.5024510000000  0.3990980000000 1.0
C      1  0.4971380000000  0.5437830000000  0.6055010000000 1.0
C      1  0.5884020000000  0.4929040000000  0.5769210000000 1.0
C      1  0.4948680000000  0.5776060000000  0.4227110000000 1.0
C      1  0.4092630000000  0.5073170000000  0.5750000000000 1.0
C      1  0.4946150000000  0.4161400000000  0.4248410000000 1.0
C      1  0.5014230000000  0.5681830000000  0.5184010000000 1.0
C      1  0.4312090000000  0.4984100000000  0.4859460000000 1.0
C      1  0.5024510000000  0.4325810000000  0.5136270000000 1.0
C      1  0.5693470000000  0.4991330000000  0.4895120000000 1.0
C      1  0.6256660000000  0.5183920000000  0.5179150000000 1.0
C      1  0.4733100000000  0.6148450000000  0.4725660000000 1.0
C      1  0.3725240000000  0.4835940000000  0.5159950000000 1.0
C      1  0.5198300000000  0.3733430000000  0.4806070000000 1.0
C      1  0.5362620000000  0.5374410000000  0.4812360000000 1.0
C      1  0.4564440000000  0.5259550000000  0.5235880000000 1.0
C      1  0.4697830000000  0.4656560000000  0.4786090000000 1.0
C      1  0.5351790000000  0.4664340000000  0.5211070000000 1.0
C      1  0.5647600000000  0.5345310000000  0.5263250000000 1.0
C      1  0.4688690000000  0.5595320000000  0.4828070000000 1.0
C      1  0.4388180000000  0.4662800000000  0.5241400000000 1.0
C      1  0.5343370000000  0.4340480000000  0.4748650000000 1.0
C      1  0.4379780000000  0.4370030000000  0.4224370000000 1.0
C      1  0.5652880000000  0.4369830000000  0.5758550000000 1.0
C      1  0.5587280000000  0.5637460000000  0.4236380000000 1.0
C      1  0.4350220000000  0.5638140000000  0.5744000000000 1.0
C      1  0.5233310000000  0.4397070000000  0.5336810000000 1.0
C      1  0.5578800000000  0.5176530000000  0.4689530000000 1.0
C      1  0.4850810000000  0.5680130000000  0.5404200000000 1.0
C      1  0.4398990000000  0.4815840000000  0.4642270000000 1.0
C      1  0.5068080000000  0.4280400000000  0.4865510000000 1.0
C      1  0.5721430000000  0.5062050000000  0.5160480000000 1.0
C      1  0.4942630000000  0.5718200000000  0.4923390000000 1.0
C      1  0.4265610000000  0.4911580000000  0.5122160000000 1.0
C      1  0.4995460000000  0.5030170000000  0.4215380000000 1.0
C      1  0.5015050000000  0.5013050000000  0.5765210000000 1.0
END
