TITL C-3623288-6813-1422 124273.333099229 125000 -889.828008102641 0 0 145 (C1) n - 1
REM
REM in /home/nfs/bkarasulu/CARBON/AIRSS/Generating-Clusters/LCBOP/Higher-Symm/SD-CG/FIRE-CG
REM
REM
REM
REM
REM
REM ./C.cell (b20cbc046b6831c77cfcea5457e17084)
REM AIRSS Version 0.9.1 bugfix July 2018 build 013d7b7c2542+ Fri, 06 Jul 2018 19:26:36 +0100
REM compiler GCC version 9.2.1 20190827 (Red Hat 9.2.1-1)
REM options -cpp -mtune=generic -march=x86-64 -g -O0 -fpre-include=/usr/include/finclude/math-vector-fortran.h
REM seed -915657150 -829052871 154342997 -1543668469 -709018375 -984378585 2108840723 1371749168 926574090 1415319700 1848507681 1416868493 -1892065211 38018872 1017221181 48453312 1125430328 -2066687231 1790070917 2055265331 -1554751300 -761714881 -2087076593 2070009119 1010105589 2026749191 -1730653408 -1235939703 -1199797271 -1683478794 -7680264 -29722554 -1758331896
REM
CELL 1.54180   50.00000   50.00000   50.00000   90.00000   90.00000   90.00000
LATT -1
SFAC C  
C      1  0.5701780000000  0.4280870000000  0.4678190000000 1.0
C      1  0.5591000000000  0.5530430000000  0.5495550000000 1.0
C      1  0.4346860000000  0.4394110000000  0.5354610000000 1.0
C      1  0.4400190000000  0.5591330000000  0.4635000000000 1.0
C      1  0.4127390000000  0.5658790000000  0.5288790000000 1.0
C      1  0.4124140000000  0.4336090000000  0.4692030000000 1.0
C      1  0.5885880000000  0.5602660000000  0.4634630000000 1.0
C      1  0.5795520000000  0.4319710000000  0.5364550000000 1.0
C      1  0.3873250000000  0.5140670000000  0.4854510000000 1.0
C      1  0.3802510000000  0.4877740000000  0.5193660000000 1.0
C      1  0.6115930000000  0.5119660000000  0.5172230000000 1.0
C      1  0.6097610000000  0.4857040000000  0.4820530000000 1.0
C      1  0.5714340000000  0.5535260000000  0.4424410000000 1.0
C      1  0.5732210000000  0.4481320000000  0.5585770000000 1.0
C      1  0.4219920000000  0.5510630000000  0.5590180000000 1.0
C      1  0.4251960000000  0.4497560000000  0.4431740000000 1.0
C      1  0.5093210000000  0.5081520000000  0.5756890000000 1.0
C      1  0.5123540000000  0.4883700000000  0.4315010000000 1.0
C      1  0.4998350000000  0.5232530000000  0.4343180000000 1.0
C      1  0.5041050000000  0.4781030000000  0.5788480000000 1.0
C      1  0.4743420000000  0.4196380000000  0.5146190000000 1.0
C      1  0.4795030000000  0.5770160000000  0.4847400000000 1.0
C      1  0.5298670000000  0.4153630000000  0.4818350000000 1.0
C      1  0.5202810000000  0.5659090000000  0.5231980000000 1.0
C      1  0.4531250000000  0.5073230000000  0.4062100000000 1.0
C      1  0.4511490000000  0.4925820000000  0.5942510000000 1.0
C      1  0.5534660000000  0.5048190000000  0.6039140000000 1.0
C      1  0.5494470000000  0.4963620000000  0.3992750000000 1.0
C      1  0.4626270000000  0.5139330000000  0.5257760000000 1.0
C      1  0.4478620000000  0.4879940000000  0.4809910000000 1.0
C      1  0.5495840000000  0.5160860000000  0.4839340000000 1.0
C      1  0.5443970000000  0.4798050000000  0.5212590000000 1.0
C      1  0.3905260000000  0.4619190000000  0.4672380000000 1.0
C      1  0.3916210000000  0.5361290000000  0.5312480000000 1.0
C      1  0.6043080000000  0.4632560000000  0.5303910000000 1.0
C      1  0.6063190000000  0.5372600000000  0.4646860000000 1.0
C      1  0.5064190000000  0.5895390000000  0.4819030000000 1.0
C      1  0.5258890000000  0.4378600000000  0.5245060000000 1.0
C      1  0.4646130000000  0.5651840000000  0.5359670000000 1.0
C      1  0.4700500000000  0.4330440000000  0.4663900000000 1.0
C      1  0.5278670000000  0.5325030000000  0.4744060000000 1.0
C      1  0.5216520000000  0.4649200000000  0.5345120000000 1.0
C      1  0.4873000000000  0.5265530000000  0.5394300000000 1.0
C      1  0.4949660000000  0.4693150000000  0.4667130000000 1.0
C      1  0.5129910000000  0.5119190000000  0.5465760000000 1.0
C      1  0.5173720000000  0.4841290000000  0.4591000000000 1.0
C      1  0.4802670000000  0.5268540000000  0.4596460000000 1.0
C      1  0.4739610000000  0.4683860000000  0.5310240000000 1.0
C      1  0.4142730000000  0.5212410000000  0.4434180000000 1.0
C      1  0.4098240000000  0.4778810000000  0.5605830000000 1.0
C      1  0.5893800000000  0.5191910000000  0.5639630000000 1.0
C      1  0.5884170000000  0.4789050000000  0.4360560000000 1.0
C      1  0.5731630000000  0.4609650000000  0.4195860000000 1.0
C      1  0.5679550000000  0.5380850000000  0.5729880000000 1.0
C      1  0.4310680000000  0.4581020000000  0.5664930000000 1.0
C      1  0.4337220000000  0.5423730000000  0.4352620000000 1.0
C      1  0.5378490000000  0.5070400000000  0.5293010000000 1.0
C      1  0.5407450000000  0.4890560000000  0.4751360000000 1.0
C      1  0.4695650000000  0.5090780000000  0.4809670000000 1.0
C      1  0.4543090000000  0.4876300000000  0.5266140000000 1.0
C      1  0.4016020000000  0.5287780000000  0.5570250000000 1.0
C      1  0.4032910000000  0.4715980000000  0.4432610000000 1.0
C      1  0.6018620000000  0.5260770000000  0.4395700000000 1.0
C      1  0.5945330000000  0.4692320000000  0.5558400000000 1.0
C      1  0.5233290000000  0.4618640000000  0.4205290000000 1.0
C      1  0.5194130000000  0.5358050000000  0.5857070000000 1.0
C      1  0.4812920000000  0.4584860000000  0.5791170000000 1.0
C      1  0.4830390000000  0.5435760000000  0.4171870000000 1.0
C      1  0.4670780000000  0.4384760000000  0.5370330000000 1.0
C      1  0.4717540000000  0.5592610000000  0.4606470000000 1.0
C      1  0.5426580000000  0.4220840000000  0.4566350000000 1.0
C      1  0.5331480000000  0.5642070000000  0.5482150000000 1.0
C      1  0.4368460000000  0.4787190000000  0.5054420000000 1.0
C      1  0.4562800000000  0.5303270000000  0.5006700000000 1.0
C      1  0.5504690000000  0.4662660000000  0.4927700000000 1.0
C      1  0.5546470000000  0.5229470000000  0.5117070000000 1.0
C      1  0.4316210000000  0.5368680000000  0.4840730000000 1.0
C      1  0.4196070000000  0.4603480000000  0.5187160000000 1.0
C      1  0.5720330000000  0.5396680000000  0.5266290000000 1.0
C      1  0.5734650000000  0.4557600000000  0.4752870000000 1.0
C      1  0.4837130000000  0.4340740000000  0.5625350000000 1.0
C      1  0.4839050000000  0.5684010000000  0.4333320000000 1.0
C      1  0.5215350000000  0.4301890000000  0.4360290000000 1.0
C      1  0.5137480000000  0.5634320000000  0.5709080000000 1.0
C      1  0.4712770000000  0.4071290000000  0.4550450000000 1.0
C      1  0.4698690000000  0.5920320000000  0.5438030000000 1.0
C      1  0.5260340000000  0.4139540000000  0.5399720000000 1.0
C      1  0.5133110000000  0.6017310000000  0.4571050000000 1.0
C      1  0.5483740000000  0.4687920000000  0.4076670000000 1.0
C      1  0.5480040000000  0.5303450000000  0.5923430000000 1.0
C      1  0.4539140000000  0.4668420000000  0.5826370000000 1.0
C      1  0.4551440000000  0.5343090000000  0.4152110000000 1.0
C      1  0.6133570000000  0.5208120000000  0.4853390000000 1.0
C      1  0.6106260000000  0.4819190000000  0.5110200000000 1.0
C      1  0.3831340000000  0.5168300000000  0.5136220000000 1.0
C      1  0.3799020000000  0.4784910000000  0.4858310000000 1.0
C      1  0.4154620000000  0.4950020000000  0.4325760000000 1.0
C      1  0.4122690000000  0.5052210000000  0.5692450000000 1.0
C      1  0.5882150000000  0.4918590000000  0.5721400000000 1.0
C      1  0.5868600000000  0.5062380000000  0.4277390000000 1.0
C      1  0.4559080000000  0.3992260000000  0.5089390000000 1.0
C      1  0.4588650000000  0.5985290000000  0.4896670000000 1.0
C      1  0.5324060000000  0.3919470000000  0.4980260000000 1.0
C      1  0.5594760000000  0.6237850000000  0.4642530000000 1.0
C      1  0.5649580000000  0.4842000000000  0.5885690000000 1.0
C      1  0.5617440000000  0.5152980000000  0.4163420000000 1.0
C      1  0.4415940000000  0.4872430000000  0.4217270000000 1.0
C      1  0.4377220000000  0.5134710000000  0.5816390000000 1.0
C      1  0.5526110000000  0.4616830000000  0.5743230000000 1.0
C      1  0.5509780000000  0.5374220000000  0.4313820000000 1.0
C      1  0.4502810000000  0.4630810000000  0.4352080000000 1.0
C      1  0.4461230000000  0.5389590000000  0.5706510000000 1.0
C      1  0.5807120000000  0.6102500000000  0.4730860000000 1.0
C      1  0.5791700000000  0.4114950000000  0.4906240000000 1.0
C      1  0.4337790000000  0.5845970000000  0.4839700000000 1.0
C      1  0.4302900000000  0.4128310000000  0.5130310000000 1.0
C      1  0.4091550000000  0.5234720000000  0.4716350000000 1.0
C      1  0.3987140000000  0.4731820000000  0.5342790000000 1.0
C      1  0.5959580000000  0.5254660000000  0.5359970000000 1.0
C      1  0.5928890000000  0.4729360000000  0.4637600000000 1.0
C      1  0.4998810000000  0.5452280000000  0.5163590000000 1.0
C      1  0.4964220000000  0.4571680000000  0.4921510000000 1.0
C      1  0.5089780000000  0.5274450000000  0.4953240000000 1.0
C      1  0.4983850000000  0.4752590000000  0.5153170000000 1.0
C      1  0.5259090000000  0.5352700000000  0.4456480000000 1.0
C      1  0.5261970000000  0.4658760000000  0.5642720000000 1.0
C      1  0.4700110000000  0.5453280000000  0.5564260000000 1.0
C      1  0.4727150000000  0.4575190000000  0.4516860000000 1.0
C      1  0.5234890000000  0.5859160000000  0.5038540000000 1.0
C      1  0.5342920000000  0.4394560000000  0.4977440000000 1.0
C      1  0.4733510000000  0.5570350000000  0.5079130000000 1.0
C      1  0.4820570000000  0.4337650000000  0.4920860000000 1.0
C      1  0.4519480000000  0.3939700000000  0.4729910000000 1.0
C      1  0.4528460000000  0.6053520000000  0.5242400000000 1.0
C      1  0.5446980000000  0.3976530000000  0.5239460000000 1.0
C      1  0.5342650000000  0.6201200000000  0.4563270000000 1.0
C      1  0.5712800000000  0.4109650000000  0.5190020000000 1.0
C      1  0.5906380000000  0.5855370000000  0.4744660000000 1.0
C      1  0.4225560000000  0.4141760000000  0.4853430000000 1.0
C      1  0.4240640000000  0.5841740000000  0.5115920000000 1.0
C      1  0.4922080000000  0.5864450000000  0.5647870000000 1.0
C      1  0.4961730000000  0.4108620000000  0.4378380000000 1.0
C      1  0.5002690000000  0.5910380000000  0.4344750000000 1.0
C      1  0.5054550000000  0.4150180000000  0.5598100000000 1.0
C      1  0.4948480000000  0.5022880000000  0.4981320000000 1.0
END
