TITL C-3623287-7182-395 -1.4248257717946e-08 125000 -889.493056757329 0 0 144 (C1) n - 1
REM
REM in /home/nfs/bkarasulu/CARBON/AIRSS/Generating-Clusters/LCBOP/Higher-Symm/SD-CG/FIRE-CG
REM
REM
REM
REM
REM
REM ./C.cell (b20cbc046b6831c77cfcea5457e17084)
REM AIRSS Version 0.9.1 bugfix July 2018 build 013d7b7c2542+ Fri, 06 Jul 2018 19:26:36 +0100
REM compiler GCC version 9.2.1 20190827 (Red Hat 9.2.1-1)
REM options -cpp -mtune=generic -march=x86-64 -g -O0 -fpre-include=/usr/include/finclude/math-vector-fortran.h
REM seed -1908115698 344518645 432011037 -2082671034 1821330415 1043420159 -649704142 364196745 -1318388237 987197172 1385639519 1364184002 1811703824 1910467032 70574160 -1054365382 -628593721 1732082743 -1377079748 -1124172455 77464797 797203659 1567976670 -777763077 -891598881 1565759348 1819149042 85461820 -2026044744 863419559 -1980223243 1919453972 -1136195120
REM
CELL 1.54180   50.00000   50.00000   50.00000   90.00000   90.00000   90.00000
LATT -1
SFAC C  
C      1  0.5912070000000  0.5308550000000  0.4481410000000 1.0
C      1  0.6224530000000  0.5079430000000  0.4792810000000 1.0
C      1  0.4527080000000  0.4942740000000  0.5469040000000 1.0
C      1  0.5975470000000  0.4732710000000  0.5069990000000 1.0
C      1  0.4411430000000  0.4478380000000  0.5147690000000 1.0
C      1  0.5127180000000  0.4160780000000  0.5850500000000 1.0
C      1  0.4515720000000  0.5087280000000  0.4610870000000 1.0
C      1  0.4022190000000  0.4842520000000  0.5632390000000 1.0
C      1  0.5556610000000  0.5246870000000  0.5068450000000 1.0
C      1  0.4622530000000  0.4455750000000  0.4707880000000 1.0
C      1  0.4410400000000  0.4535820000000  0.4012190000000 1.0
C      1  0.4358730000000  0.4297650000000  0.5632330000000 1.0
C      1  0.5819620000000  0.5351930000000  0.4191010000000 1.0
C      1  0.4560990000000  0.4310490000000  0.3993340000000 1.0
C      1  0.4471200000000  0.5377330000000  0.5785970000000 1.0
C      1  0.5338690000000  0.4509900000000  0.4118060000000 1.0
C      1  0.5895410000000  0.5540970000000  0.4954710000000 1.0
C      1  0.4645690000000  0.4877630000000  0.4990890000000 1.0
C      1  0.5443810000000  0.4605870000000  0.4850810000000 1.0
C      1  0.5459180000000  0.5309600000000  0.5331750000000 1.0
C      1  0.4254210000000  0.3895860000000  0.5055250000000 1.0
C      1  0.5328780000000  0.6188810000000  0.5102220000000 1.0
C      1  0.4453790000000  0.3763640000000  0.5177770000000 1.0
C      1  0.4349240000000  0.4337700000000  0.5366190000000 1.0
C      1  0.5407060000000  0.4528160000000  0.5889070000000 1.0
C      1  0.4862310000000  0.4909880000000  0.5163600000000 1.0
C      1  0.4246260000000  0.5541510000000  0.4494030000000 1.0
C      1  0.4841430000000  0.5545340000000  0.4948420000000 1.0
C      1  0.4377790000000  0.5589090000000  0.4934170000000 1.0
C      1  0.5160010000000  0.5740600000000  0.4296760000000 1.0
C      1  0.3895560000000  0.4787950000000  0.5167170000000 1.0
C      1  0.4246930000000  0.4729440000000  0.5785210000000 1.0
C      1  0.4785740000000  0.5015130000000  0.5406790000000 1.0
C      1  0.4596590000000  0.5403320000000  0.4947970000000 1.0
C      1  0.5602080000000  0.4439220000000  0.5682130000000 1.0
C      1  0.5107600000000  0.4805850000000  0.4643530000000 1.0
C      1  0.5184030000000  0.4152810000000  0.4374440000000 1.0
C      1  0.5417540000000  0.4357800000000  0.4979040000000 1.0
C      1  0.4558920000000  0.5125870000000  0.4881000000000 1.0
C      1  0.4916000000000  0.4754150000000  0.5970630000000 1.0
C      1  0.5146820000000  0.5277560000000  0.4702290000000 1.0
C      1  0.4728840000000  0.4517730000000  0.5898420000000 1.0
C      1  0.3860530000000  0.4699980000000  0.5441570000000 1.0
C      1  0.4951480000000  0.5636770000000  0.4449860000000 1.0
C      1  0.5527480000000  0.5566020000000  0.4694800000000 1.0
C      1  0.4168700000000  0.5511390000000  0.5104970000000 1.0
C      1  0.4706220000000  0.4799910000000  0.4276850000000 1.0
C      1  0.5815060000000  0.4277550000000  0.4786490000000 1.0
C      1  0.5282870000000  0.4035840000000  0.5633170000000 1.0
C      1  0.5817220000000  0.4618860000000  0.5590710000000 1.0
C      1  0.4732260000000  0.4582620000000  0.4470190000000 1.0
C      1  0.4721430000000  0.5774040000000  0.5413380000000 1.0
C      1  0.5234070000000  0.4777520000000  0.4884850000000 1.0
C      1  0.5287040000000  0.6457790000000  0.5085000000000 1.0
C      1  0.5782560000000  0.5108600000000  0.5680440000000 1.0
C      1  0.4258230000000  0.5088260000000  0.4480900000000 1.0
C      1  0.4988730000000  0.5512000000000  0.4706470000000 1.0
C      1  0.4080610000000  0.5112890000000  0.5484310000000 1.0
C      1  0.5143110000000  0.4691500000000  0.4041400000000 1.0
C      1  0.4541750000000  0.4612190000000  0.4936570000000 1.0
C      1  0.5198140000000  0.4890570000000  0.5610140000000 1.0
C      1  0.5597330000000  0.5300240000000  0.5587590000000 1.0
C      1  0.4335600000000  0.5051900000000  0.4194880000000 1.0
C      1  0.4884360000000  0.4298090000000  0.5770290000000 1.0
C      1  0.5123200000000  0.4834200000000  0.5131050000000 1.0
C      1  0.4000300000000  0.5067200000000  0.5177180000000 1.0
C      1  0.4543620000000  0.6554120000000  0.4858280000000 1.0
C      1  0.5245960000000  0.6018260000000  0.5549050000000 1.0
C      1  0.4846880000000  0.5067210000000  0.5909500000000 1.0
C      1  0.4860560000000  0.5720220000000  0.5170780000000 1.0
C      1  0.5154650000000  0.3818840000000  0.5501890000000 1.0
C      1  0.6191070000000  0.5227480000000  0.4562490000000 1.0
C      1  0.5205450000000  0.4730610000000  0.5850800000000 1.0
C      1  0.5048310000000  0.4283370000000  0.4585550000000 1.0
C      1  0.5650310000000  0.4349770000000  0.4525280000000 1.0
C      1  0.5498540000000  0.5480580000000  0.5782010000000 1.0
C      1  0.5579850000000  0.4626200000000  0.4599540000000 1.0
C      1  0.4913860000000  0.4868940000000  0.4065270000000 1.0
C      1  0.4114300000000  0.5298830000000  0.4621260000000 1.0
C      1  0.4422390000000  0.4495340000000  0.5828590000000 1.0
C      1  0.4479600000000  0.5513290000000  0.4286740000000 1.0
C      1  0.5957760000000  0.5521510000000  0.4026660000000 1.0
C      1  0.5004080000000  0.4073890000000  0.4165510000000 1.0
C      1  0.5717660000000  0.5770710000000  0.5053260000000 1.0
C      1  0.3964940000000  0.4322190000000  0.4927110000000 1.0
C      1  0.5329230000000  0.5891570000000  0.4167910000000 1.0
C      1  0.5205090000000  0.5413280000000  0.5337080000000 1.0
C      1  0.4533940000000  0.5271560000000  0.4122900000000 1.0
C      1  0.5573020000000  0.4933430000000  0.4183430000000 1.0
C      1  0.4349030000000  0.5734140000000  0.4693290000000 1.0
C      1  0.5526860000000  0.4183010000000  0.5541290000000 1.0
C      1  0.5584110000000  0.5206400000000  0.4099530000000 1.0
C      1  0.5031040000000  0.6035600000000  0.4752830000000 1.0
C      1  0.5658740000000  0.4111690000000  0.5292430000000 1.0
C      1  0.4574860000000  0.5882710000000  0.4589540000000 1.0
C      1  0.5643380000000  0.4188900000000  0.5017830000000 1.0
C      1  0.5434930000000  0.4294480000000  0.4309310000000 1.0
C      1  0.4683350000000  0.3692450000000  0.5298710000000 1.0
C      1  0.4885290000000  0.4200050000000  0.5246650000000 1.0
C      1  0.4085100000000  0.4083930000000  0.4963390000000 1.0
C      1  0.5864960000000  0.4857900000000  0.5739100000000 1.0
C      1  0.5850480000000  0.5254930000000  0.5048130000000 1.0
C      1  0.5013010000000  0.5057960000000  0.4578230000000 1.0
C      1  0.5664940000000  0.5909270000000  0.5295400000000 1.0
C      1  0.4815090000000  0.4231850000000  0.4749100000000 1.0
C      1  0.4749510000000  0.5036610000000  0.4465950000000 1.0
C      1  0.4641760000000  0.6326570000000  0.4777670000000 1.0
C      1  0.4439710000000  0.4787950000000  0.4137400000000 1.0
C      1  0.5077680000000  0.5310300000000  0.3957130000000 1.0
C      1  0.5016320000000  0.4567810000000  0.4529980000000 1.0
C      1  0.4849500000000  0.5733090000000  0.5666180000000 1.0
C      1  0.5764210000000  0.5060090000000  0.4574640000000 1.0
C      1  0.5815170000000  0.4687080000000  0.5306660000000 1.0
C      1  0.5404650000000  0.5327020000000  0.4817760000000 1.0
C      1  0.4846750000000  0.5155270000000  0.4010140000000 1.0
C      1  0.5346180000000  0.5313780000000  0.3989180000000 1.0
C      1  0.5294220000000  0.4827370000000  0.5353860000000 1.0
C      1  0.4965040000000  0.5059400000000  0.5617890000000 1.0
C      1  0.4684050000000  0.5701610000000  0.4386550000000 1.0
C      1  0.4847940000000  0.4119270000000  0.4998230000000 1.0
C      1  0.4545980000000  0.5111590000000  0.5889210000000 1.0
C      1  0.6026670000000  0.5019810000000  0.4994790000000 1.0
C      1  0.4439190000000  0.4921620000000  0.5728590000000 1.0
C      1  0.4048630000000  0.5278060000000  0.4975730000000 1.0
C      1  0.5990170000000  0.4502720000000  0.4885640000000 1.0
C      1  0.5305260000000  0.5654950000000  0.5841980000000 1.0
C      1  0.4773970000000  0.4152740000000  0.4045780000000 1.0
C      1  0.3906580000000  0.4580840000000  0.4976450000000 1.0
C      1  0.5556350000000  0.4791920000000  0.5282350000000 1.0
C      1  0.4913970000000  0.5355680000000  0.5983040000000 1.0
C      1  0.4843290000000  0.4281320000000  0.5493130000000 1.0
C      1  0.4727630000000  0.5536010000000  0.5836890000000 1.0
C      1  0.5814250000000  0.5524390000000  0.4662690000000 1.0
C      1  0.4437180000000  0.5770800000000  0.5412910000000 1.0
C      1  0.5121160000000  0.5820740000000  0.5706900000000 1.0
C      1  0.5285450000000  0.6008540000000  0.4881530000000 1.0
C      1  0.4750120000000  0.6079000000000  0.4704740000000 1.0
C      1  0.5294870000000  0.4305080000000  0.6026320000000 1.0
C      1  0.4931150000000  0.3704640000000  0.5403450000000 1.0
C      1  0.5634390000000  0.4851970000000  0.4446080000000 1.0
C      1  0.5490950000000  0.5806540000000  0.4853460000000 1.0
C      1  0.4238920000000  0.5568600000000  0.5378500000000 1.0
C      1  0.4243780000000  0.5355270000000  0.5574920000000 1.0
C      1  0.5426800000000  0.6061990000000  0.5338820000000 1.0
END
