TITL C-3623289-7120-1576 -4.71376684889778e-07 125000 -185.724822314396 0 0 32 (Ci) n - 1
REM
REM in /home/nfs/bkarasulu/CARBON/AIRSS/Generating-Clusters/LCBOP/Higher-Symm/SD-CG/FIRE-CG
REM
REM
REM
REM
REM
REM ./C.cell (b20cbc046b6831c77cfcea5457e17084)
REM AIRSS Version 0.9.1 bugfix July 2018 build 013d7b7c2542+ Fri, 06 Jul 2018 19:26:36 +0100
REM compiler GCC version 9.2.1 20190827 (Red Hat 9.2.1-1)
REM options -cpp -mtune=generic -march=x86-64 -g -O0 -fpre-include=/usr/include/finclude/math-vector-fortran.h
REM seed -1732024977 1373349704 331705163 -1834976143 -1963213925 1675843562 -1402740703 -87568846 -1424836319 889686484 1170054327 224896483 -1342070287 507528969 -1846286275 1763050900 427186929 578079321 1127712032 152637221 -1487568460 1060652514 -797329390 -1943713603 1750440961 -1990936527 1149286798 -1897194710 550332134 94628006 1748420986 1047031174 -1155441608
REM
CELL 1.54180   50.00000   50.00000   50.00000   90.00000   90.00000   90.00000
LATT -1
SFAC C  
C      1  0.4965760000000  0.4763500000000  0.4443110000000 1.0
C      1  0.5034240000000  0.5236500000000  0.5556890000000 1.0
C      1  0.4949190000000  0.4449950000000  0.5267380000000 1.0
C      1  0.5050810000000  0.5550050000000  0.4732620000000 1.0
C      1  0.4746640000000  0.4899890000000  0.4559210000000 1.0
C      1  0.5253360000000  0.5100110000000  0.5440790000000 1.0
C      1  0.5240580000000  0.5126820000000  0.4535520000000 1.0
C      1  0.4759420000000  0.4873180000000  0.5464480000000 1.0
C      1  0.4775670000000  0.5161300000000  0.5459940000000 1.0
C      1  0.5224330000000  0.4838700000000  0.4540060000000 1.0
C      1  0.4401630000000  0.5464190000000  0.5424410000000 1.0
C      1  0.5598370000000  0.4535810000000  0.4575590000000 1.0
C      1  0.4753050000000  0.5196380000000  0.4590260000000 1.0
C      1  0.5246950000000  0.4803620000000  0.5409740000000 1.0
C      1  0.4343940000000  0.5123230000000  0.4861980000000 1.0
C      1  0.5656060000000  0.4876770000000  0.5138020000000 1.0
C      1  0.4683730000000  0.5433140000000  0.5032480000000 1.0
C      1  0.5316270000000  0.4566860000000  0.4967520000000 1.0
C      1  0.4682730000000  0.4807180000000  0.4830140000000 1.0
C      1  0.5317270000000  0.5192820000000  0.5169860000000 1.0
C      1  0.4901060000000  0.5599710000000  0.4955230000000 1.0
C      1  0.5098940000000  0.4400290000000  0.5044770000000 1.0
C      1  0.4976620000000  0.4686830000000  0.5422820000000 1.0
C      1  0.5023380000000  0.5313170000000  0.4577180000000 1.0
C      1  0.5377960000000  0.4649400000000  0.4695580000000 1.0
C      1  0.4622040000000  0.5350600000000  0.5304420000000 1.0
C      1  0.5435390000000  0.4703100000000  0.5196680000000 1.0
C      1  0.4564610000000  0.5296900000000  0.4803320000000 1.0
C      1  0.5099350000000  0.5090800000000  0.5013860000000 1.0
C      1  0.4900650000000  0.4909200000000  0.4986140000000 1.0
C      1  0.4413970000000  0.4861660000000  0.4901930000000 1.0
C      1  0.5586030000000  0.5138340000000  0.5098070000000 1.0
END
