TITL C-3623289-7120-1900 -7.19160936094102e-05 125000 -199.479459411747 0 0 34 (C1) n - 1
REM
REM in /home/nfs/bkarasulu/CARBON/AIRSS/Generating-Clusters/LCBOP/Higher-Symm/SD-CG/FIRE-CG
REM
REM
REM
REM
REM
REM ./C.cell (b20cbc046b6831c77cfcea5457e17084)
REM AIRSS Version 0.9.1 bugfix July 2018 build 013d7b7c2542+ Fri, 06 Jul 2018 19:26:36 +0100
REM compiler GCC version 9.2.1 20190827 (Red Hat 9.2.1-1)
REM options -cpp -mtune=generic -march=x86-64 -g -O0 -fpre-include=/usr/include/finclude/math-vector-fortran.h
REM seed 1602060729 -2023393134 1421543386 346472860 1803855245 703729979 2086166185 1643507746 -1996994938 848543740 -1670984976 313277304 779028712 1924018441 -313423132 1055184537 1837291197 587258138 1786628745 -110700061 -465053597 483757325 664764445 -1202594154 -2011107509 -74096172 1600836413 842752568 -1730054682 -547550938 -1330165582 1143452062 1228857320
REM
CELL 1.54180   50.00000   50.00000   50.00000   90.00000   90.00000   90.00000
LATT -1
SFAC C  
C      1  0.4292560000000  0.4790130000000  0.5376820000000 1.0
C      1  0.5740540000000  0.4876700000000  0.4823670000000 1.0
C      1  0.4994420000000  0.4979300000000  0.4413610000000 1.0
C      1  0.5044300000000  0.4742490000000  0.5599070000000 1.0
C      1  0.4100200000000  0.4690020000000  0.5521360000000 1.0
C      1  0.5978380000000  0.4770420000000  0.4816730000000 1.0
C      1  0.4501640000000  0.4898530000000  0.5225240000000 1.0
C      1  0.5484020000000  0.4985910000000  0.4826900000000 1.0
C      1  0.5224830000000  0.4648260000000  0.5424460000000 1.0
C      1  0.4785130000000  0.4892990000000  0.4552970000000 1.0
C      1  0.4839450000000  0.4547680000000  0.4876790000000 1.0
C      1  0.5079800000000  0.4507250000000  0.4988360000000 1.0
C      1  0.5135280000000  0.5134610000000  0.5135320000000 1.0
C      1  0.4263310000000  0.4991820000000  0.4815680000000 1.0
C      1  0.5247310000000  0.4671260000000  0.5144270000000 1.0
C      1  0.4688550000000  0.4765890000000  0.4783750000000 1.0
C      1  0.4808310000000  0.5480740000000  0.5192700000000 1.0
C      1  0.5276300000000  0.5657090000000  0.4729860000000 1.0
C      1  0.4483400000000  0.4885370000000  0.4940290000000 1.0
C      1  0.5304860000000  0.4931940000000  0.5040180000000 1.0
C      1  0.4815990000000  0.4906800000000  0.5607880000000 1.0
C      1  0.5265620000000  0.5044410000000  0.4388560000000 1.0
C      1  0.4884440000000  0.5214580000000  0.5234090000000 1.0
C      1  0.5397460000000  0.5435060000000  0.4646180000000 1.0
C      1  0.4891270000000  0.5694230000000  0.5054550000000 1.0
C      1  0.5079770000000  0.5761280000000  0.4877310000000 1.0
C      1  0.4402400000000  0.5067880000000  0.6277350000000 1.0
C      1  0.5686290000000  0.4914650000000  0.3715740000000 1.0
C      1  0.4687420000000  0.4965350000000  0.5847820000000 1.0
C      1  0.5404410000000  0.4999760000000  0.4151140000000 1.0
C      1  0.5396970000000  0.5156440000000  0.4614980000000 1.0
C      1  0.4723600000000  0.5016590000000  0.5359510000000 1.0
C      1  0.4545980000000  0.5017680000000  0.6065630000000 1.0
C      1  0.5545800000000  0.4956930000000  0.3931230000000 1.0
END
