TITL C-3623287-7182-1363 0.0721940473950118 125000 -441.538721205616 0 0 73 (C1) n - 1
REM
REM in /home/nfs/bkarasulu/CARBON/AIRSS/Generating-Clusters/LCBOP/Higher-Symm/SD-CG/FIRE-CG
REM
REM
REM
REM
REM
REM ./C.cell (b20cbc046b6831c77cfcea5457e17084)
REM AIRSS Version 0.9.1 bugfix July 2018 build 013d7b7c2542+ Fri, 06 Jul 2018 19:26:36 +0100
REM compiler GCC version 9.2.1 20190827 (Red Hat 9.2.1-1)
REM options -cpp -mtune=generic -march=x86-64 -g -O0 -fpre-include=/usr/include/finclude/math-vector-fortran.h
REM seed -1316121687 2082215254 1933278011 646669612 822278875 -1702340317 735443899 246179559 -840864843 -953678290 -255409466 406815262 1477652760 1390463598 860736683 -1895560029 -319074146 910812672 -1017584234 -105330926 -2019894807 -1449928600 562399683 -1539647726 307166171 -1502176035 -1808223581 -658086229 -643087758 589986533 744610990 -1647372769 -1946599472
REM
CELL 1.54180   50.00000   50.00000   50.00000   90.00000   90.00000   90.00000
LATT -1
SFAC C  
C      1  0.4974840000000  0.5144080000000  0.4302610000000 1.0
C      1  0.5497660000000  0.4871010000000  0.4492370000000 1.0
C      1  0.5698020000000  0.5139780000000  0.5028190000000 1.0
C      1  0.5483950000000  0.4858440000000  0.5509820000000 1.0
C      1  0.4994330000000  0.5135640000000  0.5656630000000 1.0
C      1  0.4525950000000  0.4857890000000  0.5473030000000 1.0
C      1  0.4309110000000  0.5138610000000  0.5014670000000 1.0
C      1  0.4486810000000  0.4856330000000  0.4519400000000 1.0
C      1  0.4495180000000  0.5559600000000  0.5184470000000 1.0
C      1  0.4513240000000  0.4435900000000  0.4774430000000 1.0
C      1  0.4824640000000  0.5551470000000  0.4519970000000 1.0
C      1  0.5229210000000  0.4458350000000  0.4527050000000 1.0
C      1  0.5523260000000  0.5560320000000  0.4837270000000 1.0
C      1  0.5497920000000  0.4434830000000  0.5255070000000 1.0
C      1  0.5168310000000  0.5557220000000  0.5495000000000 1.0
C      1  0.4772970000000  0.4436180000000  0.5475310000000 1.0
C      1  0.5175630000000  0.5898130000000  0.4825490000000 1.0
C      1  0.5222930000000  0.4125010000000  0.4993480000000 1.0
C      1  0.5157870000000  0.5893380000000  0.5153910000000 1.0
C      1  0.5020840000000  0.4109310000000  0.5220350000000 1.0
C      1  0.4853120000000  0.5887480000000  0.5157170000000 1.0
C      1  0.4769710000000  0.4100270000000  0.5009540000000 1.0
C      1  0.4830140000000  0.5889320000000  0.4863960000000 1.0
C      1  0.5002140000000  0.4120040000000  0.4782110000000 1.0
C      1  0.4926490000000  0.4821450000000  0.4705930000000 1.0
C      1  0.5244130000000  0.5145050000000  0.4812460000000 1.0
C      1  0.5265900000000  0.4794230000000  0.5066450000000 1.0
C      1  0.5160000000000  0.5216470000000  0.5093890000000 1.0
C      1  0.5017980000000  0.4802300000000  0.5226780000000 1.0
C      1  0.4863740000000  0.5207510000000  0.5112900000000 1.0
C      1  0.4753300000000  0.4800820000000  0.5004980000000 1.0
C      1  0.4728840000000  0.5205690000000  0.4852310000000 1.0
C      1  0.5297680000000  0.5683080000000  0.4692460000000 1.0
C      1  0.5431340000000  0.4319930000000  0.4987730000000 1.0
C      1  0.5312030000000  0.5698080000000  0.5288330000000 1.0
C      1  0.5026100000000  0.4302110000000  0.5426840000000 1.0
C      1  0.4713690000000  0.5698250000000  0.5316560000000 1.0
C      1  0.4571030000000  0.4298220000000  0.5024260000000 1.0
C      1  0.4679490000000  0.5693410000000  0.4728090000000 1.0
C      1  0.4978350000000  0.4318240000000  0.4580600000000 1.0
C      1  0.4603250000000  0.5121140000000  0.4591430000000 1.0
C      1  0.5000900000000  0.4879170000000  0.4413730000000 1.0
C      1  0.5472010000000  0.5130920000000  0.4625630000000 1.0
C      1  0.5561460000000  0.4873410000000  0.5077760000000 1.0
C      1  0.5353770000000  0.5115410000000  0.5390860000000 1.0
C      1  0.4970140000000  0.4881020000000  0.5513340000000 1.0
C      1  0.4607170000000  0.5113770000000  0.5350010000000 1.0
C      1  0.4455050000000  0.4877690000000  0.4975060000000 1.0
C      1  0.4277350000000  0.5360610000000  0.4823590000000 1.0
C      1  0.4615000000000  0.4639250000000  0.4367850000000 1.0
C      1  0.5182110000000  0.5347940000000  0.4303290000000 1.0
C      1  0.5640100000000  0.4652750000000  0.4630320000000 1.0
C      1  0.5699870000000  0.5360310000000  0.5222370000000 1.0
C      1  0.5346680000000  0.4643170000000  0.5650810000000 1.0
C      1  0.4801050000000  0.5350720000000  0.5690340000000 1.0
C      1  0.4369300000000  0.4640340000000  0.5358690000000 1.0
C      1  0.4755850000000  0.4707760000000  0.5586610000000 1.0
C      1  0.4406020000000  0.5287340000000  0.5255560000000 1.0
C      1  0.4383280000000  0.4702950000000  0.4756640000000 1.0
C      1  0.4741450000000  0.5289440000000  0.4406390000000 1.0
C      1  0.5248660000000  0.4725970000000  0.4391660000000 1.0
C      1  0.5651940000000  0.5296370000000  0.4770550000000 1.0
C      1  0.5631720000000  0.4704550000000  0.5298130000000 1.0
C      1  0.5234760000000  0.5286580000000  0.5576600000000 1.0
C      1  0.4455750000000  0.5587490000000  0.4883670000000 1.0
C      1  0.4706620000000  0.4417860000000  0.4539320000000 1.0
C      1  0.5127330000000  0.5564690000000  0.4490490000000 1.0
C      1  0.5465130000000  0.4436800000000  0.4721100000000 1.0
C      1  0.5533450000000  0.5585970000000  0.5139550000000 1.0
C      1  0.5288910000000  0.4414290000000  0.5478250000000 1.0
C      1  0.4869840000000  0.5584670000000  0.5529850000000 1.0
C      1  0.4535600000000  0.4410510000000  0.5287940000000 1.0
C      1  0.5170620000000  0.4869670000000  0.4817010000000 1.0
END
