TITL C-3623289-7120-1011 -8.95886050815254e-07 125000 -907.3941398347 0 0 150 (C1) n - 1
REM
REM in /home/nfs/bkarasulu/CARBON/AIRSS/Generating-Clusters/LCBOP/Higher-Symm/SD-CG/FIRE-CG
REM
REM
REM
REM
REM
REM ./C.cell (b20cbc046b6831c77cfcea5457e17084)
REM AIRSS Version 0.9.1 bugfix July 2018 build 013d7b7c2542+ Fri, 06 Jul 2018 19:26:36 +0100
REM compiler GCC version 9.2.1 20190827 (Red Hat 9.2.1-1)
REM options -cpp -mtune=generic -march=x86-64 -g -O0 -fpre-include=/usr/include/finclude/math-vector-fortran.h
REM seed 1786738319 1350777286 584854024 1607302656 -1887105804 -1121772861 -1526794432 -2104845391 -991364983 -2108995350 -1297661039 1815173235 -1943986901 -1753925609 615881961 53263467 1611556521 -174172785 -73532491 -447984839 292496768 -1994299038 1119699387 -154087263 1997861342 278157355 990775794 110305590 1110755754 79631128 1399972406 358793462 -1030409369
REM
CELL 1.54180   50.00000   50.00000   50.00000   90.00000   90.00000   90.00000
LATT -1
SFAC C  
C      1  0.5285150000000  0.4553030000000  0.5181510000000 1.0
C      1  0.4724400000000  0.4817430000000  0.4557610000000 1.0
C      1  0.5292220000000  0.5459230000000  0.4823750000000 1.0
C      1  0.4719220000000  0.5193360000000  0.5440790000000 1.0
C      1  0.5247680000000  0.5730770000000  0.4900430000000 1.0
C      1  0.4742910000000  0.5102880000000  0.5710570000000 1.0
C      1  0.5235580000000  0.4286060000000  0.5096740000000 1.0
C      1  0.4746030000000  0.4909260000000  0.4287830000000 1.0
C      1  0.5636810000000  0.5086000000000  0.6006370000000 1.0
C      1  0.4341510000000  0.4087480000000  0.5063300000000 1.0
C      1  0.5647670000000  0.4915080000000  0.3992580000000 1.0
C      1  0.4367860000000  0.5993040000000  0.4885400000000 1.0
C      1  0.4250590000000  0.4953920000000  0.5755430000000 1.0
C      1  0.5749870000000  0.4264050000000  0.4927100000000 1.0
C      1  0.4261880000000  0.5032490000000  0.4290680000000 1.0
C      1  0.5749780000000  0.5739480000000  0.5075720000000 1.0
C      1  0.4968900000000  0.4384450000000  0.4717000000000 1.0
C      1  0.5005390000000  0.5307110000000  0.4394610000000 1.0
C      1  0.4968740000000  0.5621660000000  0.5267520000000 1.0
C      1  0.5000700000000  0.4697740000000  0.5615000000000 1.0
C      1  0.4993330000000  0.4276610000000  0.4962990000000 1.0
C      1  0.4969140000000  0.5073330000000  0.4254820000000 1.0
C      1  0.5002000000000  0.5745540000000  0.5029160000000 1.0
C      1  0.4961770000000  0.4934490000000  0.5748180000000 1.0
C      1  0.4837950000000  0.5872390000000  0.5647890000000 1.0
C      1  0.5153250000000  0.4342780000000  0.5880270000000 1.0
C      1  0.4858830000000  0.4125580000000  0.4330520000000 1.0
C      1  0.5156270000000  0.5648580000000  0.4117090000000 1.0
C      1  0.5193810000000  0.4906770000000  0.4276190000000 1.0
C      1  0.4808570000000  0.5693680000000  0.4833270000000 1.0
C      1  0.5185860000000  0.5102680000000  0.5725860000000 1.0
C      1  0.4793120000000  0.4327110000000  0.5150890000000 1.0
C      1  0.5834670000000  0.4795640000000  0.4526240000000 1.0
C      1  0.4162950000000  0.5464890000000  0.4783350000000 1.0
C      1  0.5830130000000  0.5208620000000  0.5478700000000 1.0
C      1  0.4160790000000  0.4581650000000  0.5257990000000 1.0
C      1  0.4680110000000  0.5456370000000  0.4074210000000 1.0
C      1  0.5313220000000  0.5916130000000  0.5469990000000 1.0
C      1  0.4678050000000  0.4530350000000  0.5934740000000 1.0
C      1  0.5324030000000  0.4084900000000  0.4528920000000 1.0
C      1  0.5168300000000  0.5403140000000  0.4578650000000 1.0
C      1  0.4891790000000  0.5399710000000  0.5379010000000 1.0
C      1  0.5164200000000  0.4605810000000  0.5428850000000 1.0
C      1  0.4900270000000  0.4610180000000  0.4608360000000 1.0
C      1  0.4461260000000  0.4077560000000  0.5333410000000 1.0
C      1  0.5508650000000  0.4665370000000  0.4033280000000 1.0
C      1  0.4489480000000  0.5951650000000  0.4625760000000 1.0
C      1  0.5501320000000  0.5339200000000  0.5969760000000 1.0
C      1  0.4369390000000  0.5936390000000  0.5151840000000 1.0
C      1  0.5640400000000  0.4820640000000  0.5944790000000 1.0
C      1  0.4311440000000  0.4217580000000  0.4802590000000 1.0
C      1  0.5652850000000  0.5180430000000  0.4051620000000 1.0
C      1  0.5593520000000  0.5422150000000  0.4158900000000 1.0
C      1  0.4420450000000  0.5831700000000  0.5397310000000 1.0
C      1  0.5584020000000  0.4578100000000  0.5836380000000 1.0
C      1  0.4432260000000  0.4153000000000  0.4555960000000 1.0
C      1  0.5487930000000  0.4743500000000  0.5093320000000 1.0
C      1  0.4525130000000  0.4852050000000  0.4766800000000 1.0
C      1  0.5491300000000  0.5264530000000  0.4912060000000 1.0
C      1  0.4513890000000  0.5144050000000  0.5240610000000 1.0
C      1  0.4595580000000  0.4259470000000  0.4344550000000 1.0
C      1  0.5426780000000  0.5638470000000  0.4261200000000 1.0
C      1  0.4573910000000  0.5733830000000  0.5623980000000 1.0
C      1  0.5420530000000  0.4358560000000  0.5735120000000 1.0
C      1  0.6245970000000  0.5136790000000  0.5021530000000 1.0
C      1  0.3758550000000  0.4994990000000  0.5172200000000 1.0
C      1  0.6245790000000  0.4868080000000  0.4988200000000 1.0
C      1  0.3779150000000  0.4993690000000  0.4902140000000 1.0
C      1  0.5229150000000  0.4708400000000  0.4076010000000 1.0
C      1  0.4772460000000  0.5908780000000  0.4648960000000 1.0
C      1  0.5221210000000  0.5300610000000  0.5926470000000 1.0
C      1  0.4749060000000  0.4101980000000  0.5323530000000 1.0
C      1  0.5696780000000  0.5674190000000  0.4772500000000 1.0
C      1  0.4308170000000  0.5244940000000  0.5666100000000 1.0
C      1  0.5689380000000  0.4328010000000  0.5227760000000 1.0
C      1  0.4314590000000  0.4730080000000  0.4357900000000 1.0
C      1  0.4183650000000  0.4476700000000  0.4794950000000 1.0
C      1  0.5925160000000  0.5257690000000  0.4621980000000 1.0
C      1  0.4075780000000  0.5405000000000  0.5253970000000 1.0
C      1  0.5918780000000  0.4744880000000  0.5382850000000 1.0
C      1  0.5292660000000  0.4902420000000  0.4538600000000 1.0
C      1  0.4714210000000  0.5430710000000  0.4807660000000 1.0
C      1  0.5286830000000  0.5106810000000  0.5464630000000 1.0
C      1  0.4714400000000  0.4591080000000  0.5206960000000 1.0
C      1  0.5132910000000  0.5009700000000  0.5233900000000 1.0
C      1  0.4866260000000  0.4839440000000  0.5164150000000 1.0
C      1  0.5134810000000  0.5001620000000  0.4766940000000 1.0
C      1  0.4861300000000  0.5176580000000  0.4837660000000 1.0
C      1  0.5971690000000  0.4440110000000  0.4818890000000 1.0
C      1  0.4040930000000  0.5143350000000  0.4456960000000 1.0
C      1  0.5970060000000  0.5564720000000  0.5187880000000 1.0
C      1  0.4011920000000  0.4847130000000  0.5612300000000 1.0
C      1  0.5496370000000  0.4223750000000  0.5464780000000 1.0
C      1  0.4509760000000  0.4525080000000  0.4226330000000 1.0
C      1  0.5509280000000  0.5775330000000  0.4529420000000 1.0
C      1  0.4493960000000  0.5476320000000  0.5768610000000 1.0
C      1  0.4853940000000  0.4599350000000  0.6159950000000 1.0
C      1  0.5158180000000  0.3851660000000  0.4587860000000 1.0
C      1  0.4854040000000  0.5381400000000  0.3848580000000 1.0
C      1  0.5148420000000  0.6149810000000  0.5406940000000 1.0
C      1  0.5557110000000  0.5160830000000  0.5437070000000 1.0
C      1  0.4438110000000  0.4627440000000  0.5238210000000 1.0
C      1  0.5561860000000  0.4844320000000  0.4568900000000 1.0
C      1  0.4435590000000  0.5414740000000  0.4824880000000 1.0
C      1  0.5114260000000  0.5488740000000  0.3869250000000 1.0
C      1  0.4887740000000  0.6129930000000  0.5509950000000 1.0
C      1  0.5113440000000  0.4493100000000  0.6133650000000 1.0
C      1  0.4902930000000  0.3869080000000  0.4472560000000 1.0
C      1  0.4342240000000  0.4189570000000  0.5571350000000 1.0
C      1  0.5626210000000  0.4440740000000  0.4166430000000 1.0
C      1  0.4359060000000  0.5809150000000  0.4413230000000 1.0
C      1  0.5619540000000  0.5564090000000  0.5837390000000 1.0
C      1  0.5279520000000  0.5907440000000  0.4668430000000 1.0
C      1  0.4718750000000  0.5330720000000  0.5894160000000 1.0
C      1  0.5260860000000  0.4102240000000  0.5323630000000 1.0
C      1  0.4725220000000  0.4681420000000  0.4102690000000 1.0
C      1  0.4074280000000  0.4582090000000  0.5524290000000 1.0
C      1  0.5902710000000  0.4524230000000  0.4551870000000 1.0
C      1  0.4091590000000  0.5420190000000  0.4515140000000 1.0
C      1  0.5897640000000  0.5480470000000  0.5453620000000 1.0
C      1  0.4303550000000  0.4694950000000  0.4656040000000 1.0
C      1  0.5725990000000  0.5374970000000  0.4777330000000 1.0
C      1  0.4279390000000  0.5254400000000  0.5370700000000 1.0
C      1  0.5720510000000  0.4627140000000  0.5226360000000 1.0
C      1  0.5141450000000  0.4226790000000  0.4331520000000 1.0
C      1  0.4863610000000  0.5668230000000  0.4203500000000 1.0
C      1  0.5122720000000  0.5772440000000  0.5659550000000 1.0
C      1  0.4861150000000  0.4327690000000  0.5793700000000 1.0
C      1  0.5988290000000  0.4980010000000  0.5489890000000 1.0
C      1  0.4026860000000  0.4531900000000  0.5020420000000 1.0
C      1  0.5994150000000  0.5023080000000  0.4513970000000 1.0
C      1  0.4008220000000  0.5497310000000  0.5012040000000 1.0
C      1  0.5708370000000  0.5653590000000  0.5580790000000 1.0
C      1  0.4263390000000  0.4441320000000  0.5687100000000 1.0
C      1  0.5715810000000  0.4350680000000  0.4422500000000 1.0
C      1  0.4275130000000  0.5546340000000  0.4334370000000 1.0
C      1  0.5571640000000  0.4193660000000  0.4624850000000 1.0
C      1  0.4433470000000  0.5344440000000  0.4192580000000 1.0
C      1  0.5564320000000  0.5809020000000  0.5376980000000 1.0
C      1  0.4427210000000  0.4639510000000  0.5831510000000 1.0
C      1  0.3829370000000  0.4975880000000  0.5434040000000 1.0
C      1  0.6159090000000  0.4614580000000  0.4945060000000 1.0
C      1  0.3871560000000  0.5016110000000  0.4648360000000 1.0
C      1  0.6159240000000  0.5390400000000  0.5064030000000 1.0
C      1  0.4975790000000  0.4612510000000  0.3981040000000 1.0
C      1  0.5029240000000  0.6018530000000  0.4576560000000 1.0
C      1  0.4967840000000  0.5400390000000  0.6017840000000 1.0
C      1  0.5004610000000  0.3990780000000  0.5402520000000 1.0
C      1  0.4656260000000  0.5004620000000  0.5001380000000 1.0
C      1  0.5342180000000  0.5004890000000  0.5002090000000 1.0
END
