TITL C-3623285-6872-1096 16546.0054865395 125000 -843.900522087551 0 0 137 (C3h) n - 1
REM
REM in /home/nfs/bkarasulu/CARBON/AIRSS/Generating-Clusters/LCBOP/Higher-Symm/SD-CG/FIRE-CG
REM
REM
REM
REM
REM
REM ./C.cell (b20cbc046b6831c77cfcea5457e17084)
REM AIRSS Version 0.9.1 bugfix July 2018 build 013d7b7c2542+ Fri, 06 Jul 2018 19:26:36 +0100
REM compiler GCC version 9.2.1 20190827 (Red Hat 9.2.1-1)
REM options -cpp -mtune=generic -march=x86-64 -g -O0 -fpre-include=/usr/include/finclude/math-vector-fortran.h
REM seed -1984524166 -1179735150 1886952628 169479412 461437318 -2028246427 -1680144154 122030108 -492072773 -1349151108 1867525516 -922624867 -792871418 -507290931 349488187 1510801084 770240911 253034488 -821420130 1502679843 -773064028 1098944689 1755428205 1212865761 -546455470 -128787191 -289800487 105560554 451854917 -1867457821 1642598876 -1730450590 884126922
REM
CELL 1.54180   50.00000   50.00000   50.00000   90.00000   90.00000   90.00000
LATT -1
SFAC C  
C      1  0.4848350000000  0.5297200000000  0.4218010000000 1.0
C      1  0.5749590000000  0.5296900000000  0.5262350000000 1.0
C      1  0.4394170000000  0.5296780000000  0.5520650000000 1.0
C      1  0.4848310000000  0.4684800000000  0.4217900000000 1.0
C      1  0.5749550000000  0.4684760000000  0.5262410000000 1.0
C      1  0.4394270000000  0.4684710000000  0.5520600000000 1.0
C      1  0.5388950000000  0.4407680000000  0.4395510000000 1.0
C      1  0.5325290000000  0.4407680000000  0.5641680000000 1.0
C      1  0.4277820000000  0.4407700000000  0.4963590000000 1.0
C      1  0.5389040000000  0.5573990000000  0.4395560000000 1.0
C      1  0.5325230000000  0.5574260000000  0.5641530000000 1.0
C      1  0.4277680000000  0.5573850000000  0.4963720000000 1.0
C      1  0.5546180000000  0.4276220000000  0.5511610000000 1.0
C      1  0.4279670000000  0.4276350000000  0.5219950000000 1.0
C      1  0.5165920000000  0.4276160000000  0.4269260000000 1.0
C      1  0.5546080000000  0.5705600000000  0.5511240000000 1.0
C      1  0.4279090000000  0.5705070000000  0.5220130000000 1.0
C      1  0.5166010000000  0.5705770000000  0.4269570000000 1.0
C      1  0.4855830000000  0.6082440000000  0.5162890000000 1.0
C      1  0.4926150000000  0.6081820000000  0.4799810000000 1.0
C      1  0.5211490000000  0.6082830000000  0.5035330000000 1.0
C      1  0.4857230000000  0.3899240000000  0.5163840000000 1.0
C      1  0.4925450000000  0.3899620000000  0.4798700000000 1.0
C      1  0.5210150000000  0.3899160000000  0.5037070000000 1.0
C      1  0.4096730000000  0.4657680000000  0.4458150000000 1.0
C      1  0.5917220000000  0.4657720000000  0.4491140000000 1.0
C      1  0.4978150000000  0.4657760000000  0.6051280000000 1.0
C      1  0.4096840000000  0.5324140000000  0.4458230000000 1.0
C      1  0.5917370000000  0.5323710000000  0.4490930000000 1.0
C      1  0.4978080000000  0.5324190000000  0.6051200000000 1.0
C      1  0.5906190000000  0.4437750000000  0.4652630000000 1.0
C      1  0.4843920000000  0.4437730000000  0.5960900000000 1.0
C      1  0.4242120000000  0.4437640000000  0.4387120000000 1.0
C      1  0.5906410000000  0.5543690000000  0.4652370000000 1.0
C      1  0.4843770000000  0.5544160000000  0.5960770000000 1.0
C      1  0.4242210000000  0.5544240000000  0.4387300000000 1.0
C      1  0.5446680000000  0.5667560000000  0.4661880000000 1.0
C      1  0.5065800000000  0.5668140000000  0.5558250000000 1.0
C      1  0.4479660000000  0.5667880000000  0.4781010000000 1.0
C      1  0.5446490000000  0.4313940000000  0.4661830000000 1.0
C      1  0.5065910000000  0.4313810000000  0.5558330000000 1.0
C      1  0.4479730000000  0.4313820000000  0.4780740000000 1.0
C      1  0.5442380000000  0.4705300000000  0.4343860000000 1.0
C      1  0.5343240000000  0.4705360000000  0.5713830000000 1.0
C      1  0.4206440000000  0.4705330000000  0.4943020000000 1.0
C      1  0.5442420000000  0.5276360000000  0.4343870000000 1.0
C      1  0.5343200000000  0.5276570000000  0.5713780000000 1.0
C      1  0.4206390000000  0.5276230000000  0.4943080000000 1.0
C      1  0.5052850000000  0.4731320000000  0.4722760000000 1.0
C      1  0.5209970000000  0.4731290000000  0.5187090000000 1.0
C      1  0.4729320000000  0.4731300000000  0.5091010000000 1.0
C      1  0.5052870000000  0.5250360000000  0.4722780000000 1.0
C      1  0.5209910000000  0.5250500000000  0.5187100000000 1.0
C      1  0.4729300000000  0.5250350000000  0.5091100000000 1.0
C      1  0.5691640000000  0.4845950000000  0.5032750000000 1.0
C      1  0.4622100000000  0.4845930000000  0.5585250000000 1.0
C      1  0.4678390000000  0.4846080000000  0.4382840000000 1.0
C      1  0.5691650000000  0.5135680000000  0.5032730000000 1.0
C      1  0.4622070000000  0.5135660000000  0.5585280000000 1.0
C      1  0.4678400000000  0.5135850000000  0.4382890000000 1.0
C      1  0.5040920000000  0.5141210000000  0.4079300000000 1.0
C      1  0.5773150000000  0.5141050000000  0.5498530000000 1.0
C      1  0.4177860000000  0.5140870000000  0.5423050000000 1.0
C      1  0.5040930000000  0.4840790000000  0.4079300000000 1.0
C      1  0.5773170000000  0.4840690000000  0.5498560000000 1.0
C      1  0.4177890000000  0.4840550000000  0.5423020000000 1.0
C      1  0.5696930000000  0.4399270000000  0.5281130000000 1.0
C      1  0.4404290000000  0.4399270000000  0.5465590000000 1.0
C      1  0.4890940000000  0.4399250000000  0.4254180000000 1.0
C      1  0.5697080000000  0.5582410000000  0.5280990000000 1.0
C      1  0.4404070000000  0.5582210000000  0.5465620000000 1.0
C      1  0.4891010000000  0.5582760000000  0.4254470000000 1.0
C      1  0.4834570000000  0.5696770000000  0.5719900000000 1.0
C      1  0.4455240000000  0.5696880000000  0.4499990000000 1.0
C      1  0.5702500000000  0.5696170000000  0.4780880000000 1.0
C      1  0.4834750000000  0.4285090000000  0.5720060000000 1.0
C      1  0.4455230000000  0.4285040000000  0.4499690000000 1.0
C      1  0.5702200000000  0.4285230000000  0.4781030000000 1.0
C      1  0.4496540000000  0.4837090000000  0.4925960000000 1.0
C      1  0.5312180000000  0.4837090000000  0.4603680000000 1.0
C      1  0.5183410000000  0.4837150000000  0.5471170000000 1.0
C      1  0.4496520000000  0.5144570000000  0.4926010000000 1.0
C      1  0.5312190000000  0.5144570000000  0.4603680000000 1.0
C      1  0.5183360000000  0.5144670000000  0.5471170000000 1.0
C      1  0.5176590000000  0.5142610000000  0.5949340000000 1.0
C      1  0.4085810000000  0.5142430000000  0.4681000000000 1.0
C      1  0.5729640000000  0.5142310000000  0.4370260000000 1.0
C      1  0.5176610000000  0.4839360000000  0.5949360000000 1.0
C      1  0.4085790000000  0.4839270000000  0.4680980000000 1.0
C      1  0.5729620000000  0.4839200000000  0.4370300000000 1.0
C      1  0.5235830000000  0.4348380000000  0.4850460000000 1.0
C      1  0.5007940000000  0.4348250000000  0.5281590000000 1.0
C      1  0.4748430000000  0.4348340000000  0.4868790000000 1.0
C      1  0.5235960000000  0.5633260000000  0.4850510000000 1.0
C      1  0.5007920000000  0.5633610000000  0.5281540000000 1.0
C      1  0.4748390000000  0.5633290000000  0.4868940000000 1.0
C      1  0.5464880000000  0.3984310000000  0.5136900000000 1.0
C      1  0.4644650000000  0.3984220000000  0.5336200000000 1.0
C      1  0.4882820000000  0.3984360000000  0.4527920000000 1.0
C      1  0.5465650000000  0.5997430000000  0.5136180000000 1.0
C      1  0.4643800000000  0.5997480000000  0.5335960000000 1.0
C      1  0.4883180000000  0.5997330000000  0.4528910000000 1.0
C      1  0.4378430000000  0.4002510000000  0.5214760000000 1.0
C      1  0.5121140000000  0.4002440000000  0.4358010000000 1.0
C      1  0.5491900000000  0.4002510000000  0.5428240000000 1.0
C      1  0.4377320000000  0.5979060000000  0.5215100000000 1.0
C      1  0.5121430000000  0.5979390000000  0.4358800000000 1.0
C      1  0.5491870000000  0.5979240000000  0.5427560000000 1.0
C      1  0.4708290000000  0.4200910000000  0.4392430000000 1.0
C      1  0.5668970000000  0.4201090000000  0.5053800000000 1.0
C      1  0.4615170000000  0.4200970000000  0.5554750000000 1.0
C      1  0.4708450000000  0.5781050000000  0.4393020000000 1.0
C      1  0.5669580000000  0.5780460000000  0.5053580000000 1.0
C      1  0.4614910000000  0.5780680000000  0.5554550000000 1.0
C      1  0.5325310000000  0.5213360000000  0.4072550000000 1.0
C      1  0.5636700000000  0.5213420000000  0.5748090000000 1.0
C      1  0.4029910000000  0.5213160000000  0.5180100000000 1.0
C      1  0.5325280000000  0.4768450000000  0.4072570000000 1.0
C      1  0.5636730000000  0.4768480000000  0.5748160000000 1.0
C      1  0.4029950000000  0.4768280000000  0.5180070000000 1.0
C      1  0.4988990000000  0.5534710000000  0.4736400000000 1.0
C      1  0.5230280000000  0.5534870000000  0.5125020000000 1.0
C      1  0.4772970000000  0.5534730000000  0.5139720000000 1.0
C      1  0.4988950000000  0.4446960000000  0.4736300000000 1.0
C      1  0.5230260000000  0.4446920000000  0.5124970000000 1.0
C      1  0.4772980000000  0.4446930000000  0.5139620000000 1.0
C      1  0.4575340000000  0.5223320000000  0.4630100000000 1.0
C      1  0.5529100000000  0.5223190000000  0.4819890000000 1.0
C      1  0.4887640000000  0.5223260000000  0.5550920000000 1.0
C      1  0.4575340000000  0.4758490000000  0.4630010000000 1.0
C      1  0.5529090000000  0.4758430000000  0.4819890000000 1.0
C      1  0.4887710000000  0.4758450000000  0.5550860000000 1.0
C      1  0.5683860000000  0.4990980000000  0.5928450000000 1.0
C      1  0.5457840000000  0.4990900000000  0.3941510000000 1.0
C      1  0.3850160000000  0.4990710000000  0.5130800000000 1.0
C      1  0.4997380000000  0.5134140000000  0.5000290000000 1.0
C      1  0.4997390000000  0.4847570000000  0.5000290000000 1.0
END
