TITL C-3623287-7182-1303 -3.74904390539081e-07 125000 -485.775284926342 0 0 81 (C1) n - 1
REM
REM in /home/nfs/bkarasulu/CARBON/AIRSS/Generating-Clusters/LCBOP/Higher-Symm/SD-CG/FIRE-CG
REM
REM
REM
REM
REM
REM ./C.cell (b20cbc046b6831c77cfcea5457e17084)
REM AIRSS Version 0.9.1 bugfix July 2018 build 013d7b7c2542+ Fri, 06 Jul 2018 19:26:36 +0100
REM compiler GCC version 9.2.1 20190827 (Red Hat 9.2.1-1)
REM options -cpp -mtune=generic -march=x86-64 -g -O0 -fpre-include=/usr/include/finclude/math-vector-fortran.h
REM seed 997882837 -216279678 723146492 1020399890 1536933535 -168879926 358806248 759922482 1089002746 852754093 -1175809124 1889648067 -1595791073 -1738824152 -1322451652 -412544852 -1450970655 -1415077882 873155930 470261455 -1709121723 2048113547 735364455 -684042142 66520337 -1262252008 1779805430 1857765452 1092068135 242787065 -1595651184 524136811 -1056093023
REM
CELL 1.54180   50.00000   50.00000   50.00000   90.00000   90.00000   90.00000
LATT -1
SFAC C  
C      1  0.5161070000000  0.5369600000000  0.4897250000000 1.0
C      1  0.4204820000000  0.4749050000000  0.5153070000000 1.0
C      1  0.4958290000000  0.5732020000000  0.4438740000000 1.0
C      1  0.4744750000000  0.4693770000000  0.5444530000000 1.0
C      1  0.5786920000000  0.5486710000000  0.4606000000000 1.0
C      1  0.5217350000000  0.5759070000000  0.4592720000000 1.0
C      1  0.5640010000000  0.5256230000000  0.4519100000000 1.0
C      1  0.5310700000000  0.4415450000000  0.4827790000000 1.0
C      1  0.4915070000000  0.4773300000000  0.5237780000000 1.0
C      1  0.4988100000000  0.5621730000000  0.4174400000000 1.0
C      1  0.5099250000000  0.4992960000000  0.5240300000000 1.0
C      1  0.4706980000000  0.5640710000000  0.4569850000000 1.0
C      1  0.5383640000000  0.4955980000000  0.5167760000000 1.0
C      1  0.4964090000000  0.4177410000000  0.5396250000000 1.0
C      1  0.4926120000000  0.5216610000000  0.5317720000000 1.0
C      1  0.4567260000000  0.5288910000000  0.5623330000000 1.0
C      1  0.4391320000000  0.5116410000000  0.5447060000000 1.0
C      1  0.5475210000000  0.5869450000000  0.4688060000000 1.0
C      1  0.4694980000000  0.5829100000000  0.5077640000000 1.0
C      1  0.4999920000000  0.4349640000000  0.5620380000000 1.0
C      1  0.5221970000000  0.5523840000000  0.5143790000000 1.0
C      1  0.4252210000000  0.5109320000000  0.4809130000000 1.0
C      1  0.4331770000000  0.5338550000000  0.4691880000000 1.0
C      1  0.5292010000000  0.4719370000000  0.5813620000000 1.0
C      1  0.4318200000000  0.5034720000000  0.4243820000000 1.0
C      1  0.4641810000000  0.5625680000000  0.5267300000000 1.0
C      1  0.5375540000000  0.5321480000000  0.4458990000000 1.0
C      1  0.5488910000000  0.4385940000000  0.5042870000000 1.0
C      1  0.4115580000000  0.4493710000000  0.5069920000000 1.0
C      1  0.5162720000000  0.5801740000000  0.5147480000000 1.0
C      1  0.4718380000000  0.5355710000000  0.5174610000000 1.0
C      1  0.5322950000000  0.4290660000000  0.4571810000000 1.0
C      1  0.4232560000000  0.4783010000000  0.4306230000000 1.0
C      1  0.5125940000000  0.4939340000000  0.5893890000000 1.0
C      1  0.5101120000000  0.5186600000000  0.5748200000000 1.0
C      1  0.4375600000000  0.4378980000000  0.4632360000000 1.0
C      1  0.5665770000000  0.4199510000000  0.5451950000000 1.0
C      1  0.5576380000000  0.4929730000000  0.5404130000000 1.0
C      1  0.5730620000000  0.4670950000000  0.5359580000000 1.0
C      1  0.5078790000000  0.4570630000000  0.4859490000000 1.0
C      1  0.5263780000000  0.5486040000000  0.4661000000000 1.0
C      1  0.4777640000000  0.4528020000000  0.5667870000000 1.0
C      1  0.4183560000000  0.4366470000000  0.4839470000000 1.0
C      1  0.4853900000000  0.5217560000000  0.5605470000000 1.0
C      1  0.5240260000000  0.4466840000000  0.5721710000000 1.0
C      1  0.4548610000000  0.5394810000000  0.4509680000000 1.0
C      1  0.4398730000000  0.4592560000000  0.4432710000000 1.0
C      1  0.4888940000000  0.4845500000000  0.6025280000000 1.0
C      1  0.5608500000000  0.4980300000000  0.4936210000000 1.0
C      1  0.4852820000000  0.4121990000000  0.5155750000000 1.0
C      1  0.5873200000000  0.5018690000000  0.5084780000000 1.0
C      1  0.5621730000000  0.4416700000000  0.5291490000000 1.0
C      1  0.4562200000000  0.5146800000000  0.4344170000000 1.0
C      1  0.5054950000000  0.5362370000000  0.4119810000000 1.0
C      1  0.5692840000000  0.5687720000000  0.4794000000000 1.0
C      1  0.4821330000000  0.4407670000000  0.4480320000000 1.0
C      1  0.5768040000000  0.5157520000000  0.5324280000000 1.0
C      1  0.4738020000000  0.4144990000000  0.4911940000000 1.0
C      1  0.4690040000000  0.4657070000000  0.4398900000000 1.0
C      1  0.4348050000000  0.4877240000000  0.4936300000000 1.0
C      1  0.4761190000000  0.4939630000000  0.4402160000000 1.0
C      1  0.4856840000000  0.4686800000000  0.4979020000000 1.0
C      1  0.5305980000000  0.5346610000000  0.5623950000000 1.0
C      1  0.4736550000000  0.4644350000000  0.5922870000000 1.0
C      1  0.5734220000000  0.5607690000000  0.5070510000000 1.0
C      1  0.5541850000000  0.4160170000000  0.4476450000000 1.0
C      1  0.5081610000000  0.4318580000000  0.4425550000000 1.0
C      1  0.4629210000000  0.5784370000000  0.4805090000000 1.0
C      1  0.5664190000000  0.5421880000000  0.5283040000000 1.0
C      1  0.4474150000000  0.5213420000000  0.5185520000000 1.0
C      1  0.5024340000000  0.5136350000000  0.4782960000000 1.0
C      1  0.5390060000000  0.5442100000000  0.5365540000000 1.0
C      1  0.5169480000000  0.5191910000000  0.4317660000000 1.0
C      1  0.4645600000000  0.4266040000000  0.4672210000000 1.0
C      1  0.4606570000000  0.4773500000000  0.4887210000000 1.0
C      1  0.4543720000000  0.5574620000000  0.5537800000000 1.0
C      1  0.5957710000000  0.4762840000000  0.5194530000000 1.0
C      1  0.5648830000000  0.5013570000000  0.4660920000000 1.0
C      1  0.4232500000000  0.4882180000000  0.5407800000000 1.0
C      1  0.4943350000000  0.5954850000000  0.5122700000000 1.0
C      1  0.5000270000000  0.5048130000000  0.4504590000000 1.0
END
