TITL C-3623284-6838-1817 0.244047815452943 125000 -610.533396086703 0 0 101 (C1) n - 1
REM
REM in /home/nfs/bkarasulu/CARBON/AIRSS/Generating-Clusters/LCBOP/Higher-Symm/SD-CG/FIRE-CG
REM
REM
REM
REM
REM
REM ./C.cell (b20cbc046b6831c77cfcea5457e17084)
REM AIRSS Version 0.9.1 bugfix July 2018 build 013d7b7c2542+ Fri, 06 Jul 2018 19:26:36 +0100
REM compiler GCC version 9.2.1 20190827 (Red Hat 9.2.1-1)
REM options -cpp -mtune=generic -march=x86-64 -g -O0 -fpre-include=/usr/include/finclude/math-vector-fortran.h
REM seed -1669615815 676977486 -552675995 -422519412 24614940 -1437604110 235962705 -1597622596 1576753535 -1478641533 839211073 -2003463661 -227317799 828187414 82730632 1777356193 1992545459 625824859 1402745260 -606833276 393435063 -1997667341 -1727955525 533863927 -320910360 -1348553033 -1378753066 1964481300 -1740457043 -300159157 2103435623 1562149383 1110614935
REM
CELL 1.54180   50.00000   50.00000   50.00000   90.00000   90.00000   90.00000
LATT -1
SFAC C  
C      1  0.5576220000000  0.4614170000000  0.4910700000000 1.0
C      1  0.5028410000000  0.5637290000000  0.5001170000000 1.0
C      1  0.4400580000000  0.4614470000000  0.4834110000000 1.0
C      1  0.4121370000000  0.5357780000000  0.4796260000000 1.0
C      1  0.5181910000000  0.4056930000000  0.4700780000000 1.0
C      1  0.5734440000000  0.5689450000000  0.4559010000000 1.0
C      1  0.4876910000000  0.5202790000000  0.5247740000000 1.0
C      1  0.4764080000000  0.4691150000000  0.5178370000000 1.0
C      1  0.5244230000000  0.4827790000000  0.5229990000000 1.0
C      1  0.5114680000000  0.5237090000000  0.4493970000000 1.0
C      1  0.4785470000000  0.4897810000000  0.4353920000000 1.0
C      1  0.5247880000000  0.4786560000000  0.4373000000000 1.0
C      1  0.6303380000000  0.6265560000000  0.4557580000000 1.0
C      1  0.4350310000000  0.5846900000000  0.5209940000000 1.0
C      1  0.4802280000000  0.3587160000000  0.5112930000000 1.0
C      1  0.4598830000000  0.5177270000000  0.5677070000000 1.0
C      1  0.4839740000000  0.4429070000000  0.5605660000000 1.0
C      1  0.5352500000000  0.5014170000000  0.5668950000000 1.0
C      1  0.5040130000000  0.5450980000000  0.5216650000000 1.0
C      1  0.4491900000000  0.4723120000000  0.5079400000000 1.0
C      1  0.5393800000000  0.4602160000000  0.5129170000000 1.0
C      1  0.4113630000000  0.5205710000000  0.5798870000000 1.0
C      1  0.5257870000000  0.4127650000000  0.5638580000000 1.0
C      1  0.5332080000000  0.5830000000000  0.5717690000000 1.0
C      1  0.5475610000000  0.4838030000000  0.5850100000000 1.0
C      1  0.4617900000000  0.5434310000000  0.5827820000000 1.0
C      1  0.4566720000000  0.4337970000000  0.5690520000000 1.0
C      1  0.5395820000000  0.5013430000000  0.5386450000000 1.0
C      1  0.4612050000000  0.5232870000000  0.5372340000000 1.0
C      1  0.4858810000000  0.4435070000000  0.5294190000000 1.0
C      1  0.4841020000000  0.5002650000000  0.5736810000000 1.0
C      1  0.4833150000000  0.4723950000000  0.5702580000000 1.0
C      1  0.5100480000000  0.5114130000000  0.5756020000000 1.0
C      1  0.4753220000000  0.5715850000000  0.4913310000000 1.0
C      1  0.4475340000000  0.4328240000000  0.4767570000000 1.0
C      1  0.5774810000000  0.4813020000000  0.4847260000000 1.0
C      1  0.5494530000000  0.5736080000000  0.4703910000000 1.0
C      1  0.3894830000000  0.5207130000000  0.4753120000000 1.0
C      1  0.5439650000000  0.4180840000000  0.4681210000000 1.0
C      1  0.5035610000000  0.4037450000000  0.4454430000000 1.0
C      1  0.5785110000000  0.5449680000000  0.4415670000000 1.0
C      1  0.4248170000000  0.5476180000000  0.4565920000000 1.0
C      1  0.5491910000000  0.4472060000000  0.4653030000000 1.0
C      1  0.5222760000000  0.5625500000000  0.4759040000000 1.0
C      1  0.4404490000000  0.4764590000000  0.4588240000000 1.0
C      1  0.4358430000000  0.4118630000000  0.4939670000000 1.0
C      1  0.6486890000000  0.6450740000000  0.4557270000000 1.0
C      1  0.4593380000000  0.5874050000000  0.5099590000000 1.0
C      1  0.4864660000000  0.4417880000000  0.4166190000000 1.0
C      1  0.5625720000000  0.5041410000000  0.4182090000000 1.0
C      1  0.4683590000000  0.5446080000000  0.4293670000000 1.0
C      1  0.5047420000000  0.4044430000000  0.4961640000000 1.0
C      1  0.5930380000000  0.5889130000000  0.4558200000000 1.0
C      1  0.4212420000000  0.5386910000000  0.5072110000000 1.0
C      1  0.5220460000000  0.4586380000000  0.4573300000000 1.0
C      1  0.5279760000000  0.5313650000000  0.4737380000000 1.0
C      1  0.4593000000000  0.4979040000000  0.4558110000000 1.0
C      1  0.5296110000000  0.5467180000000  0.5339530000000 1.0
C      1  0.4320700000000  0.4919110000000  0.5184090000000 1.0
C      1  0.5320520000000  0.4345220000000  0.5220400000000 1.0
C      1  0.5513400000000  0.4797660000000  0.4273900000000 1.0
C      1  0.4956860000000  0.5459960000000  0.4388490000000 1.0
C      1  0.4700490000000  0.4642940000000  0.4234900000000 1.0
C      1  0.4551160000000  0.5849740000000  0.4485410000000 1.0
C      1  0.4567130000000  0.4094590000000  0.4333710000000 1.0
C      1  0.6000040000000  0.5000410000000  0.4458590000000 1.0
C      1  0.4842510000000  0.4153380000000  0.4280270000000 1.0
C      1  0.5824960000000  0.5185160000000  0.4326900000000 1.0
C      1  0.4456820000000  0.5590000000000  0.4406040000000 1.0
C      1  0.4336430000000  0.5040490000000  0.5751830000000 1.0
C      1  0.5072270000000  0.4303500000000  0.5760150000000 1.0
C      1  0.5150960000000  0.5899650000000  0.5900520000000 1.0
C      1  0.4360800000000  0.4501060000000  0.5752920000000 1.0
C      1  0.5379360000000  0.4632970000000  0.5994740000000 1.0
C      1  0.4713590000000  0.5651330000000  0.5946560000000 1.0
C      1  0.6116800000000  0.6077290000000  0.4557890000000 1.0
C      1  0.4180290000000  0.5639840000000  0.5193370000000 1.0
C      1  0.4920920000000  0.3806410000000  0.5037090000000 1.0
C      1  0.5703360000000  0.5079120000000  0.4891040000000 1.0
C      1  0.4642030000000  0.5434580000000  0.4848520000000 1.0
C      1  0.4774730000000  0.4360470000000  0.4766400000000 1.0
C      1  0.5023440000000  0.5701050000000  0.4535050000000 1.0
C      1  0.4442470000000  0.4572370000000  0.4365440000000 1.0
C      1  0.5678860000000  0.4621120000000  0.4444020000000 1.0
C      1  0.5443370000000  0.5251920000000  0.5238590000000 1.0
C      1  0.4369610000000  0.5193190000000  0.5218380000000 1.0
C      1  0.5053000000000  0.4267240000000  0.5150350000000 1.0
C      1  0.5471570000000  0.5224810000000  0.4949320000000 1.0
C      1  0.4627370000000  0.5191740000000  0.4735770000000 1.0
C      1  0.4984370000000  0.4510770000000  0.4698570000000 1.0
C      1  0.4418290000000  0.4298210000000  0.4464950000000 1.0
C      1  0.5891240000000  0.4769550000000  0.4585280000000 1.0
C      1  0.4790600000000  0.5844040000000  0.4638510000000 1.0
C      1  0.4908230000000  0.5828660000000  0.5985080000000 1.0
C      1  0.4303640000000  0.4761580000000  0.5771910000000 1.0
C      1  0.5184100000000  0.4449070000000  0.5977070000000 1.0
C      1  0.5378880000000  0.5664360000000  0.5514950000000 1.0
C      1  0.3908540000000  0.5364530000000  0.5823920000000 1.0
C      1  0.5420960000000  0.4191710000000  0.5432360000000 1.0
C      1  0.5053880000000  0.4985320000000  0.4380070000000 1.0
C      1  0.4961490000000  0.4912350000000  0.5193420000000 1.0
END
