TITL C-3623287-7182-1839 4190.80347535972 125000 -681.270634845991 0 0 114 (C1) n - 1
REM
REM in /home/nfs/bkarasulu/CARBON/AIRSS/Generating-Clusters/LCBOP/Higher-Symm/SD-CG/FIRE-CG
REM
REM
REM
REM
REM
REM ./C.cell (b20cbc046b6831c77cfcea5457e17084)
REM AIRSS Version 0.9.1 bugfix July 2018 build 013d7b7c2542+ Fri, 06 Jul 2018 19:26:36 +0100
REM compiler GCC version 9.2.1 20190827 (Red Hat 9.2.1-1)
REM options -cpp -mtune=generic -march=x86-64 -g -O0 -fpre-include=/usr/include/finclude/math-vector-fortran.h
REM seed -105092767 1567708826 940095242 942815544 -1007218226 777556483 -1755206681 -307351046 -2146229456 -458660183 -470714506 1422591492 1484155271 66399376 -891863428 -1578406867 1222898784 -1281145968 -1261644661 -877782539 -1142975528 1270562187 1659880740 -197644569 165931711 -1423068103 -1840912280 871098437 629381452 -308543197 409542615 312745427 -1881217182
REM
CELL 1.54180   50.00000   50.00000   50.00000   90.00000   90.00000   90.00000
LATT -1
SFAC C  
C      1  0.4565660000000  0.5576760000000  0.5618530000000 1.0
C      1  0.4571070000000  0.5259060000000  0.4235770000000 1.0
C      1  0.4521980000000  0.4144270000000  0.5125990000000 1.0
C      1  0.5509740000000  0.5556580000000  0.4340430000000 1.0
C      1  0.5492180000000  0.5283420000000  0.5795250000000 1.0
C      1  0.5512410000000  0.4134910000000  0.4886120000000 1.0
C      1  0.4837830000000  0.6180200000000  0.5216940000000 1.0
C      1  0.4829530000000  0.4605230000000  0.3933670000000 1.0
C      1  0.4830870000000  0.4224720000000  0.5819550000000 1.0
C      1  0.5222820000000  0.6137410000000  0.4767230000000 1.0
C      1  0.5214340000000  0.4623120000000  0.6042210000000 1.0
C      1  0.5218100000000  0.4238990000000  0.4185090000000 1.0
C      1  0.4978530000000  0.4196470000000  0.5260100000000 1.0
C      1  0.5014960000000  0.5612700000000  0.5406130000000 1.0
C      1  0.5017650000000  0.5050300000000  0.4332280000000 1.0
C      1  0.5061610000000  0.4185200000000  0.4733800000000 1.0
C      1  0.5061270000000  0.5684540000000  0.4445520000000 1.0
C      1  0.5039060000000  0.5133780000000  0.5839470000000 1.0
C      1  0.5705260000000  0.5118990000000  0.5330920000000 1.0
C      1  0.5722590000000  0.5243330000000  0.4719330000000 1.0
C      1  0.5708770000000  0.4642700000000  0.4938660000000 1.0
C      1  0.4320730000000  0.5117820000000  0.4678350000000 1.0
C      1  0.4319390000000  0.5243120000000  0.5281770000000 1.0
C      1  0.4309190000000  0.4637860000000  0.5078850000000 1.0
C      1  0.4945580000000  0.4169190000000  0.4131570000000 1.0
C      1  0.4938760000000  0.4611580000000  0.6105400000000 1.0
C      1  0.4948110000000  0.6216540000000  0.4736920000000 1.0
C      1  0.5111590000000  0.4191000000000  0.5830250000000 1.0
C      1  0.5105950000000  0.4613860000000  0.3887220000000 1.0
C      1  0.5113650000000  0.6226870000000  0.5242240000000 1.0
C      1  0.5112890000000  0.5663230000000  0.5124750000000 1.0
C      1  0.5119280000000  0.4787010000000  0.4451600000000 1.0
C      1  0.5355420000000  0.4603210000000  0.5438290000000 1.0
C      1  0.4479340000000  0.5826310000000  0.4828500000000 1.0
C      1  0.4666810000000  0.4747340000000  0.5573460000000 1.0
C      1  0.4499620000000  0.4450060000000  0.4453050000000 1.0
C      1  0.5346310000000  0.4679790000000  0.4309790000000 1.0
C      1  0.5481160000000  0.4491620000000  0.5663850000000 1.0
C      1  0.5347230000000  0.5826240000000  0.5103320000000 1.0
C      1  0.4549120000000  0.4609610000000  0.5788800000000 1.0
C      1  0.4479340000000  0.4382060000000  0.4180040000000 1.0
C      1  0.4475140000000  0.6097290000000  0.4908050000000 1.0
C      1  0.5943920000000  0.4786200000000  0.4967410000000 1.0
C      1  0.5940930000000  0.5066840000000  0.5195470000000 1.0
C      1  0.5951060000000  0.5140110000000  0.4837080000000 1.0
C      1  0.4079210000000  0.4789410000000  0.5049790000000 1.0
C      1  0.4086130000000  0.5068080000000  0.4816280000000 1.0
C      1  0.4084150000000  0.5145600000000  0.5173430000000 1.0
C      1  0.5648420000000  0.5902800000000  0.4753530000000 1.0
C      1  0.5649840000000  0.4330680000000  0.4384780000000 1.0
C      1  0.5666980000000  0.4779650000000  0.5988910000000 1.0
C      1  0.4400550000000  0.6091670000000  0.5378420000000 1.0
C      1  0.4369970000000  0.4188710000000  0.5678200000000 1.0
C      1  0.4391370000000  0.4786630000000  0.3947020000000 1.0
C      1  0.4546640000000  0.5129320000000  0.5173130000000 1.0
C      1  0.4550240000000  0.5069740000000  0.4824360000000 1.0
C      1  0.4541600000000  0.4786040000000  0.5063710000000 1.0
C      1  0.5487710000000  0.5140880000000  0.4824220000000 1.0
C      1  0.5477010000000  0.5089010000000  0.5177740000000 1.0
C      1  0.5481830000000  0.4801040000000  0.4937660000000 1.0
C      1  0.4358940000000  0.5208390000000  0.4415250000000 1.0
C      1  0.4337730000000  0.4359030000000  0.5111940000000 1.0
C      1  0.4360860000000  0.5445290000000  0.5473390000000 1.0
C      1  0.5675760000000  0.5190210000000  0.5601230000000 1.0
C      1  0.5679940000000  0.4362570000000  0.4914660000000 1.0
C      1  0.5699110000000  0.5439870000000  0.4517880000000 1.0
C      1  0.5268380000000  0.4511200000000  0.4090830000000 1.0
C      1  0.5295530000000  0.4403720000000  0.5864270000000 1.0
C      1  0.5278850000000  0.6100650000000  0.5053350000000 1.0
C      1  0.4745930000000  0.4475000000000  0.5948710000000 1.0
C      1  0.4737110000000  0.4352020000000  0.4053250000000 1.0
C      1  0.4741360000000  0.6205560000000  0.4938850000000 1.0
C      1  0.4917650000000  0.4827010000000  0.5469170000000 1.0
C      1  0.4660560000000  0.5645300000000  0.4909940000000 1.0
C      1  0.4679360000000  0.4606800000000  0.4575960000000 1.0
C      1  0.4952230000000  0.4642690000000  0.4643650000000 1.0
C      1  0.4936920000000  0.5589050000000  0.4908670000000 1.0
C      1  0.5098680000000  0.4653930000000  0.5326390000000 1.0
C      1  0.5032410000000  0.4453800000000  0.4845090000000 1.0
C      1  0.4996670000000  0.5082470000000  0.5559850000000 1.0
C      1  0.5021760000000  0.5494800000000  0.4657530000000 1.0
C      1  0.5019730000000  0.4457400000000  0.5134730000000 1.0
C      1  0.4998420000000  0.5229060000000  0.4575210000000 1.0
C      1  0.4983940000000  0.5312030000000  0.5402910000000 1.0
C      1  0.4670180000000  0.4838060000000  0.3989700000000 1.0
C      1  0.4644140000000  0.4126230000000  0.5618330000000 1.0
C      1  0.4677240000000  0.6017860000000  0.5395100000000 1.0
C      1  0.5393360000000  0.4852400000000  0.6038660000000 1.0
C      1  0.5411610000000  0.4165860000000  0.4393630000000 1.0
C      1  0.5413390000000  0.5980490000000  0.4602730000000 1.0
C      1  0.4659860000000  0.5521730000000  0.4182660000000 1.0
C      1  0.4606400000000  0.4013330000000  0.4889010000000 1.0
C      1  0.4654380000000  0.5465370000000  0.5863720000000 1.0
C      1  0.5404120000000  0.5550610000000  0.5764390000000 1.0
C      1  0.5426530000000  0.4000050000000  0.5119790000000 1.0
C      1  0.5404840000000  0.5376920000000  0.4147540000000 1.0
C      1  0.4317760000000  0.4448520000000  0.5747690000000 1.0
C      1  0.4302470000000  0.6152530000000  0.5129830000000 1.0
C      1  0.4296480000000  0.4543390000000  0.4029970000000 1.0
C      1  0.5606080000000  0.4602290000000  0.4393650000000 1.0
C      1  0.5601650000000  0.5772340000000  0.4991010000000 1.0
C      1  0.5713270000000  0.4609220000000  0.5779510000000 1.0
C      1  0.5327810000000  0.4116920000000  0.4662340000000 1.0
C      1  0.5308660000000  0.5101240000000  0.5926120000000 1.0
C      1  0.5330740000000  0.5772120000000  0.4422860000000 1.0
C      1  0.4714090000000  0.4131430000000  0.5341660000000 1.0
C      1  0.4752320000000  0.5040930000000  0.4176020000000 1.0
C      1  0.4750220000000  0.5751200000000  0.5477430000000 1.0
C      1  0.5226740000000  0.5176210000000  0.4152660000000 1.0
C      1  0.5200180000000  0.4022720000000  0.5263900000000 1.0
C      1  0.5224470000000  0.5677960000000  0.5610810000000 1.0
C      1  0.4838260000000  0.5292370000000  0.5958540000000 1.0
C      1  0.4832500000000  0.4021800000000  0.4742240000000 1.0
C      1  0.4854030000000  0.5693370000000  0.4255610000000 1.0
END
