TITL C-3623283-6828-1279 12702.7434192182 125000 -1131.13699662085 0 0 186 (C1) n - 1
REM
REM in /home/nfs/bkarasulu/CARBON/AIRSS/Generating-Clusters/LCBOP/Higher-Symm/SD-CG/FIRE-CG
REM
REM
REM
REM
REM
REM ./C.cell (b20cbc046b6831c77cfcea5457e17084)
REM AIRSS Version 0.9.1 bugfix July 2018 build 013d7b7c2542+ Fri, 06 Jul 2018 19:26:36 +0100
REM compiler GCC version 9.2.1 20190827 (Red Hat 9.2.1-1)
REM options -cpp -mtune=generic -march=x86-64 -g -O0 -fpre-include=/usr/include/finclude/math-vector-fortran.h
REM seed 1150837813 1595546860 -791755523 -1977826509 582859128 -1585083942 445929413 -936520562 -1293514396 -2069158979 -359631256 -1132598151 1865162738 -1816659883 -102258418 -1803415660 -1228176599 2012988401 1056923622 -778673090 1641156667 1158129306 1915584365 590530598 -770625869 119153961 -1141596126 2059216115 521340132 -1520770308 307760997 1160588395 -765619381
REM
CELL 1.54180   50.00000   50.00000   50.00000   90.00000   90.00000   90.00000
LATT -1
SFAC C  
C      1  0.5563280000000  0.4827440000000  0.5710240000000 1.0
C      1  0.5534410000000  0.5347770000000  0.5778290000000 1.0
C      1  0.5039280000000  0.5594300000000  0.5680040000000 1.0
C      1  0.4551660000000  0.5448700000000  0.5774990000000 1.0
C      1  0.4403860000000  0.4916110000000  0.5742410000000 1.0
C      1  0.4712320000000  0.4433290000000  0.5765780000000 1.0
C      1  0.5220240000000  0.4389910000000  0.5790890000000 1.0
C      1  0.4003620000000  0.5464610000000  0.5487040000000 1.0
C      1  0.4009090000000  0.4486210000000  0.5531260000000 1.0
C      1  0.4777520000000  0.3878830000000  0.5505820000000 1.0
C      1  0.5700520000000  0.4132480000000  0.5489660000000 1.0
C      1  0.6124630000000  0.5017820000000  0.5529900000000 1.0
C      1  0.5692550000000  0.5872780000000  0.5495070000000 1.0
C      1  0.4734250000000  0.6117630000000  0.5507450000000 1.0
C      1  0.5356360000000  0.3958860000000  0.4549060000000 1.0
C      1  0.6010410000000  0.4626930000000  0.4592460000000 1.0
C      1  0.5926480000000  0.5572420000000  0.4566530000000 1.0
C      1  0.5173870000000  0.6085450000000  0.4583600000000 1.0
C      1  0.4199650000000  0.5781210000000  0.4522660000000 1.0
C      1  0.3934090000000  0.4855730000000  0.4610500000000 1.0
C      1  0.4418410000000  0.4090210000000  0.4570270000000 1.0
C      1  0.5271880000000  0.4680820000000  0.4905870000000 1.0
C      1  0.5460800000000  0.4936500000000  0.4892430000000 1.0
C      1  0.5109930000000  0.5424530000000  0.4945500000000 1.0
C      1  0.4833850000000  0.5514390000000  0.4886000000000 1.0
C      1  0.4589910000000  0.5334560000000  0.4900100000000 1.0
C      1  0.4686420000000  0.4704270000000  0.4964370000000 1.0
C      1  0.4961640000000  0.4574760000000  0.4925180000000 1.0
C      1  0.4464600000000  0.4560450000000  0.5087390000000 1.0
C      1  0.4959730000000  0.4295000000000  0.5046710000000 1.0
C      1  0.5462480000000  0.4501570000000  0.5065520000000 1.0
C      1  0.5690560000000  0.5047260000000  0.5024810000000 1.0
C      1  0.5289580000000  0.5612660000000  0.5104370000000 1.0
C      1  0.4727720000000  0.5768960000000  0.5002210000000 1.0
C      1  0.4384310000000  0.5235100000000  0.5074640000000 1.0
C      1  0.5741740000000  0.5162200000000  0.4594260000000 1.0
C      1  0.5371240000000  0.5678850000000  0.4643780000000 1.0
C      1  0.4653340000000  0.5774460000000  0.4537880000000 1.0
C      1  0.4242950000000  0.5176880000000  0.4641230000000 1.0
C      1  0.4399090000000  0.4544710000000  0.4635940000000 1.0
C      1  0.4988640000000  0.4223100000000  0.4590000000000 1.0
C      1  0.5580800000000  0.4483420000000  0.4605920000000 1.0
C      1  0.5024160000000  0.5430920000000  0.4060680000000 1.0
C      1  0.4689630000000  0.5272320000000  0.4068810000000 1.0
C      1  0.4592790000000  0.4918340000000  0.4086850000000 1.0
C      1  0.4809800000000  0.4627210000000  0.4060600000000 1.0
C      1  0.5175520000000  0.4611330000000  0.4053030000000 1.0
C      1  0.5411060000000  0.4892340000000  0.4071460000000 1.0
C      1  0.5340710000000  0.5252280000000  0.4073350000000 1.0
C      1  0.5841560000000  0.5223630000000  0.4859340000000 1.0
C      1  0.5363150000000  0.5811500000000  0.4907020000000 1.0
C      1  0.4559470000000  0.5873030000000  0.4795810000000 1.0
C      1  0.4161040000000  0.5129680000000  0.4919330000000 1.0
C      1  0.4337610000000  0.4406110000000  0.4887650000000 1.0
C      1  0.5041910000000  0.4107120000000  0.4849920000000 1.0
C      1  0.5682070000000  0.4453610000000  0.4880640000000 1.0
C      1  0.4522870000000  0.4014130000000  0.5544610000000 1.0
C      1  0.5449940000000  0.3998740000000  0.5542420000000 1.0
C      1  0.6038780000000  0.4740970000000  0.5557390000000 1.0
C      1  0.5872960000000  0.5654600000000  0.5552580000000 1.0
C      1  0.5023580000000  0.6085260000000  0.5539320000000 1.0
C      1  0.4175590000000  0.5694440000000  0.5525200000000 1.0
C      1  0.3949730000000  0.4769050000000  0.5572720000000 1.0
C      1  0.5853550000000  0.3997150000000  0.4970710000000 1.0
C      1  0.6308960000000  0.5045320000000  0.5006840000000 1.0
C      1  0.5797700000000  0.6053170000000  0.4980170000000 1.0
C      1  0.4694100000000  0.6310690000000  0.4982750000000 1.0
C      1  0.3807040000000  0.5494160000000  0.4969630000000 1.0
C      1  0.3846720000000  0.4362740000000  0.5011510000000 1.0
C      1  0.4761350000000  0.3704210000000  0.4975620000000 1.0
C      1  0.5345250000000  0.3798970000000  0.5061870000000 1.0
C      1  0.6122600000000  0.4517830000000  0.5090190000000 1.0
C      1  0.6083480000000  0.5583600000000  0.5075050000000 1.0
C      1  0.5234810000000  0.6241990000000  0.5085060000000 1.0
C      1  0.4152010000000  0.5925890000000  0.5040600000000 1.0
C      1  0.3769870000000  0.4907870000000  0.5107940000000 1.0
C      1  0.4285930000000  0.3967900000000  0.5073020000000 1.0
C      1  0.4444850000000  0.5725410000000  0.4353940000000 1.0
C      1  0.4136510000000  0.5003500000000  0.4448700000000 1.0
C      1  0.4456310000000  0.4355780000000  0.4428950000000 1.0
C      1  0.5172850000000  0.4139990000000  0.4392000000000 1.0
C      1  0.5767030000000  0.4590300000000  0.4421820000000 1.0
C      1  0.5790800000000  0.5360660000000  0.4404300000000 1.0
C      1  0.5249800000000  0.5833230000000  0.4435730000000 1.0
C      1  0.4662570000000  0.6248560000000  0.5250750000000 1.0
C      1  0.3857370000000  0.5462180000000  0.5236120000000 1.0
C      1  0.3907850000000  0.4376450000000  0.5278690000000 1.0
C      1  0.4800670000000  0.3746110000000  0.5244780000000 1.0
C      1  0.5827450000000  0.4060130000000  0.5236730000000 1.0
C      1  0.6257640000000  0.5072370000000  0.5274840000000 1.0
C      1  0.5742120000000  0.6012880000000  0.5245010000000 1.0
C      1  0.5810750000000  0.6015150000000  0.4709030000000 1.0
C      1  0.4759910000000  0.6295820000000  0.4713690000000 1.0
C      1  0.3840540000000  0.5511980000000  0.4698920000000 1.0
C      1  0.3851210000000  0.4403840000000  0.4739450000000 1.0
C      1  0.4720430000000  0.3741920000000  0.4705610000000 1.0
C      1  0.5812090000000  0.3989980000000  0.4698860000000 1.0
C      1  0.6281420000000  0.4997920000000  0.4737860000000 1.0
C      1  0.5374260000000  0.3824030000000  0.5328510000000 1.0
C      1  0.6143500000000  0.4571600000000  0.5352170000000 1.0
C      1  0.6060120000000  0.5612130000000  0.5341230000000 1.0
C      1  0.5173020000000  0.6234610000000  0.5346500000000 1.0
C      1  0.4160530000000  0.5879270000000  0.5306190000000 1.0
C      1  0.3772320000000  0.4871160000000  0.5373850000000 1.0
C      1  0.4333930000000  0.3956870000000  0.5337780000000 1.0
C      1  0.4634840000000  0.5385500000000  0.5501010000000 1.0
C      1  0.4503660000000  0.4804040000000  0.5498330000000 1.0
C      1  0.4868330000000  0.4487060000000  0.5500410000000 1.0
C      1  0.5170880000000  0.4481450000000  0.5517610000000 1.0
C      1  0.5562620000000  0.5008960000000  0.5486080000000 1.0
C      1  0.5474290000000  0.5279450000000  0.5499160000000 1.0
C      1  0.4854260000000  0.5558280000000  0.5456670000000 1.0
C      1  0.5268770000000  0.5424370000000  0.4690570000000 1.0
C      1  0.4837780000000  0.5573630000000  0.4587600000000 1.0
C      1  0.4499890000000  0.5262870000000  0.4640250000000 1.0
C      1  0.4559470000000  0.4767100000000  0.4707890000000 1.0
C      1  0.4914120000000  0.4484100000000  0.4623240000000 1.0
C      1  0.5329850000000  0.4593080000000  0.4614580000000 1.0
C      1  0.5512460000000  0.5018010000000  0.4622260000000 1.0
C      1  0.5729670000000  0.4955490000000  0.5275350000000 1.0
C      1  0.5419350000000  0.5480670000000  0.5314060000000 1.0
C      1  0.4808510000000  0.5757110000000  0.5266290000000 1.0
C      1  0.4456450000000  0.5255650000000  0.5337250000000 1.0
C      1  0.4350410000000  0.4687230000000  0.5301570000000 1.0
C      1  0.4823860000000  0.4291000000000  0.5287360000000 1.0
C      1  0.5369200000000  0.4469120000000  0.5323700000000 1.0
C      1  0.5995530000000  0.4947660000000  0.4260110000000 1.0
C      1  0.5658990000000  0.5757160000000  0.4237620000000 1.0
C      1  0.4877020000000  0.6011590000000  0.4236200000000 1.0
C      1  0.4126180000000  0.5427630000000  0.4232690000000 1.0
C      1  0.4092820000000  0.4591360000000  0.4264890000000 1.0
C      1  0.4726900000000  0.4044110000000  0.4233540000000 1.0
C      1  0.5591890000000  0.4189880000000  0.4224650000000 1.0
C      1  0.4697000000000  0.5151120000000  0.4486080000000 1.0
C      1  0.4720320000000  0.4883270000000  0.4516580000000 1.0
C      1  0.4925510000000  0.4714080000000  0.4465840000000 1.0
C      1  0.5188570000000  0.4774990000000  0.4452090000000 1.0
C      1  0.5288990000000  0.5026120000000  0.4465950000000 1.0
C      1  0.5160580000000  0.5262250000000  0.4493450000000 1.0
C      1  0.4899910000000  0.5329930000000  0.4461190000000 1.0
C      1  0.5822820000000  0.5430880000000  0.5740590000000 1.0
C      1  0.5168650000000  0.5859390000000  0.5662480000000 1.0
C      1  0.4404630000000  0.5711410000000  0.5715310000000 1.0
C      1  0.4117640000000  0.4971790000000  0.5708280000000 1.0
C      1  0.4481270000000  0.4256840000000  0.5706600000000 1.0
C      1  0.5239550000000  0.4090290000000  0.5731910000000 1.0
C      1  0.5791920000000  0.4641120000000  0.5685030000000 1.0
C      1  0.5817710000000  0.5831050000000  0.4488940000000 1.0
C      1  0.4912340000000  0.6177720000000  0.4494480000000 1.0
C      1  0.4003730000000  0.5572140000000  0.4471160000000 1.0
C      1  0.3923010000000  0.4578990000000  0.4521930000000 1.0
C      1  0.4626520000000  0.3905610000000  0.4486300000000 1.0
C      1  0.5632100000000  0.4017700000000  0.4475140000000 1.0
C      1  0.6144030000000  0.4874070000000  0.4517360000000 1.0
C      1  0.4030580000000  0.5240670000000  0.5660220000000 1.0
C      1  0.4214230000000  0.4361600000000  0.5686580000000 1.0
C      1  0.4991980000000  0.3943680000000  0.5686120000000 1.0
C      1  0.5760350000000  0.4359250000000  0.5650350000000 1.0
C      1  0.6017550000000  0.5217490000000  0.5706350000000 1.0
C      1  0.5451920000000  0.5887230000000  0.5644290000000 1.0
C      1  0.4560090000000  0.5957090000000  0.5675070000000 1.0
C      1  0.5962910000000  0.4524130000000  0.4861250000000 1.0
C      1  0.5974610000000  0.5477310000000  0.4840800000000 1.0
C      1  0.5264220000000  0.6077860000000  0.4860860000000 1.0
C      1  0.4272230000000  0.5887850000000  0.4789370000000 1.0
C      1  0.3934370000000  0.4953110000000  0.4887280000000 1.0
C      1  0.4325760000000  0.4124480000000  0.4844410000000 1.0
C      1  0.5260060000000  0.3921990000000  0.4825060000000 1.0
C      1  0.4823040000000  0.4685830000000  0.5939530000000 1.0
C      1  0.5137410000000  0.4652450000000  0.5941040000000 1.0
C      1  0.5331050000000  0.4887910000000  0.5895410000000 1.0
C      1  0.5296340000000  0.5202520000000  0.5913420000000 1.0
C      1  0.5034900000000  0.5352330000000  0.5874520000000 1.0
C      1  0.4743300000000  0.5255240000000  0.5923760000000 1.0
C      1  0.4649860000000  0.4957380000000  0.5918690000000 1.0
C      1  0.5311510000000  0.4306540000000  0.4188600000000 1.0
C      1  0.5729410000000  0.4803480000000  0.4217100000000 1.0
C      1  0.5602420000000  0.5460130000000  0.4203320000000 1.0
C      1  0.5057790000000  0.5761910000000  0.4211640000000 1.0
C      1  0.4419950000000  0.5483330000000  0.4182470000000 1.0
C      1  0.4268600000000  0.4842700000000  0.4235760000000 1.0
C      1  0.4656460000000  0.4340710000000  0.4208270000000 1.0
C      1  0.5103330000000  0.5163060000000  0.5057490000000 1.0
C      1  0.4777200000000  0.4764490000000  0.5463930000000 1.0
C      1  0.4967110000000  0.4958830000000  0.5480160000000 1.0
C      1  0.5119710000000  0.5046340000000  0.5288930000000 1.0
END
