TITL C-3623288-6813-1494 -1.57412962206526e-06 125000 -1190.37705561664 0 0 182 (C1) n - 1
REM
REM in /home/nfs/bkarasulu/CARBON/AIRSS/Generating-Clusters/LCBOP/Higher-Symm/SD-CG/FIRE-CG
REM
REM
REM
REM
REM
REM ./C.cell (b20cbc046b6831c77cfcea5457e17084)
REM AIRSS Version 0.9.1 bugfix July 2018 build 013d7b7c2542+ Fri, 06 Jul 2018 19:26:36 +0100
REM compiler GCC version 9.2.1 20190827 (Red Hat 9.2.1-1)
REM options -cpp -mtune=generic -march=x86-64 -g -O0 -fpre-include=/usr/include/finclude/math-vector-fortran.h
REM seed 8411532 481963958 916793402 -1393432152 350971576 -44017158 -850489834 427353990 -1491969900 829420414 -598012292 -459102189 -541290153 387638521 840538809 799685908 511204906 46867375 -1384102007 803182185 777508641 -436064248 805914861 -1829625081 1262522520 -66467763 253416943 808906860 -135988008 -1017817776 1369424269 -538895015 1008359347
REM
CELL 1.54180   50.00000   50.00000   50.00000   90.00000   90.00000   90.00000
LATT -1
SFAC C  
C      1  0.5074830000000  0.5738900000000  0.4891910000000 1.0
C      1  0.5083440000000  0.4530290000000  0.4402080000000 1.0
C      1  0.5098870000000  0.4715540000000  0.5716570000000 1.0
C      1  0.4913490000000  0.5733590000000  0.5113470000000 1.0
C      1  0.4937440000000  0.4526700000000  0.5603390000000 1.0
C      1  0.4928130000000  0.4725760000000  0.4289280000000 1.0
C      1  0.4905640000000  0.4238380000000  0.5112380000000 1.0
C      1  0.4883080000000  0.5462810000000  0.5605920000000 1.0
C      1  0.4882520000000  0.5291010000000  0.4282210000000 1.0
C      1  0.5068840000000  0.4234990000000  0.4893450000000 1.0
C      1  0.5052130000000  0.5470960000000  0.4399910000000 1.0
C      1  0.5053580000000  0.5274130000000  0.5708530000000 1.0
C      1  0.5605090000000  0.5250390000000  0.4645220000000 1.0
C      1  0.5619520000000  0.4566420000000  0.4953950000000 1.0
C      1  0.5610460000000  0.5177350000000  0.5393720000000 1.0
C      1  0.4291620000000  0.5173650000000  0.5213380000000 1.0
C      1  0.4383690000000  0.4712160000000  0.5053220000000 1.0
C      1  0.4291900000000  0.5071670000000  0.4723950000000 1.0
C      1  0.4384350000000  0.4703180000000  0.5328910000000 1.0
C      1  0.4351040000000  0.5422410000000  0.5058550000000 1.0
C      1  0.4362010000000  0.4818910000000  0.4587380000000 1.0
C      1  0.5623740000000  0.4803550000000  0.4806660000000 1.0
C      1  0.5618460000000  0.5261130000000  0.4923510000000 1.0
C      1  0.5626320000000  0.4931780000000  0.5262520000000 1.0
C      1  0.4708870000000  0.5143520000000  0.3878690000000 1.0
C      1  0.4704220000000  0.3977000000000  0.5439910000000 1.0
C      1  0.4705380000000  0.5886340000000  0.5684010000000 1.0
C      1  0.5288680000000  0.5143950000000  0.6101950000000 1.0
C      1  0.5288990000000  0.3973170000000  0.4571730000000 1.0
C      1  0.5287730000000  0.5877860000000  0.4331100000000 1.0
C      1  0.5291980000000  0.4858330000000  0.6110790000000 1.0
C      1  0.5285600000000  0.6018240000000  0.4579650000000 1.0
C      1  0.5286740000000  0.4117450000000  0.4324530000000 1.0
C      1  0.4710560000000  0.4857200000000  0.3889900000000 1.0
C      1  0.4705830000000  0.6019320000000  0.5430470000000 1.0
C      1  0.4708390000000  0.4122950000000  0.5684310000000 1.0
C      1  0.6169470000000  0.5143810000000  0.4750810000000 1.0
C      1  0.6173240000000  0.4707440000000  0.4997540000000 1.0
C      1  0.6169460000000  0.5139370000000  0.5252240000000 1.0
C      1  0.3977390000000  0.5151630000000  0.5248010000000 1.0
C      1  0.3853850000000  0.4722150000000  0.4997320000000 1.0
C      1  0.3974640000000  0.5139350000000  0.4732970000000 1.0
C      1  0.3880600000000  0.4863880000000  0.5251170000000 1.0
C      1  0.3889030000000  0.5290820000000  0.4987340000000 1.0
C      1  0.3855860000000  0.4855820000000  0.4737800000000 1.0
C      1  0.6164970000000  0.4855370000000  0.4749050000000 1.0
C      1  0.6163460000000  0.5284610000000  0.5002880000000 1.0
C      1  0.6162970000000  0.4850250000000  0.5248630000000 1.0
C      1  0.4503720000000  0.4439330000000  0.5991360000000 1.0
C      1  0.4493540000000  0.6112130000000  0.5000200000000 1.0
C      1  0.4498410000000  0.4438320000000  0.4030000000000 1.0
C      1  0.5489330000000  0.4440600000000  0.4017570000000 1.0
C      1  0.5488590000000  0.6123700000000  0.5008860000000 1.0
C      1  0.5495230000000  0.4431080000000  0.5986970000000 1.0
C      1  0.5502600000000  0.5566320000000  0.4025910000000 1.0
C      1  0.5501420000000  0.3882920000000  0.5002840000000 1.0
C      1  0.5502390000000  0.5561960000000  0.5978520000000 1.0
C      1  0.4507460000000  0.5568090000000  0.5998960000000 1.0
C      1  0.4500590000000  0.3874700000000  0.5010240000000 1.0
C      1  0.4513500000000  0.5576140000000  0.4000410000000 1.0
C      1  0.4521450000000  0.4722490000000  0.5985560000000 1.0
C      1  0.4521590000000  0.5977200000000  0.4751480000000 1.0
C      1  0.4518620000000  0.4290250000000  0.4272140000000 1.0
C      1  0.5471730000000  0.4724180000000  0.4026150000000 1.0
C      1  0.5466330000000  0.5970320000000  0.5246390000000 1.0
C      1  0.5472770000000  0.4294120000000  0.5738910000000 1.0
C      1  0.5475290000000  0.5283870000000  0.4028160000000 1.0
C      1  0.5475850000000  0.4018470000000  0.5251210000000 1.0
C      1  0.5472810000000  0.5695670000000  0.5730360000000 1.0
C      1  0.4523450000000  0.5282630000000  0.5994350000000 1.0
C      1  0.4524060000000  0.4015220000000  0.4764090000000 1.0
C      1  0.4530210000000  0.5714730000000  0.4249970000000 1.0
C      1  0.4951690000000  0.4026390000000  0.5295060000000 1.0
C      1  0.4945170000000  0.5724650000000  0.5701400000000 1.0
C      1  0.4949260000000  0.5241610000000  0.4008670000000 1.0
C      1  0.5038080000000  0.4019960000000  0.4713850000000 1.0
C      1  0.5036830000000  0.5734710000000  0.4299070000000 1.0
C      1  0.5036040000000  0.5236260000000  0.5988430000000 1.0
C      1  0.5037530000000  0.5960930000000  0.4719270000000 1.0
C      1  0.5038370000000  0.4267660000000  0.4304220000000 1.0
C      1  0.5044660000000  0.4761760000000  0.5992090000000 1.0
C      1  0.4950900000000  0.5953850000000  0.5287930000000 1.0
C      1  0.4961330000000  0.4265550000000  0.5706850000000 1.0
C      1  0.4960140000000  0.4766190000000  0.4011460000000 1.0
C      1  0.5722130000000  0.4200970000000  0.4701190000000 1.0
C      1  0.5718880000000  0.5144840000000  0.5839600000000 1.0
C      1  0.5719750000000  0.5652090000000  0.4456410000000 1.0
C      1  0.4278290000000  0.4213150000000  0.5288380000000 1.0
C      1  0.4282810000000  0.5171440000000  0.4142080000000 1.0
C      1  0.4279650000000  0.5646400000000  0.5576820000000 1.0
C      1  0.4272430000000  0.5801400000000  0.5308200000000 1.0
C      1  0.4271320000000  0.4859800000000  0.4140290000000 1.0
C      1  0.4265480000000  0.4358280000000  0.5572280000000 1.0
C      1  0.5709910000000  0.5792070000000  0.4729420000000 1.0
C      1  0.5711840000000  0.4838160000000  0.5829960000000 1.0
C      1  0.5711340000000  0.4364440000000  0.4442990000000 1.0
C      1  0.5226880000000  0.4020300000000  0.5402610000000 1.0
C      1  0.5221360000000  0.5814390000000  0.5648370000000 1.0
C      1  0.5226230000000  0.5152080000000  0.3959440000000 1.0
C      1  0.4766280000000  0.4015560000000  0.4602560000000 1.0
C      1  0.4770100000000  0.5846470000000  0.4343150000000 1.0
C      1  0.4767780000000  0.5142670000000  0.6061210000000 1.0
C      1  0.4768820000000  0.5976710000000  0.4601950000000 1.0
C      1  0.4766950000000  0.4165800000000  0.4354800000000 1.0
C      1  0.4770460000000  0.4854330000000  0.6050500000000 1.0
C      1  0.5221820000000  0.5960580000000  0.5399200000000 1.0
C      1  0.5229710000000  0.4158840000000  0.5657020000000 1.0
C      1  0.5229630000000  0.4863210000000  0.3950980000000 1.0
C      1  0.3917600000000  0.5576490000000  0.4992820000000 1.0
C      1  0.3911330000000  0.4710150000000  0.4494880000000 1.0
C      1  0.3919150000000  0.4728050000000  0.5500040000000 1.0
C      1  0.6052300000000  0.5545710000000  0.5006730000000 1.0
C      1  0.6049890000000  0.4716890000000  0.5472760000000 1.0
C      1  0.6053410000000  0.4728330000000  0.4520600000000 1.0
C      1  0.6078130000000  0.4436720000000  0.4993830000000 1.0
C      1  0.6071080000000  0.5274450000000  0.5485560000000 1.0
C      1  0.6069390000000  0.5279020000000  0.4518610000000 1.0
C      1  0.3939700000000  0.4451230000000  0.4996390000000 1.0
C      1  0.3945140000000  0.5299820000000  0.4484670000000 1.0
C      1  0.3940050000000  0.5290940000000  0.5507660000000 1.0
C      1  0.5387330000000  0.4850640000000  0.4640040000000 1.0
C      1  0.5394400000000  0.4757890000000  0.5305870000000 1.0
C      1  0.5382360000000  0.5376900000000  0.5051520000000 1.0
C      1  0.4613150000000  0.4843520000000  0.5426500000000 1.0
C      1  0.4623240000000  0.4719520000000  0.4662730000000 1.0
C      1  0.4601780000000  0.5403630000000  0.4921880000000 1.0
C      1  0.4555910000000  0.5130200000000  0.5384400000000 1.0
C      1  0.4554840000000  0.5241630000000  0.4684440000000 1.0
C      1  0.4621830000000  0.4611690000000  0.4928270000000 1.0
C      1  0.5352000000000  0.5128600000000  0.4579500000000 1.0
C      1  0.5353910000000  0.5289640000000  0.5323250000000 1.0
C      1  0.5365180000000  0.4567920000000  0.5090910000000 1.0
C      1  0.5682990000000  0.5150770000000  0.4195300000000 1.0
C      1  0.5678650000000  0.4222570000000  0.5291440000000 1.0
C      1  0.5681670000000  0.5617020000000  0.5533230000000 1.0
C      1  0.4308960000000  0.5160550000000  0.5827460000000 1.0
C      1  0.4316160000000  0.4225210000000  0.4735960000000 1.0
C      1  0.4322880000000  0.5626610000000  0.4441770000000 1.0
C      1  0.4298290000000  0.4849500000000  0.5831400000000 1.0
C      1  0.4323330000000  0.5771570000000  0.4706220000000 1.0
C      1  0.4312170000000  0.4355500000000  0.4465480000000 1.0
C      1  0.5678080000000  0.4846640000000  0.4199640000000 1.0
C      1  0.5675000000000  0.5761890000000  0.5267110000000 1.0
C      1  0.5676240000000  0.4380600000000  0.5542040000000 1.0
C      1  0.4468270000000  0.6018880000000  0.5268880000000 1.0
C      1  0.4472890000000  0.4717460000000  0.3974890000000 1.0
C      1  0.4473920000000  0.4267580000000  0.5766670000000 1.0
C      1  0.5518420000000  0.6015250000000  0.4747560000000 1.0
C      1  0.5524790000000  0.4712850000000  0.6021050000000 1.0
C      1  0.5518980000000  0.4267590000000  0.4242040000000 1.0
C      1  0.5527040000000  0.3981570000000  0.4736290000000 1.0
C      1  0.5526380000000  0.5281560000000  0.6017690000000 1.0
C      1  0.5526240000000  0.5739090000000  0.4250650000000 1.0
C      1  0.4470250000000  0.3985470000000  0.5272330000000 1.0
C      1  0.4476560000000  0.5294350000000  0.3956860000000 1.0
C      1  0.4472850000000  0.5744590000000  0.5775840000000 1.0
C      1  0.5817630000000  0.5707740000000  0.5002260000000 1.0
C      1  0.5819680000000  0.4643450000000  0.4379850000000 1.0
C      1  0.5817700000000  0.4640620000000  0.5621120000000 1.0
C      1  0.4195080000000  0.5670960000000  0.5032640000000 1.0
C      1  0.4132520000000  0.4634350000000  0.5668710000000 1.0
C      1  0.4190930000000  0.4685310000000  0.4394260000000 1.0
C      1  0.4173150000000  0.4286320000000  0.5005580000000 1.0
C      1  0.4168550000000  0.5374150000000  0.5656150000000 1.0
C      1  0.4177460000000  0.5377460000000  0.4340240000000 1.0
C      1  0.5798860000000  0.4339170000000  0.4972630000000 1.0
C      1  0.5788890000000  0.5343320000000  0.4432940000000 1.0
C      1  0.5790050000000  0.5317590000000  0.5582920000000 1.0
C      1  0.4809530000000  0.4634680000000  0.5382180000000 1.0
C      1  0.4776070000000  0.5490150000000  0.5133760000000 1.0
C      1  0.4785900000000  0.4866250000000  0.4482080000000 1.0
C      1  0.5221600000000  0.4619840000000  0.4629510000000 1.0
C      1  0.5212720000000  0.5497840000000  0.4858240000000 1.0
C      1  0.5231750000000  0.4863300000000  0.5516820000000 1.0
C      1  0.5181470000000  0.5355530000000  0.4616070000000 1.0
C      1  0.5198560000000  0.4479430000000  0.4873570000000 1.0
C      1  0.5188850000000  0.5143150000000  0.5505940000000 1.0
C      1  0.4731940000000  0.5363700000000  0.5386340000000 1.0
C      1  0.4782900000000  0.4491040000000  0.5136510000000 1.0
C      1  0.4731860000000  0.5144570000000  0.4473510000000 1.0
C      1  0.5691430000000  0.4999570000000  0.4997290000000 1.0
C      1  0.4322560000000  0.4975140000000  0.4996920000000 1.0
END
