TITL C-3623282-6910-100 0.028915294370933 125000 -365.492376745756 0 0 61 (C1) n - 1
REM
REM in /home/nfs/bkarasulu/CARBON/AIRSS/Generating-Clusters/LCBOP/Higher-Symm/SD-CG/FIRE-CG
REM
REM
REM
REM
REM
REM ./C.cell (b20cbc046b6831c77cfcea5457e17084)
REM AIRSS Version 0.9.1 bugfix July 2018 build 013d7b7c2542+ Fri, 06 Jul 2018 19:26:36 +0100
REM compiler GCC version 9.2.1 20190827 (Red Hat 9.2.1-1)
REM options -cpp -mtune=generic -march=x86-64 -g -O0 -fpre-include=/usr/include/finclude/math-vector-fortran.h
REM seed -2021228791 -2120660133 299321517 -1490325873 -789906962 1135015050 194451959 45518111 -1656826108 -1906755156 347203827 1186944699 1894306130 -1242904414 1050611712 -1011754371 1060348704 930061848 -1576571128 1122734562 -371283122 -326825462 -464607316 1237299449 -1814439044 1910651866 -1142501934 1335064832 -1974484123 -713810580 -2002944227 -946746464 24500291
REM
CELL 1.54180   50.00000   50.00000   50.00000   90.00000   90.00000   90.00000
LATT -1
SFAC C  
C      1  0.4655330000000  0.5678690000000  0.5035280000000 1.0
C      1  0.4631610000000  0.4927150000000  0.4327700000000 1.0
C      1  0.4497260000000  0.4702810000000  0.5326730000000 1.0
C      1  0.5335590000000  0.6009520000000  0.4982130000000 1.0
C      1  0.5236890000000  0.4535290000000  0.4093150000000 1.0
C      1  0.5054310000000  0.4522770000000  0.5808600000000 1.0
C      1  0.4767720000000  0.4661240000000  0.5403270000000 1.0
C      1  0.4939230000000  0.5686190000000  0.5045200000000 1.0
C      1  0.4905840000000  0.4852590000000  0.4328450000000 1.0
C      1  0.5177450000000  0.4748240000000  0.5041400000000 1.0
C      1  0.5227740000000  0.5228180000000  0.5160490000000 1.0
C      1  0.5258920000000  0.5085470000000  0.4685400000000 1.0
C      1  0.4451620000000  0.4768300000000  0.4471790000000 1.0
C      1  0.4378960000000  0.4948780000000  0.5389000000000 1.0
C      1  0.4533210000000  0.5645210000000  0.4785570000000 1.0
C      1  0.4397590000000  0.5210770000000  0.5431020000000 1.0
C      1  0.4535810000000  0.5550640000000  0.4536970000000 1.0
C      1  0.4397580000000  0.4605200000000  0.4674820000000 1.0
C      1  0.5426480000000  0.5045400000000  0.5582190000000 1.0
C      1  0.5579620000000  0.5468380000000  0.4649630000000 1.0
C      1  0.5436640000000  0.4446300000000  0.4737500000000 1.0
C      1  0.5659450000000  0.5698320000000  0.4759290000000 1.0
C      1  0.5519230000000  0.4406140000000  0.4486840000000 1.0
C      1  0.5443030000000  0.4832400000000  0.5742270000000 1.0
C      1  0.4989550000000  0.4334590000000  0.4882230000000 1.0
C      1  0.5047820000000  0.5345120000000  0.5591400000000 1.0
C      1  0.5188340000000  0.5440310000000  0.4367840000000 1.0
C      1  0.5081310000000  0.5444390000000  0.5055580000000 1.0
C      1  0.5068990000000  0.4936320000000  0.4540910000000 1.0
C      1  0.4972330000000  0.4752040000000  0.5234020000000 1.0
C      1  0.4483580000000  0.4464540000000  0.4901180000000 1.0
C      1  0.4554390000000  0.5442160000000  0.5448320000000 1.0
C      1  0.4667510000000  0.5412340000000  0.4332150000000 1.0
C      1  0.4843820000000  0.4540870000000  0.5644680000000 1.0
C      1  0.5088470000000  0.5923280000000  0.5036880000000 1.0
C      1  0.5023140000000  0.4691300000000  0.4131520000000 1.0
C      1  0.4506290000000  0.5664580000000  0.5277370000000 1.0
C      1  0.4554070000000  0.5177850000000  0.4217480000000 1.0
C      1  0.4368690000000  0.4514560000000  0.5156540000000 1.0
C      1  0.5565200000000  0.5917030000000  0.4880730000000 1.0
C      1  0.5439290000000  0.4430090000000  0.4232870000000 1.0
C      1  0.5296280000000  0.4632050000000  0.5841210000000 1.0
C      1  0.4138560000000  0.4381040000000  0.5238790000000 1.0
C      1  0.4326450000000  0.5858910000000  0.5345010000000 1.0
C      1  0.4380150000000  0.5192910000000  0.4007230000000 1.0
C      1  0.4937490000000  0.5472440000000  0.4283900000000 1.0
C      1  0.4723490000000  0.4319710000000  0.4884120000000 1.0
C      1  0.4794840000000  0.5428840000000  0.5592670000000 1.0
C      1  0.5214090000000  0.4504200000000  0.4896580000000 1.0
C      1  0.5249490000000  0.5213180000000  0.5445400000000 1.0
C      1  0.5356630000000  0.5324340000000  0.4561810000000 1.0
C      1  0.3676060000000  0.4497580000000  0.5773420000000 1.0
C      1  0.3903720000000  0.4268670000000  0.5340280000000 1.0
C      1  0.3793290000000  0.4048330000000  0.5221740000000 1.0
C      1  0.6138670000000  0.4900440000000  0.5058530000000 1.0
C      1  0.3783040000000  0.4384360000000  0.5564470000000 1.0
C      1  0.6400080000000  0.4866150000000  0.5085870000000 1.0
C      1  0.6657180000000  0.4832420000000  0.5112770000000 1.0
C      1  0.5877360000000  0.4934720000000  0.5031190000000 1.0
C      1  0.5616300000000  0.4968940000000  0.5003850000000 1.0
C      1  0.5322530000000  0.5007370000000  0.4973030000000 1.0
END
