TITL C-3623283-6828-1030 285.926476795944 125000 -1047.54347292497 0 0 172 (C1) n - 1
REM
REM in /home/nfs/bkarasulu/CARBON/AIRSS/Generating-Clusters/LCBOP/Higher-Symm/SD-CG/FIRE-CG
REM
REM
REM
REM
REM
REM ./C.cell (b20cbc046b6831c77cfcea5457e17084)
REM AIRSS Version 0.9.1 bugfix July 2018 build 013d7b7c2542+ Fri, 06 Jul 2018 19:26:36 +0100
REM compiler GCC version 9.2.1 20190827 (Red Hat 9.2.1-1)
REM options -cpp -mtune=generic -march=x86-64 -g -O0 -fpre-include=/usr/include/finclude/math-vector-fortran.h
REM seed -1931639270 -238511891 824969128 735826654 727096792 -1611322618 -1177958669 -1066438035 527756344 -206409002 -1391723401 1980603269 1572599368 -1805993691 -2098689746 1423194393 1905575005 1961229701 1749090161 -1682481179 -1046067321 2047033692 590098110 -1792119943 666415816 -2014783737 722316955 -1100783060 -592336083 96924232 1225653229 421882356 -2083231159
REM
CELL 1.54180   50.00000   50.00000   50.00000   90.00000   90.00000   90.00000
LATT -1
SFAC C  
C      1  0.6121260000000  0.4745870000000  0.5076020000000 1.0
C      1  0.3937880000000  0.5316230000000  0.4771430000000 1.0
C      1  0.6091450000000  0.4899130000000  0.5318720000000 1.0
C      1  0.4033030000000  0.5245890000000  0.5047020000000 1.0
C      1  0.5503070000000  0.5680800000000  0.5367660000000 1.0
C      1  0.4204060000000  0.4324700000000  0.5324880000000 1.0
C      1  0.5432380000000  0.5676330000000  0.4659610000000 1.0
C      1  0.4153730000000  0.4226380000000  0.4720770000000 1.0
C      1  0.5171620000000  0.3596470000000  0.5163190000000 1.0
C      1  0.4662270000000  0.6013250000000  0.5163460000000 1.0
C      1  0.5165470000000  0.3568420000000  0.4897660000000 1.0
C      1  0.4635500000000  0.5973350000000  0.4879990000000 1.0
C      1  0.5279000000000  0.4985500000000  0.5519930000000 1.0
C      1  0.4567170000000  0.4882030000000  0.5429750000000 1.0
C      1  0.5350530000000  0.5009300000000  0.4489330000000 1.0
C      1  0.4809650000000  0.4763410000000  0.4555810000000 1.0
C      1  0.5359220000000  0.5677840000000  0.5949160000000 1.0
C      1  0.4723800000000  0.4408860000000  0.5890470000000 1.0
C      1  0.5282110000000  0.5636480000000  0.4112140000000 1.0
C      1  0.4760250000000  0.4312650000000  0.4067730000000 1.0
C      1  0.5221800000000  0.4379240000000  0.5867080000000 1.0
C      1  0.4908770000000  0.5507650000000  0.5826860000000 1.0
C      1  0.5319550000000  0.4375640000000  0.4075680000000 1.0
C      1  0.4825840000000  0.5464550000000  0.4186920000000 1.0
C      1  0.4902030000000  0.5014480000000  0.4648210000000 1.0
C      1  0.5306960000000  0.4722880000000  0.4403080000000 1.0
C      1  0.4875940000000  0.5141500000000  0.5280270000000 1.0
C      1  0.5107760000000  0.4743760000000  0.5592890000000 1.0
C      1  0.4592580000000  0.5301310000000  0.4146050000000 1.0
C      1  0.5481470000000  0.4510740000000  0.4299460000000 1.0
C      1  0.4701290000000  0.5311340000000  0.5753930000000 1.0
C      1  0.5306180000000  0.4521210000000  0.5636920000000 1.0
C      1  0.4905910000000  0.4962380000000  0.3982770000000 1.0
C      1  0.5332090000000  0.5119230000000  0.3769920000000 1.0
C      1  0.4810000000000  0.4949780000000  0.6064720000000 1.0
C      1  0.5314430000000  0.4956170000000  0.6052890000000 1.0
C      1  0.4701360000000  0.3944760000000  0.4493350000000 1.0
C      1  0.5142470000000  0.6021650000000  0.4493160000000 1.0
C      1  0.4691940000000  0.3997760000000  0.5532420000000 1.0
C      1  0.5217510000000  0.6028330000000  0.5533870000000 1.0
C      1  0.5426070000000  0.4341480000000  0.5066340000000 1.0
C      1  0.4584680000000  0.5789530000000  0.5325420000000 1.0
C      1  0.5370830000000  0.4233080000000  0.4807020000000 1.0
C      1  0.4539380000000  0.5718200000000  0.4783150000000 1.0
C      1  0.4191290000000  0.4822600000000  0.4229390000000 1.0
C      1  0.5841450000000  0.5212280000000  0.4227100000000 1.0
C      1  0.4141640000000  0.4793820000000  0.5590820000000 1.0
C      1  0.5753100000000  0.5354460000000  0.5601600000000 1.0
C      1  0.5003180000000  0.5573830000000  0.4915540000000 1.0
C      1  0.4903760000000  0.4219260000000  0.4897730000000 1.0
C      1  0.5002690000000  0.5558620000000  0.5173780000000 1.0
C      1  0.5011340000000  0.4235310000000  0.5159010000000 1.0
C      1  0.4707050000000  0.6153450000000  0.4677280000000 1.0
C      1  0.5069600000000  0.3609640000000  0.4651550000000 1.0
C      1  0.4798190000000  0.6201570000000  0.5323850000000 1.0
C      1  0.5085990000000  0.3683120000000  0.5401040000000 1.0
C      1  0.5166540000000  0.4732370000000  0.5115620000000 1.0
C      1  0.4740730000000  0.5044800000000  0.5053340000000 1.0
C      1  0.5299670000000  0.4807200000000  0.4894290000000 1.0
C      1  0.4725530000000  0.5197900000000  0.4791560000000 1.0
C      1  0.5186660000000  0.5034080000000  0.4749180000000 1.0
C      1  0.4606260000000  0.4597810000000  0.4686960000000 1.0
C      1  0.5148800000000  0.5064260000000  0.5277090000000 1.0
C      1  0.4578700000000  0.4803810000000  0.5139210000000 1.0
C      1  0.5662340000000  0.4956950000000  0.5145000000000 1.0
C      1  0.4291760000000  0.5127930000000  0.5008340000000 1.0
C      1  0.5582840000000  0.4864820000000  0.4883520000000 1.0
C      1  0.4432900000000  0.5205840000000  0.4761310000000 1.0
C      1  0.4612190000000  0.5063400000000  0.5889200000000 1.0
C      1  0.5641280000000  0.5007420000000  0.5940510000000 1.0
C      1  0.4629040000000  0.5024610000000  0.4050180000000 1.0
C      1  0.5609890000000  0.5157870000000  0.3796340000000 1.0
C      1  0.5371700000000  0.6113790000000  0.5297230000000 1.0
C      1  0.4505400000000  0.3929430000000  0.5319650000000 1.0
C      1  0.5306810000000  0.6115160000000  0.4719110000000 1.0
C      1  0.4521820000000  0.3909600000000  0.4730890000000 1.0
C      1  0.4897390000000  0.3734140000000  0.4487700000000 1.0
C      1  0.4887920000000  0.6138300000000  0.4478730000000 1.0
C      1  0.4914020000000  0.3822830000000  0.5551760000000 1.0
C      1  0.4964290000000  0.6153590000000  0.5534490000000 1.0
C      1  0.4158650000000  0.5543720000000  0.4360210000000 1.0
C      1  0.5789690000000  0.5047490000000  0.3623480000000 1.0
C      1  0.4273910000000  0.5786000000000  0.5992830000000 1.0
C      1  0.5838240000000  0.4843400000000  0.5805210000000 1.0
C      1  0.6763290000000  0.5448080000000  0.5288990000000 1.0
C      1  0.3880360000000  0.4579530000000  0.4888250000000 1.0
C      1  0.6533950000000  0.5378550000000  0.5186610000000 1.0
C      1  0.3863340000000  0.4638190000000  0.5183570000000 1.0
C      1  0.6068340000000  0.5202200000000  0.5264820000000 1.0
C      1  0.3884870000000  0.5113060000000  0.5255520000000 1.0
C      1  0.5969800000000  0.5298990000000  0.4694250000000 1.0
C      1  0.3883630000000  0.5058620000000  0.4629870000000 1.0
C      1  0.4815000000000  0.4727050000000  0.5531830000000 1.0
C      1  0.5239700000000  0.5229570000000  0.5682460000000 1.0
C      1  0.5017150000000  0.4641690000000  0.4380310000000 1.0
C      1  0.5219390000000  0.5238740000000  0.4362410000000 1.0
C      1  0.5476530000000  0.5883050000000  0.5149900000000 1.0
C      1  0.4335690000000  0.4116350000000  0.5175050000000 1.0
C      1  0.5441780000000  0.5893780000000  0.4852650000000 1.0
C      1  0.4334700000000  0.4080560000000  0.4876210000000 1.0
C      1  0.3737510000000  0.4898450000000  0.5150290000000 1.0
C      1  0.6286480000000  0.5301200000000  0.5084670000000 1.0
C      1  0.3741820000000  0.4873900000000  0.4788570000000 1.0
C      1  0.6224970000000  0.5307780000000  0.4807800000000 1.0
C      1  0.4067010000000  0.4570640000000  0.5387080000000 1.0
C      1  0.5578780000000  0.5393070000000  0.5336880000000 1.0
C      1  0.4105350000000  0.4498070000000  0.4746370000000 1.0
C      1  0.5504300000000  0.5435340000000  0.4773140000000 1.0
C      1  0.5000460000000  0.4336500000000  0.4456650000000 1.0
C      1  0.4984240000000  0.5485690000000  0.4452140000000 1.0
C      1  0.4742780000000  0.4460990000000  0.5422990000000 1.0
C      1  0.5111410000000  0.5491230000000  0.5599740000000 1.0
C      1  0.4443990000000  0.5148490000000  0.5395860000000 1.0
C      1  0.5543860000000  0.4847490000000  0.5395640000000 1.0
C      1  0.4325910000000  0.5160800000000  0.4506360000000 1.0
C      1  0.5636600000000  0.4980340000000  0.4610850000000 1.0
C      1  0.5185800000000  0.4458270000000  0.5175870000000 1.0
C      1  0.4764450000000  0.5575880000000  0.5326770000000 1.0
C      1  0.5106270000000  0.4232990000000  0.4696450000000 1.0
C      1  0.4810590000000  0.5486940000000  0.4713260000000 1.0
C      1  0.6004360000000  0.4819340000000  0.5586110000000 1.0
C      1  0.4305860000000  0.5792960000000  0.5734280000000 1.0
C      1  0.6052020000000  0.4659290000000  0.4826200000000 1.0
C      1  0.4074390000000  0.5543160000000  0.4636260000000 1.0
C      1  0.5850970000000  0.5133970000000  0.4496470000000 1.0
C      1  0.4103700000000  0.4986350000000  0.4449780000000 1.0
C      1  0.6029720000000  0.5344470000000  0.5526220000000 1.0
C      1  0.4002740000000  0.5043740000000  0.5511860000000 1.0
C      1  0.5775790000000  0.5243670000000  0.5144110000000 1.0
C      1  0.4330730000000  0.4842070000000  0.4991550000000 1.0
C      1  0.5762750000000  0.5374830000000  0.4875450000000 1.0
C      1  0.4331380000000  0.4670680000000  0.4761700000000 1.0
C      1  0.5054000000000  0.5455330000000  0.3999350000000 1.0
C      1  0.5030250000000  0.4430280000000  0.3980820000000 1.0
C      1  0.5112990000000  0.5498570000000  0.6040380000000 1.0
C      1  0.4994250000000  0.4500020000000  0.5998470000000 1.0
C      1  0.4364320000000  0.5355720000000  0.4299470000000 1.0
C      1  0.5722820000000  0.4455830000000  0.4460130000000 1.0
C      1  0.4686400000000  0.5317340000000  0.5445220000000 1.0
C      1  0.5547080000000  0.4553780000000  0.5465690000000 1.0
C      1  0.5283510000000  0.5288510000000  0.4885250000000 1.0
C      1  0.4703530000000  0.4417310000000  0.4892320000000 1.0
C      1  0.5280510000000  0.5295700000000  0.5172100000000 1.0
C      1  0.4660480000000  0.4522630000000  0.5153110000000 1.0
C      1  0.4445460000000  0.4787010000000  0.4090880000000 1.0
C      1  0.5691310000000  0.5322330000000  0.4015870000000 1.0
C      1  0.4366590000000  0.4813470000000  0.5808120000000 1.0
C      1  0.5683180000000  0.5299010000000  0.5873000000000 1.0
C      1  0.4116870000000  0.5824620000000  0.5017350000000 1.0
C      1  0.5916330000000  0.4228910000000  0.4881610000000 1.0
C      1  0.4118190000000  0.5842690000000  0.5284060000000 1.0
C      1  0.5867970000000  0.4246440000000  0.5151490000000 1.0
C      1  0.5305400000000  0.5738410000000  0.5624720000000 1.0
C      1  0.4718240000000  0.4266070000000  0.5629070000000 1.0
C      1  0.5207690000000  0.5724620000000  0.4419190000000 1.0
C      1  0.4784940000000  0.4178640000000  0.4330490000000 1.0
C      1  0.4334570000000  0.5803930000000  0.5458390000000 1.0
C      1  0.5635150000000  0.4367570000000  0.5256220000000 1.0
C      1  0.4249570000000  0.5696600000000  0.4803820000000 1.0
C      1  0.5905320000000  0.4446760000000  0.4691090000000 1.0
C      1  0.4569510000000  0.3679810000000  0.4898470000000 1.0
C      1  0.5295350000000  0.6349930000000  0.4874830000000 1.0
C      1  0.4551090000000  0.3690230000000  0.5169810000000 1.0
C      1  0.5334940000000  0.6348380000000  0.5143740000000 1.0
C      1  0.5548020000000  0.5565040000000  0.4049200000000 1.0
C      1  0.4543800000000  0.4513770000000  0.4042350000000 1.0
C      1  0.5602530000000  0.5536750000000  0.6010690000000 1.0
C      1  0.4486100000000  0.4573700000000  0.5922670000000 1.0
C      1  0.5217150000000  0.5220330000000  0.5984200000000 1.0
C      1  0.5052880000000  0.4785900000000  0.6076200000000 1.0
C      1  0.5085710000000  0.5179950000000  0.3892370000000 1.0
C      1  0.4986940000000  0.4705470000000  0.4078980000000 1.0
END
