TITL C-3623287-7182-1403 2.09157326645458e-07 125000 -269.588803732488 0 0 46 (C1) n - 1
REM
REM in /home/nfs/bkarasulu/CARBON/AIRSS/Generating-Clusters/LCBOP/Higher-Symm/SD-CG/FIRE-CG
REM
REM
REM
REM
REM
REM ./C.cell (b20cbc046b6831c77cfcea5457e17084)
REM AIRSS Version 0.9.1 bugfix July 2018 build 013d7b7c2542+ Fri, 06 Jul 2018 19:26:36 +0100
REM compiler GCC version 9.2.1 20190827 (Red Hat 9.2.1-1)
REM options -cpp -mtune=generic -march=x86-64 -g -O0 -fpre-include=/usr/include/finclude/math-vector-fortran.h
REM seed 1621781330 402037911 327271710 1274556846 -1025821670 -1442638322 701519703 -596552179 2080454232 -2019649034 -1278336622 79141987 42811576 -126533272 1639580823 766421187 1854781950 1837728655 -583791558 -1245439069 -2089605616 726667200 -3896747 791098592 1390907085 1713608447 -342069136 1084134439 -206717824 1042295492 -1882821222 -1170278867 -1477838278
REM
CELL 1.54180   50.00000   50.00000   50.00000   90.00000   90.00000   90.00000
LATT -1
SFAC C  
C      1  0.5798330000000  0.4642140000000  0.4393700000000 1.0
C      1  0.4418900000000  0.5518230000000  0.4691840000000 1.0
C      1  0.4738500000000  0.4772760000000  0.5776600000000 1.0
C      1  0.4380940000000  0.5051480000000  0.4597240000000 1.0
C      1  0.4329940000000  0.4860090000000  0.5559600000000 1.0
C      1  0.5643290000000  0.5098630000000  0.5455760000000 1.0
C      1  0.5427770000000  0.4524250000000  0.4113680000000 1.0
C      1  0.5691280000000  0.5493060000000  0.5200880000000 1.0
C      1  0.4559820000000  0.4446970000000  0.5474360000000 1.0
C      1  0.5407540000000  0.5487310000000  0.5587810000000 1.0
C      1  0.5437480000000  0.4942220000000  0.4336120000000 1.0
C      1  0.4689010000000  0.5316650000000  0.4349370000000 1.0
C      1  0.5546840000000  0.5622960000000  0.5394510000000 1.0
C      1  0.5410670000000  0.5201680000000  0.5592570000000 1.0
C      1  0.5693680000000  0.5206490000000  0.5194050000000 1.0
C      1  0.4797420000000  0.4539050000000  0.5607840000000 1.0
C      1  0.4673230000000  0.5519250000000  0.4555640000000 1.0
C      1  0.5276530000000  0.4750920000000  0.4196100000000 1.0
C      1  0.4566110000000  0.4983890000000  0.5676030000000 1.0
C      1  0.4613910000000  0.5043960000000  0.4416000000000 1.0
C      1  0.5668740000000  0.4876770000000  0.4490620000000 1.0
C      1  0.4370400000000  0.4640340000000  0.5373880000000 1.0
C      1  0.4341390000000  0.5264260000000  0.4802010000000 1.0
C      1  0.5677540000000  0.4476330000000  0.4213340000000 1.0
C      1  0.4496570000000  0.5329060000000  0.5326760000000 1.0
C      1  0.5180870000000  0.5035460000000  0.5570810000000 1.0
C      1  0.5571110000000  0.5063520000000  0.4981120000000 1.0
C      1  0.5050750000000  0.4566070000000  0.5459690000000 1.0
C      1  0.4892520000000  0.5518530000000  0.4738000000000 1.0
C      1  0.4999790000000  0.4759990000000  0.4235620000000 1.0
C      1  0.4683550000000  0.5210190000000  0.5519410000000 1.0
C      1  0.4834790000000  0.4848590000000  0.4443990000000 1.0
C      1  0.5698720000000  0.4985510000000  0.4745400000000 1.0
C      1  0.4403530000000  0.4723790000000  0.5100910000000 1.0
C      1  0.4426640000000  0.5202080000000  0.5076910000000 1.0
C      1  0.5222680000000  0.4750550000000  0.5596200000000 1.0
C      1  0.5293570000000  0.5009860000000  0.5015720000000 1.0
C      1  0.4933370000000  0.5299050000000  0.4907970000000 1.0
C      1  0.4947530000000  0.5115050000000  0.5383460000000 1.0
C      1  0.4599870000000  0.4948240000000  0.5048450000000 1.0
C      1  0.5006580000000  0.4658340000000  0.5184280000000 1.0
C      1  0.4942970000000  0.4840850000000  0.4714140000000 1.0
C      1  0.5136730000000  0.4768400000000  0.4936220000000 1.0
C      1  0.4789140000000  0.5053360000000  0.4839040000000 1.0
C      1  0.4816720000000  0.4872090000000  0.5242490000000 1.0
C      1  0.5106860000000  0.5219940000000  0.5123480000000 1.0
END
