TITL C-3623282-6910-1453 -2.51171404489545e-07 125000 -116.97155716875 0 0 20 (Oh) n - 1
REM
REM in /home/nfs/bkarasulu/CARBON/AIRSS/Generating-Clusters/LCBOP/Higher-Symm/SD-CG/FIRE-CG
REM
REM
REM
REM
REM
REM ./C.cell (b20cbc046b6831c77cfcea5457e17084)
REM AIRSS Version 0.9.1 bugfix July 2018 build 013d7b7c2542+ Fri, 06 Jul 2018 19:26:36 +0100
REM compiler GCC version 9.2.1 20190827 (Red Hat 9.2.1-1)
REM options -cpp -mtune=generic -march=x86-64 -g -O0 -fpre-include=/usr/include/finclude/math-vector-fortran.h
REM seed -1130656537 887561836 933352344 -405438394 -771432661 -847094574 -682039391 -1487565255 819300455 1751955094 717553146 -117117930 -256670451 -403121955 985655148 1501903762 -683337723 266238162 786159686 670189115 -687400625 -956101447 222343558 1001352670 2066014463 -1330856971 -1468839604 1558096160 1716669521 -1554705686 -2052100833 -1786445760 1349538097
REM
CELL 1.54180   50.00000   50.00000   50.00000   90.00000   90.00000   90.00000
LATT -1
SFAC C  
C      1  0.5352000000000  0.4666470000000  0.5001930000000 1.0
C      1  0.5010200000000  0.5350060000000  0.4660140000000 1.0
C      1  0.4668400000000  0.5008260000000  0.5343730000000 1.0
C      1  0.4668400000000  0.5350060000000  0.5001930000000 1.0
C      1  0.5010200000000  0.4666470000000  0.5343730000000 1.0
C      1  0.4668400000000  0.5008270000000  0.4660140000000 1.0
C      1  0.5352000000000  0.5008260000000  0.5343730000000 1.0
C      1  0.5352000000000  0.5008260000000  0.4660140000000 1.0
C      1  0.5010200000000  0.4666470000000  0.4660140000000 1.0
C      1  0.5010200000000  0.5350060000000  0.5343730000000 1.0
C      1  0.5352000000000  0.5350060000000  0.5001930000000 1.0
C      1  0.4668400000000  0.4666470000000  0.5001930000000 1.0
C      1  0.5266560000000  0.4751900000000  0.5258300000000 1.0
C      1  0.5266560000000  0.5264630000000  0.4745570000000 1.0
C      1  0.4753840000000  0.4751900000000  0.5258300000000 1.0
C      1  0.4753840000000  0.5264630000000  0.4745570000000 1.0
C      1  0.4753840000000  0.5264630000000  0.5258300000000 1.0
C      1  0.5266560000000  0.4751900000000  0.4745570000000 1.0
C      1  0.4753840000000  0.4751900000000  0.4745570000000 1.0
C      1  0.5266560000000  0.5264630000000  0.5258300000000 1.0
END
