TITL C-3623283-6828-1337 0.00853795331403081 125000 -639.921532187662 0 0 105 (C1) n - 1
REM
REM in /home/nfs/bkarasulu/CARBON/AIRSS/Generating-Clusters/LCBOP/Higher-Symm/SD-CG/FIRE-CG
REM
REM
REM
REM
REM
REM ./C.cell (b20cbc046b6831c77cfcea5457e17084)
REM AIRSS Version 0.9.1 bugfix July 2018 build 013d7b7c2542+ Fri, 06 Jul 2018 19:26:36 +0100
REM compiler GCC version 9.2.1 20190827 (Red Hat 9.2.1-1)
REM options -cpp -mtune=generic -march=x86-64 -g -O0 -fpre-include=/usr/include/finclude/math-vector-fortran.h
REM seed 1965430292 -58859741 257506193 -1012096887 -2055843851 655987247 1250795227 -64140014 -2001282898 215862692 1484167489 1921741750 -5013210 975976605 2089798386 -1826147486 801514042 1036988296 1761908695 -1525384273 1072379041 432230954 1454364389 1837831840 1132715856 -1323746250 1604737179 947815217 -1062508160 -154330052 2021360455 787966191 -234671225
REM
CELL 1.54180   50.00000   50.00000   50.00000   90.00000   90.00000   90.00000
LATT -1
SFAC C  
C      1  0.5270120000000  0.5217490000000  0.4950730000000 1.0
C      1  0.5219960000000  0.5272950000000  0.5231650000000 1.0
C      1  0.4511030000000  0.5089400000000  0.5221220000000 1.0
C      1  0.4611460000000  0.5060850000000  0.4706300000000 1.0
C      1  0.4166630000000  0.5283220000000  0.5650320000000 1.0
C      1  0.4510020000000  0.5173940000000  0.4141610000000 1.0
C      1  0.6608700000000  0.4956160000000  0.6150180000000 1.0
C      1  0.5208450000000  0.5721490000000  0.3922240000000 1.0
C      1  0.4320430000000  0.4713970000000  0.4304840000000 1.0
C      1  0.4024280000000  0.4804570000000  0.5479450000000 1.0
C      1  0.5186570000000  0.5406860000000  0.3565630000000 1.0
C      1  0.6432700000000  0.5374260000000  0.6005700000000 1.0
C      1  0.4544100000000  0.5077300000000  0.3344870000000 1.0
C      1  0.3798880000000  0.5289820000000  0.6364660000000 1.0
C      1  0.4259850000000  0.5699460000000  0.4981210000000 1.0
C      1  0.4320640000000  0.5682530000000  0.4716280000000 1.0
C      1  0.4631320000000  0.3606060000000  0.5148110000000 1.0
C      1  0.4458470000000  0.3521710000000  0.4959720000000 1.0
C      1  0.5491580000000  0.4446820000000  0.5312600000000 1.0
C      1  0.5469310000000  0.4522580000000  0.4752050000000 1.0
C      1  0.5919020000000  0.4196960000000  0.5253290000000 1.0
C      1  0.5946810000000  0.4475130000000  0.4759700000000 1.0
C      1  0.5477940000000  0.4449390000000  0.5598180000000 1.0
C      1  0.5327800000000  0.4452880000000  0.4517930000000 1.0
C      1  0.4585750000000  0.4336400000000  0.4441590000000 1.0
C      1  0.4195500000000  0.4381250000000  0.5577150000000 1.0
C      1  0.4361350000000  0.5479120000000  0.5570550000000 1.0
C      1  0.4657100000000  0.5385780000000  0.4267630000000 1.0
C      1  0.4524040000000  0.5109690000000  0.3602770000000 1.0
C      1  0.3919230000000  0.5293660000000  0.6133440000000 1.0
C      1  0.4943510000000  0.5331670000000  0.5293940000000 1.0
C      1  0.5050280000000  0.5285590000000  0.4778210000000 1.0
C      1  0.5400740000000  0.5767700000000  0.4821490000000 1.0
C      1  0.5276640000000  0.5823070000000  0.5355970000000 1.0
C      1  0.4508920000000  0.5143800000000  0.3865050000000 1.0
C      1  0.4041230000000  0.5295760000000  0.5898280000000 1.0
C      1  0.4674410000000  0.3850150000000  0.5252080000000 1.0
C      1  0.4282020000000  0.3656960000000  0.4808610000000 1.0
C      1  0.5653080000000  0.5075790000000  0.4669750000000 1.0
C      1  0.5476030000000  0.5055860000000  0.5653920000000 1.0
C      1  0.4456160000000  0.5771380000000  0.5171540000000 1.0
C      1  0.4582510000000  0.5734440000000  0.4622870000000 1.0
C      1  0.4189890000000  0.4576900000000  0.4535910000000 1.0
C      1  0.4031500000000  0.4633360000000  0.5231220000000 1.0
C      1  0.4098400000000  0.4616180000000  0.5686800000000 1.0
C      1  0.4531160000000  0.4528570000000  0.4231960000000 1.0
C      1  0.5342810000000  0.4651740000000  0.5181180000000 1.0
C      1  0.5387430000000  0.4741790000000  0.4918210000000 1.0
C      1  0.4108220000000  0.5075170000000  0.5461260000000 1.0
C      1  0.4366790000000  0.4994400000000  0.4314230000000 1.0
C      1  0.4841110000000  0.4244270000000  0.4498140000000 1.0
C      1  0.5284410000000  0.4871490000000  0.5752010000000 1.0
C      1  0.6165190000000  0.4436960000000  0.5607440000000 1.0
C      1  0.5909900000000  0.4965620000000  0.4701350000000 1.0
C      1  0.4760660000000  0.5174690000000  0.5142550000000 1.0
C      1  0.4812740000000  0.5158280000000  0.4865060000000 1.0
C      1  0.5271960000000  0.4604110000000  0.5716630000000 1.0
C      1  0.5101890000000  0.4287550000000  0.4528840000000 1.0
C      1  0.5383490000000  0.5280390000000  0.3983070000000 1.0
C      1  0.6188120000000  0.4971570000000  0.5922540000000 1.0
C      1  0.4348930000000  0.4235760000000  0.5112490000000 1.0
C      1  0.4294270000000  0.4178430000000  0.4834720000000 1.0
C      1  0.5994200000000  0.5634780000000  0.5124560000000 1.0
C      1  0.5935410000000  0.5667120000000  0.5383630000000 1.0
C      1  0.6412270000000  0.5102070000000  0.6027360000000 1.0
C      1  0.5258450000000  0.5471750000000  0.3821710000000 1.0
C      1  0.5961740000000  0.4576290000000  0.5744160000000 1.0
C      1  0.5412990000000  0.4821730000000  0.4150040000000 1.0
C      1  0.6030590000000  0.4726410000000  0.4711920000000 1.0
C      1  0.6129640000000  0.4259770000000  0.5407390000000 1.0
C      1  0.3987200000000  0.4657060000000  0.4711250000000 1.0
C      1  0.3933280000000  0.4676640000000  0.4972940000000 1.0
C      1  0.5445300000000  0.5014720000000  0.4856690000000 1.0
C      1  0.5400020000000  0.5216780000000  0.5437820000000 1.0
C      1  0.4753830000000  0.5547590000000  0.4480220000000 1.0
C      1  0.4544720000000  0.5611980000000  0.5398350000000 1.0
C      1  0.5687550000000  0.4313980000000  0.5143870000000 1.0
C      1  0.5698280000000  0.4389330000000  0.4864010000000 1.0
C      1  0.4142980000000  0.5177970000000  0.4721120000000 1.0
C      1  0.4095750000000  0.5193790000000  0.4983290000000 1.0
C      1  0.5743970000000  0.5014980000000  0.5729430000000 1.0
C      1  0.5580270000000  0.5176410000000  0.4417940000000 1.0
C      1  0.4995270000000  0.5816750000000  0.5386320000000 1.0
C      1  0.5162690000000  0.5755100000000  0.4668310000000 1.0
C      1  0.5475040000000  0.5789660000000  0.5551170000000 1.0
C      1  0.5661710000000  0.5696520000000  0.4748240000000 1.0
C      1  0.4655210000000  0.5955490000000  0.5063750000000 1.0
C      1  0.4721970000000  0.5934570000000  0.4782900000000 1.0
C      1  0.4987160000000  0.5978790000000  0.4694480000000 1.0
C      1  0.4852360000000  0.6025570000000  0.5254200000000 1.0
C      1  0.5891300000000  0.5646450000000  0.4877680000000 1.0
C      1  0.5736380000000  0.5728720000000  0.5551860000000 1.0
C      1  0.4364930000000  0.5087770000000  0.4580270000000 1.0
C      1  0.4235030000000  0.5125480000000  0.5214130000000 1.0
C      1  0.4838110000000  0.5573900000000  0.5406350000000 1.0
C      1  0.5018540000000  0.5511590000000  0.4606440000000 1.0
C      1  0.5462450000000  0.5096660000000  0.4176030000000 1.0
C      1  0.5966310000000  0.4855810000000  0.5799600000000 1.0
C      1  0.5714890000000  0.4439350000000  0.5748860000000 1.0
C      1  0.5382100000000  0.4591650000000  0.4280270000000 1.0
C      1  0.4187200000000  0.4388510000000  0.5286590000000 1.0
C      1  0.4356720000000  0.4351450000000  0.4620040000000 1.0
C      1  0.4216120000000  0.3914090000000  0.4772290000000 1.0
C      1  0.4565670000000  0.4093620000000  0.5226630000000 1.0
C      1  0.5367400000000  0.5846760000000  0.5090120000000 1.0
END
