TITL C-3623287-7182-924 -30.6308504072569 125000 -203.341446982861 0 0 36 (C1) n - 1
REM
REM in /home/nfs/bkarasulu/CARBON/AIRSS/Generating-Clusters/LCBOP/Higher-Symm/SD-CG/FIRE-CG
REM
REM
REM
REM
REM
REM ./C.cell (b20cbc046b6831c77cfcea5457e17084)
REM AIRSS Version 0.9.1 bugfix July 2018 build 013d7b7c2542+ Fri, 06 Jul 2018 19:26:36 +0100
REM compiler GCC version 9.2.1 20190827 (Red Hat 9.2.1-1)
REM options -cpp -mtune=generic -march=x86-64 -g -O0 -fpre-include=/usr/include/finclude/math-vector-fortran.h
REM seed 2146373772 -1107345807 -1551982713 432281562 921545196 -117443287 -360992862 -2024097097 -1995371279 -1231882836 1644045912 -1762377697 -1675445988 -1516313303 -883941618 450370851 -758976691 -333318576 -1101850763 1120391840 1291980093 1641356432 -480721336 -1794531023 -224810417 1209911425 -1753618617 754080498 -581187459 -933120864 1452348988 -1125326673 784354210
REM
CELL 1.54180   50.00000   50.00000   50.00000   90.00000   90.00000   90.00000
LATT -1
SFAC C  
C      1  0.5715260000000  0.4648250000000  0.4576780000000 1.0
C      1  0.5574300000000  0.6089480000000  0.4923350000000 1.0
C      1  0.3977660000000  0.4451200000000  0.5075680000000 1.0
C      1  0.4464120000000  0.5430120000000  0.5541890000000 1.0
C      1  0.4693860000000  0.4610200000000  0.5201030000000 1.0
C      1  0.5336790000000  0.5138110000000  0.4989700000000 1.0
C      1  0.5246360000000  0.5374820000000  0.5111390000000 1.0
C      1  0.4583340000000  0.5202900000000  0.5434450000000 1.0
C      1  0.4953530000000  0.4704330000000  0.5254970000000 1.0
C      1  0.4092350000000  0.3462280000000  0.4682910000000 1.0
C      1  0.5706720000000  0.3590770000000  0.4412340000000 1.0
C      1  0.6003100000000  0.7022310000000  0.4677230000000 1.0
C      1  0.5709660000000  0.3848470000000  0.4451660000000 1.0
C      1  0.5897210000000  0.6791970000000  0.4738000000000 1.0
C      1  0.4063270000000  0.3703090000000  0.4778460000000 1.0
C      1  0.4249980000000  0.5866240000000  0.5742480000000 1.0
C      1  0.4206550000000  0.4592110000000  0.5152200000000 1.0
C      1  0.5531480000000  0.4757130000000  0.4756970000000 1.0
C      1  0.5165210000000  0.4695310000000  0.5072220000000 1.0
C      1  0.5359100000000  0.5621290000000  0.5046860000000 1.0
C      1  0.4430720000000  0.4988750000000  0.5332080000000 1.0
C      1  0.4866760000000  0.5172530000000  0.5424060000000 1.0
C      1  0.4965670000000  0.4908700000000  0.5450800000000 1.0
C      1  0.5038730000000  0.5355700000000  0.5300180000000 1.0
C      1  0.4004540000000  0.4192630000000  0.4972730000000 1.0
C      1  0.5715340000000  0.4372290000000  0.4531840000000 1.0
C      1  0.5681930000000  0.6323620000000  0.4861580000000 1.0
C      1  0.4437720000000  0.4727150000000  0.5226630000000 1.0
C      1  0.5347050000000  0.4862160000000  0.4937150000000 1.0
C      1  0.4355930000000  0.5649780000000  0.5643040000000 1.0
C      1  0.4033710000000  0.3947930000000  0.4875610000000 1.0
C      1  0.5712630000000  0.4110480000000  0.4491650000000 1.0
C      1  0.5789550000000  0.6557760000000  0.4799800000000 1.0
C      1  0.5892970000000  0.4809830000000  0.4445940000000 1.0
C      1  0.5466670000000  0.5855340000000  0.4985130000000 1.0
C      1  0.3730240000000  0.4564960000000  0.5101220000000 1.0
END
