TITL C-3623284-6838-577 -5.64833538091258e-07 125000 -166.775088140968 0 0 28 (C1) n - 1
REM
REM in /home/nfs/bkarasulu/CARBON/AIRSS/Generating-Clusters/LCBOP/Higher-Symm/SD-CG/FIRE-CG
REM
REM
REM
REM
REM
REM ./C.cell (b20cbc046b6831c77cfcea5457e17084)
REM AIRSS Version 0.9.1 bugfix July 2018 build 013d7b7c2542+ Fri, 06 Jul 2018 19:26:36 +0100
REM compiler GCC version 9.2.1 20190827 (Red Hat 9.2.1-1)
REM options -cpp -mtune=generic -march=x86-64 -g -O0 -fpre-include=/usr/include/finclude/math-vector-fortran.h
REM seed -1290804874 -774921309 -1997760767 -805392392 -1681579533 -31771863 1208641018 -1097094735 1108107374 672475006 593679127 518925001 2062154198 -767147086 -552771665 -1589718333 1532372212 -8301491 1166067920 -799468987 766621726 -206186160 -1502108155 1676448714 -1008720503 330154956 -1004061397 1374720064 1226915639 2100875714 1255141416 -713023915 2089380850
REM
CELL 1.54180   50.00000   50.00000   50.00000   90.00000   90.00000   90.00000
LATT -1
SFAC C  
C      1  0.4935370000000  0.4769900000000  0.5567510000000 1.0
C      1  0.4899140000000  0.4809270000000  0.4434280000000 1.0
C      1  0.5178000000000  0.5721340000000  0.4589130000000 1.0
C      1  0.5112870000000  0.5630580000000  0.5350440000000 1.0
C      1  0.4413080000000  0.4752340000000  0.4812080000000 1.0
C      1  0.4526740000000  0.5123160000000  0.5284820000000 1.0
C      1  0.5074570000000  0.5259280000000  0.4424080000000 1.0
C      1  0.5018370000000  0.5254360000000  0.5707110000000 1.0
C      1  0.5171430000000  0.4455500000000  0.5142040000000 1.0
C      1  0.5152580000000  0.4329270000000  0.4892350000000 1.0
C      1  0.5144630000000  0.5528100000000  0.4405520000000 1.0
C      1  0.5070290000000  0.5470430000000  0.5559270000000 1.0
C      1  0.4836550000000  0.4946460000000  0.4688610000000 1.0
C      1  0.4914440000000  0.4831990000000  0.5287730000000 1.0
C      1  0.5174770000000  0.5784580000000  0.4848820000000 1.0
C      1  0.5148890000000  0.5741740000000  0.5110840000000 1.0
C      1  0.5241130000000  0.5144810000000  0.4878720000000 1.0
C      1  0.5309710000000  0.4935680000000  0.5031990000000 1.0
C      1  0.5020920000000  0.4500460000000  0.5606510000000 1.0
C      1  0.4975890000000  0.4540850000000  0.4457030000000 1.0
C      1  0.4692310000000  0.4947120000000  0.5156310000000 1.0
C      1  0.4644360000000  0.4880880000000  0.4882550000000 1.0
C      1  0.5004320000000  0.5025150000000  0.4267740000000 1.0
C      1  0.4963720000000  0.4993360000000  0.5733870000000 1.0
C      1  0.5143550000000  0.4740410000000  0.5141400000000 1.0
C      1  0.5029520000000  0.5163730000000  0.4696650000000 1.0
C      1  0.5074370000000  0.4369530000000  0.4638830000000 1.0
C      1  0.5128490000000  0.4349720000000  0.5403770000000 1.0
END
