TITL C-3623283-6828-1950 -0.0949160771079306 125000 -540.51148111466 0 0 88 (C1) n - 1
REM
REM in /home/nfs/bkarasulu/CARBON/AIRSS/Generating-Clusters/LCBOP/Higher-Symm/SD-CG/FIRE-CG
REM
REM
REM
REM
REM
REM ./C.cell (b20cbc046b6831c77cfcea5457e17084)
REM AIRSS Version 0.9.1 bugfix July 2018 build 013d7b7c2542+ Fri, 06 Jul 2018 19:26:36 +0100
REM compiler GCC version 9.2.1 20190827 (Red Hat 9.2.1-1)
REM options -cpp -mtune=generic -march=x86-64 -g -O0 -fpre-include=/usr/include/finclude/math-vector-fortran.h
REM seed 233984455 1480889464 290597272 -1920760581 -714220746 1071307337 1484200813 -1774693246 -1472256653 -1832033851 2020973186 -122449650 1169718970 -1912332720 -274122363 1080103715 -1716058463 1031706561 695726996 -116189761 8035260 688075649 -1630399622 635213892 441443312 -1215194903 1031166127 641116371 609657633 -1716682138 1233384198 1489172735 441355199
REM
CELL 1.54180   50.00000   50.00000   50.00000   90.00000   90.00000   90.00000
LATT -1
SFAC C  
C      1  0.4928700000000  0.5326050000000  0.5009270000000 1.0
C      1  0.4939530000000  0.4842530000000  0.4707940000000 1.0
C      1  0.4939060000000  0.4826550000000  0.5266110000000 1.0
C      1  0.5048400000000  0.4298790000000  0.4486330000000 1.0
C      1  0.5045810000000  0.4909370000000  0.5859700000000 1.0
C      1  0.5051000000000  0.5794070000000  0.4657210000000 1.0
C      1  0.5402890000000  0.4305410000000  0.5289600000000 1.0
C      1  0.5400020000000  0.5595930000000  0.5472540000000 1.0
C      1  0.5408360000000  0.5104830000000  0.4250730000000 1.0
C      1  0.5042770000000  0.5315080000000  0.4751240000000 1.0
C      1  0.5056980000000  0.4625340000000  0.4845980000000 1.0
C      1  0.5041590000000  0.5054180000000  0.5393880000000 1.0
C      1  0.4575270000000  0.5789510000000  0.5180560000000 1.0
C      1  0.4582730000000  0.4759770000000  0.4223050000000 1.0
C      1  0.4563500000000  0.4482890000000  0.5583000000000 1.0
C      1  0.5155450000000  0.4480810000000  0.4296750000000 1.0
C      1  0.5147850000000  0.4652550000000  0.5802540000000 1.0
C      1  0.5156730000000  0.5867040000000  0.4909530000000 1.0
C      1  0.4662110000000  0.4815630000000  0.5201490000000 1.0
C      1  0.4642830000000  0.5369490000000  0.5026150000000 1.0
C      1  0.4653610000000  0.4833950000000  0.4664070000000 1.0
C      1  0.4184020000000  0.4998320000000  0.4704680000000 1.0
C      1  0.4162530000000  0.4737840000000  0.5185490000000 1.0
C      1  0.4171230000000  0.5260820000000  0.5154700000000 1.0
C      1  0.4906950000000  0.5610970000000  0.5553500000000 1.0
C      1  0.4916030000000  0.5171760000000  0.4193890000000 1.0
C      1  0.4905450000000  0.4234400000000  0.5256640000000 1.0
C      1  0.5145050000000  0.5712360000000  0.5423910000000 1.0
C      1  0.5152950000000  0.5005800000000  0.4173880000000 1.0
C      1  0.5144840000000  0.4289520000000  0.5409810000000 1.0
C      1  0.3679910000000  0.4875010000000  0.4619570000000 1.0
C      1  0.3666200000000  0.4701240000000  0.5355370000000 1.0
C      1  0.3665180000000  0.5401360000000  0.5127640000000 1.0
C      1  0.4492850000000  0.4726750000000  0.5686250000000 1.0
C      1  0.4564680000000  0.5635840000000  0.4929910000000 1.0
C      1  0.4571260000000  0.4619450000000  0.4481110000000 1.0
C      1  0.4486180000000  0.4390290000000  0.5108610000000 1.0
C      1  0.4495360000000  0.5400890000000  0.5477490000000 1.0
C      1  0.4504240000000  0.5208230000000  0.4414600000000 1.0
C      1  0.6103410000000  0.5088940000000  0.4529790000000 1.0
C      1  0.6106480000000  0.4543970000000  0.5186730000000 1.0
C      1  0.6096980000000  0.5368960000000  0.5322250000000 1.0
C      1  0.5566570000000  0.4523830000000  0.5206490000000 1.0
C      1  0.5557930000000  0.5413720000000  0.5321850000000 1.0
C      1  0.5564790000000  0.5071550000000  0.4485840000000 1.0
C      1  0.5419430000000  0.4751320000000  0.5122510000000 1.0
C      1  0.5408010000000  0.5236850000000  0.5158360000000 1.0
C      1  0.5413190000000  0.5024340000000  0.4720780000000 1.0
C      1  0.4604400000000  0.4284370000000  0.4867330000000 1.0
C      1  0.4603630000000  0.5244660000000  0.5695470000000 1.0
C      1  0.4613400000000  0.5473760000000  0.4444780000000 1.0
C      1  0.4784440000000  0.4201740000000  0.4429680000000 1.0
C      1  0.4793140000000  0.4920090000000  0.5992350000000 1.0
C      1  0.4787330000000  0.5892410000000  0.4601320000000 1.0
C      1  0.6625610000000  0.4603690000000  0.5129740000000 1.0
C      1  0.6615580000000  0.5284700000000  0.5306820000000 1.0
C      1  0.6619710000000  0.5099900000000  0.4627830000000 1.0
C      1  0.4895970000000  0.5435560000000  0.4334900000000 1.0
C      1  0.4886320000000  0.4214280000000  0.4958600000000 1.0
C      1  0.4887390000000  0.5356810000000  0.5709220000000 1.0
C      1  0.5842150000000  0.5083800000000  0.4486400000000 1.0
C      1  0.5843930000000  0.4515140000000  0.5206780000000 1.0
C      1  0.5835260000000  0.5408150000000  0.5333660000000 1.0
C      1  0.5134440000000  0.5856220000000  0.5177740000000 1.0
C      1  0.5139520000000  0.4720320000000  0.4173930000000 1.0
C      1  0.5130280000000  0.4425900000000  0.5659310000000 1.0
C      1  0.4640660000000  0.5660360000000  0.5433820000000 1.0
C      1  0.4649030000000  0.5043440000000  0.4210170000000 1.0
C      1  0.4640520000000  0.4323170000000  0.5355930000000 1.0
C      1  0.5121770000000  0.5246280000000  0.5205020000000 1.0
C      1  0.5127330000000  0.5056630000000  0.4685080000000 1.0
C      1  0.5136840000000  0.4699600000000  0.5104140000000 1.0
C      1  0.3928250000000  0.4938550000000  0.4666980000000 1.0
C      1  0.3911830000000  0.4723280000000  0.5270940000000 1.0
C      1  0.3914550000000  0.5326040000000  0.5137500000000 1.0
C      1  0.5063530000000  0.4352680000000  0.4771850000000 1.0
C      1  0.5055950000000  0.5123400000000  0.5666240000000 1.0
C      1  0.5066150000000  0.5521440000000  0.4557640000000 1.0
C      1  0.4590110000000  0.5687640000000  0.4646820000000 1.0
C      1  0.4587220000000  0.4348640000000  0.4579690000000 1.0
C      1  0.4576260000000  0.4973780000000  0.5808910000000 1.0
C      1  0.6362830000000  0.5093250000000  0.4583910000000 1.0
C      1  0.6367600000000  0.4578850000000  0.5157560000000 1.0
C      1  0.6357710000000  0.5322790000000  0.5310390000000 1.0
C      1  0.4441060000000  0.5288590000000  0.5220390000000 1.0
C      1  0.4451980000000  0.5042190000000  0.4640970000000 1.0
C      1  0.4427280000000  0.4668710000000  0.5136660000000 1.0
C      1  0.5485700000000  0.5005760000000  0.5000920000000 1.0
END
