TITL C-3623283-6828-792 4613.00404257154 125000 -702.579085622311 0 0 117 (C1) n - 1
REM
REM in /home/nfs/bkarasulu/CARBON/AIRSS/Generating-Clusters/LCBOP/Higher-Symm/SD-CG/FIRE-CG
REM
REM
REM
REM
REM
REM ./C.cell (b20cbc046b6831c77cfcea5457e17084)
REM AIRSS Version 0.9.1 bugfix July 2018 build 013d7b7c2542+ Fri, 06 Jul 2018 19:26:36 +0100
REM compiler GCC version 9.2.1 20190827 (Red Hat 9.2.1-1)
REM options -cpp -mtune=generic -march=x86-64 -g -O0 -fpre-include=/usr/include/finclude/math-vector-fortran.h
REM seed -1421272968 2071431035 -1184797412 1595602161 -2062912445 -1466836919 1164655809 372953225 -1594193798 2131114086 1627296642 -363936216 1881155736 -1768350843 -2088385060 1084914080 -1675589544 1512222715 488034711 358750407 1088992573 -493487269 506504052 872071655 1960971983 -429140838 -1457940479 1106262546 2045408437 1823091239 -788733587 -151162276 930223218
REM
CELL 1.54180   50.00000   50.00000   50.00000   90.00000   90.00000   90.00000
LATT -1
SFAC C  
C      1  0.5325120000000  0.4396920000000  0.5769020000000 1.0
C      1  0.5770230000000  0.4386110000000  0.4777540000000 1.0
C      1  0.4794750000000  0.4438200000000  0.4271160000000 1.0
C      1  0.4288560000000  0.4423170000000  0.5332520000000 1.0
C      1  0.4816590000000  0.4445040000000  0.5788890000000 1.0
C      1  0.4276630000000  0.4447330000000  0.4785660000000 1.0
C      1  0.5312990000000  0.4392530000000  0.4275880000000 1.0
C      1  0.5778190000000  0.4380740000000  0.5289070000000 1.0
C      1  0.4184690000000  0.4940030000000  0.5473380000000 1.0
C      1  0.5469260000000  0.4902290000000  0.5675300000000 1.0
C      1  0.5651400000000  0.4947450000000  0.4414550000000 1.0
C      1  0.4406640000000  0.4983170000000  0.4230290000000 1.0
C      1  0.5665730000000  0.4891690000000  0.5492800000000 1.0
C      1  0.4366800000000  0.4974340000000  0.5667740000000 1.0
C      1  0.4213700000000  0.4988080000000  0.4419070000000 1.0
C      1  0.5462660000000  0.4911520000000  0.4228120000000 1.0
C      1  0.4748480000000  0.5747060000000  0.5610200000000 1.0
C      1  0.5615990000000  0.5661290000000  0.5254020000000 1.0
C      1  0.5244840000000  0.5701350000000  0.4404490000000 1.0
C      1  0.4369730000000  0.5796180000000  0.4755360000000 1.0
C      1  0.5230970000000  0.5658810000000  0.5631230000000 1.0
C      1  0.4387670000000  0.5725640000000  0.5244110000000 1.0
C      1  0.4759080000000  0.5783070000000  0.4373920000000 1.0
C      1  0.5601950000000  0.5733670000000  0.4769070000000 1.0
C      1  0.5264440000000  0.4231620000000  0.4514810000000 1.0
C      1  0.4501710000000  0.4265360000000  0.4823440000000 1.0
C      1  0.4837690000000  0.4262280000000  0.5558260000000 1.0
C      1  0.5547230000000  0.4237820000000  0.5194180000000 1.0
C      1  0.4830740000000  0.4250780000000  0.4498520000000 1.0
C      1  0.5659450000000  0.4110030000000  0.4795100000000 1.0
C      1  0.5268030000000  0.4243160000000  0.5530600000000 1.0
C      1  0.4510180000000  0.4255370000000  0.5255030000000 1.0
C      1  0.4749550000000  0.5494230000000  0.4374860000000 1.0
C      1  0.4366000000000  0.5432560000000  0.5225310000000 1.0
C      1  0.5208230000000  0.5367440000000  0.5628870000000 1.0
C      1  0.5540760000000  0.5451410000000  0.4778680000000 1.0
C      1  0.5223050000000  0.5407180000000  0.4390020000000 1.0
C      1  0.5610700000000  0.5370390000000  0.5236620000000 1.0
C      1  0.4754010000000  0.5463570000000  0.5554620000000 1.0
C      1  0.4363640000000  0.5507410000000  0.4749440000000 1.0
C      1  0.4156980000000  0.5877110000000  0.5161930000000 1.0
C      1  0.5132740000000  0.5790520000000  0.5867190000000 1.0
C      1  0.5844700000000  0.5826930000000  0.4884020000000 1.0
C      1  0.4902210000000  0.5898630000000  0.4154260000000 1.0
C      1  0.5853850000000  0.5788350000000  0.5155030000000 1.0
C      1  0.4863530000000  0.5839510000000  0.5853400000000 1.0
C      1  0.4150590000000  0.5920840000000  0.4891190000000 1.0
C      1  0.5171510000000  0.5847590000000  0.4167260000000 1.0
C      1  0.4649920000000  0.5858740000000  0.5149420000000 1.0
C      1  0.5158600000000  0.5813720000000  0.5378150000000 1.0
C      1  0.5349860000000  0.5860880000000  0.4871400000000 1.0
C      1  0.4850040000000  0.5885860000000  0.4645120000000 1.0
C      1  0.5364920000000  0.5813700000000  0.5174820000000 1.0
C      1  0.4856960000000  0.5868680000000  0.5357710000000 1.0
C      1  0.4641890000000  0.5892370000000  0.4850280000000 1.0
C      1  0.5146790000000  0.5845660000000  0.4660010000000 1.0
C      1  0.5070750000000  0.4935120000000  0.5381940000000 1.0
C      1  0.5334000000000  0.4865010000000  0.4824490000000 1.0
C      1  0.4768510000000  0.4935420000000  0.4585540000000 1.0
C      1  0.4583720000000  0.4987430000000  0.5111280000000 1.0
C      1  0.4761840000000  0.4914770000000  0.5360840000000 1.0
C      1  0.4559590000000  0.4944120000000  0.4790450000000 1.0
C      1  0.5092530000000  0.4967120000000  0.4617220000000 1.0
C      1  0.5366470000000  0.4953760000000  0.5116460000000 1.0
C      1  0.4321980000000  0.4479000000000  0.5617330000000 1.0
C      1  0.5611550000000  0.4423560000000  0.5780780000000 1.0
C      1  0.5764000000000  0.4475480000000  0.4506010000000 1.0
C      1  0.4507410000000  0.4506150000000  0.4301760000000 1.0
C      1  0.5791840000000  0.4404920000000  0.5573430000000 1.0
C      1  0.4530690000000  0.4499950000000  0.5799320000000 1.0
C      1  0.4306970000000  0.4511220000000  0.4497890000000 1.0
C      1  0.5595890000000  0.4453420000000  0.4289340000000 1.0
C      1  0.4673780000000  0.5026760000000  0.4309620000000 1.0
C      1  0.4257780000000  0.4940840000000  0.5181440000000 1.0
C      1  0.5161900000000  0.4883990000000  0.5693670000000 1.0
C      1  0.5600960000000  0.4986650000000  0.4685280000000 1.0
C      1  0.5169390000000  0.4913880000000  0.4288820000000 1.0
C      1  0.5679980000000  0.4890640000000  0.5189310000000 1.0
C      1  0.4640080000000  0.5005600000000  0.5617810000000 1.0
C      1  0.4288480000000  0.5038940000000  0.4686050000000 1.0
C      1  0.4875520000000  0.5397040000000  0.5265040000000 1.0
C      1  0.5340410000000  0.5248520000000  0.5154240000000 1.0
C      1  0.5108250000000  0.5285250000000  0.4656330000000 1.0
C      1  0.4624650000000  0.5403520000000  0.4831130000000 1.0
C      1  0.5125400000000  0.5249460000000  0.5358870000000 1.0
C      1  0.4630100000000  0.5303090000000  0.5116450000000 1.0
C      1  0.4822910000000  0.5394720000000  0.4640350000000 1.0
C      1  0.5252050000000  0.5389770000000  0.4899070000000 1.0
C      1  0.5096490000000  0.5212600000000  0.4194340000000 1.0
C      1  0.4190440000000  0.5279200000000  0.4812760000000 1.0
C      1  0.4780160000000  0.5227660000000  0.5730120000000 1.0
C      1  0.5789570000000  0.5171120000000  0.5093260000000 1.0
C      1  0.4809690000000  0.5260560000000  0.4209000000000 1.0
C      1  0.5711410000000  0.5216880000000  0.4812600000000 1.0
C      1  0.5061630000000  0.5168350000000  0.5804270000000 1.0
C      1  0.4168380000000  0.5238540000000  0.5101210000000 1.0
C      1  0.4911260000000  0.4460480000000  0.5348790000000 1.0
C      1  0.5362720000000  0.4455920000000  0.5120170000000 1.0
C      1  0.5178510000000  0.4436020000000  0.4698170000000 1.0
C      1  0.4710970000000  0.4465080000000  0.4892980000000 1.0
C      1  0.5187260000000  0.4453540000000  0.5334610000000 1.0
C      1  0.4706830000000  0.4460920000000  0.5168260000000 1.0
C      1  0.4904120000000  0.4449360000000  0.4703970000000 1.0
C      1  0.5325720000000  0.4576980000000  0.4873240000000 1.0
C      1  0.5189570000000  0.3984300000000  0.4668080000000 1.0
C      1  0.4665310000000  0.4005950000000  0.4879910000000 1.0
C      1  0.4885250000000  0.4002160000000  0.5395320000000 1.0
C      1  0.5381610000000  0.3989590000000  0.5156580000000 1.0
C      1  0.4882480000000  0.3994040000000  0.4665210000000 1.0
C      1  0.5405850000000  0.3956550000000  0.4866110000000 1.0
C      1  0.5184310000000  0.3992060000000  0.5376270000000 1.0
C      1  0.4669930000000  0.4001660000000  0.5185150000000 1.0
C      1  0.5805650000000  0.4584070000000  0.5074430000000 1.0
C      1  0.4217930000000  0.4605520000000  0.5093150000000 1.0
C      1  0.5089700000000  0.4590420000000  0.5812620000000 1.0
C      1  0.5073420000000  0.4580330000000  0.4223650000000 1.0
C      1  0.5017670000000  0.5547550000000  0.5031340000000 1.0
END
