TITL C-3623286-7563-1783 -1.26984846289011e-06 125000 -921.233997078432 0 0 148 (C2h) n - 1
REM
REM in /home/nfs/bkarasulu/CARBON/AIRSS/Generating-Clusters/LCBOP/Higher-Symm/SD-CG/FIRE-CG
REM
REM
REM
REM
REM
REM ./C.cell (b20cbc046b6831c77cfcea5457e17084)
REM AIRSS Version 0.9.1 bugfix July 2018 build 013d7b7c2542+ Fri, 06 Jul 2018 19:26:36 +0100
REM compiler GCC version 9.2.1 20190827 (Red Hat 9.2.1-1)
REM options -cpp -mtune=generic -march=x86-64 -g -O0 -fpre-include=/usr/include/finclude/math-vector-fortran.h
REM seed 40291754 970016350 -1896089150 1677346500 -701775286 73008086 -2044289920 -71782951 185180033 1708333579 668710043 -1467923313 -1409728802 -1139987623 -312346861 2063911579 1860243736 716592862 -1326222643 1598438213 -405251553 1021370388 242259572 1749546168 -1964045304 -2081715609 904968479 1398075715 959272859 -100045528 403805230 509276236 -360566230
REM
CELL 1.54180   50.00000   50.00000   50.00000   90.00000   90.00000   90.00000
LATT -1
SFAC C  
C      1  0.5295000000000  0.4026060000000  0.4848420000000 1.0
C      1  0.5317450000000  0.6006350000000  0.5148530000000 1.0
C      1  0.4682550000000  0.3993650000000  0.4851470000000 1.0
C      1  0.4705000000000  0.5973940000000  0.5151580000000 1.0
C      1  0.5294980000000  0.5973940000000  0.4848410000000 1.0
C      1  0.5317460000000  0.3993660000000  0.5148540000000 1.0
C      1  0.4682540000000  0.6006340000000  0.4851460000000 1.0
C      1  0.4705020000000  0.4026060000000  0.5151590000000 1.0
C      1  0.4548980000000  0.5141370000000  0.5590750000000 1.0
C      1  0.4506500000000  0.4859310000000  0.4416910000000 1.0
C      1  0.5493500000000  0.5140690000000  0.5583090000000 1.0
C      1  0.5451020000000  0.4858630000000  0.4409250000000 1.0
C      1  0.4548980000000  0.4858630000000  0.5590750000000 1.0
C      1  0.4506500000000  0.5140670000000  0.4416900000000 1.0
C      1  0.5493500000000  0.4859330000000  0.5583100000000 1.0
C      1  0.5451020000000  0.5141370000000  0.4409250000000 1.0
C      1  0.5158010000000  0.4221770000000  0.5789460000000 1.0
C      1  0.5134670000000  0.5780200000000  0.4205820000000 1.0
C      1  0.4865330000000  0.4219800000000  0.5794180000000 1.0
C      1  0.4841990000000  0.5778230000000  0.4210540000000 1.0
C      1  0.5158000000000  0.5778250000000  0.5789450000000 1.0
C      1  0.5134680000000  0.4219790000000  0.4205840000000 1.0
C      1  0.4865320000000  0.5780210000000  0.5794160000000 1.0
C      1  0.4842000000000  0.4221750000000  0.4210550000000 1.0
C      1  0.5240940000000  0.5992770000000  0.4366650000000 1.0
C      1  0.5261630000000  0.4004830000000  0.5631760000000 1.0
C      1  0.4738370000000  0.5995170000000  0.4368240000000 1.0
C      1  0.4759060000000  0.4007230000000  0.5633350000000 1.0
C      1  0.5240960000000  0.4007220000000  0.4366660000000 1.0
C      1  0.5261620000000  0.5995180000000  0.5631750000000 1.0
C      1  0.4738380000000  0.4004820000000  0.4368250000000 1.0
C      1  0.4759040000000  0.5992780000000  0.5633340000000 1.0
C      1  0.5322310000000  0.4742350000000  0.4642050000000 1.0
C      1  0.5387420000000  0.5282050000000  0.5354890000000 1.0
C      1  0.4612580000000  0.4717950000000  0.4645110000000 1.0
C      1  0.4677690000000  0.5257650000000  0.5357950000000 1.0
C      1  0.5322310000000  0.5257650000000  0.4642050000000 1.0
C      1  0.5387420000000  0.4717970000000  0.5354890000000 1.0
C      1  0.4612580000000  0.5282030000000  0.4645110000000 1.0
C      1  0.4677690000000  0.4742350000000  0.5357950000000 1.0
C      1  0.6039200000000  0.4660620000000  0.5561900000000 1.0
C      1  0.6146040000000  0.5308550000000  0.4457140000000 1.0
C      1  0.3853960000000  0.4691450000000  0.5542860000000 1.0
C      1  0.3960800000000  0.5339380000000  0.4438100000000 1.0
C      1  0.6039200000000  0.5339410000000  0.5561900000000 1.0
C      1  0.6146050000000  0.4691460000000  0.4457150000000 1.0
C      1  0.3853950000000  0.5308540000000  0.5542850000000 1.0
C      1  0.3960800000000  0.4660590000000  0.4438100000000 1.0
C      1  0.5248190000000  0.4473740000000  0.4237880000000 1.0
C      1  0.5262600000000  0.5519980000000  0.5730200000000 1.0
C      1  0.4737400000000  0.4480020000000  0.4269800000000 1.0
C      1  0.4751810000000  0.5526260000000  0.5762120000000 1.0
C      1  0.5248190000000  0.5526260000000  0.4237870000000 1.0
C      1  0.5262610000000  0.4480040000000  0.5730200000000 1.0
C      1  0.4737390000000  0.5519960000000  0.4269800000000 1.0
C      1  0.4751810000000  0.4473740000000  0.5762130000000 1.0
C      1  0.5398820000000  0.4863360000000  0.3935650000000 1.0
C      1  0.5411390000000  0.5136410000000  0.6058360000000 1.0
C      1  0.4588610000000  0.4863590000000  0.3941640000000 1.0
C      1  0.4601180000000  0.5136640000000  0.6064350000000 1.0
C      1  0.5398820000000  0.5136630000000  0.3935650000000 1.0
C      1  0.5411390000000  0.4863610000000  0.6058360000000 1.0
C      1  0.4588610000000  0.5136390000000  0.3941640000000 1.0
C      1  0.4601180000000  0.4863370000000  0.6064350000000 1.0
C      1  0.5421040000000  0.5295430000000  0.5825060000000 1.0
C      1  0.5395440000000  0.4703700000000  0.4169750000000 1.0
C      1  0.4604560000000  0.5296300000000  0.5830250000000 1.0
C      1  0.4578960000000  0.4704570000000  0.4174940000000 1.0
C      1  0.5421040000000  0.4704590000000  0.5825070000000 1.0
C      1  0.5395440000000  0.5296290000000  0.4169740000000 1.0
C      1  0.4604560000000  0.4703710000000  0.5830260000000 1.0
C      1  0.4578960000000  0.5295410000000  0.4174930000000 1.0
C      1  0.4865800000000  0.6051630000000  0.5370360000000 1.0
C      1  0.4848010000000  0.3940060000000  0.4629270000000 1.0
C      1  0.5151990000000  0.6059940000000  0.5370730000000 1.0
C      1  0.5134200000000  0.3948370000000  0.4629640000000 1.0
C      1  0.4865820000000  0.3948370000000  0.5370380000000 1.0
C      1  0.4847990000000  0.6059940000000  0.4629250000000 1.0
C      1  0.5152010000000  0.3940060000000  0.5370750000000 1.0
C      1  0.5134180000000  0.6051630000000  0.4629620000000 1.0
C      1  0.5164290000000  0.5432070000000  0.5459960000000 1.0
C      1  0.5113660000000  0.4577520000000  0.4558140000000 1.0
C      1  0.4886340000000  0.5422480000000  0.5441860000000 1.0
C      1  0.4835710000000  0.4567930000000  0.4540040000000 1.0
C      1  0.5164290000000  0.4567940000000  0.5459960000000 1.0
C      1  0.5113660000000  0.5422470000000  0.4558140000000 1.0
C      1  0.4886340000000  0.4577530000000  0.5441860000000 1.0
C      1  0.4835710000000  0.5432060000000  0.4540040000000 1.0
C      1  0.4477000000000  0.5784750000000  0.5223460000000 1.0
C      1  0.4432220000000  0.4148320000000  0.4785100000000 1.0
C      1  0.5567780000000  0.5851680000000  0.5214900000000 1.0
C      1  0.5523000000000  0.4215250000000  0.4776540000000 1.0
C      1  0.4477010000000  0.4215250000000  0.5223470000000 1.0
C      1  0.4432210000000  0.5851670000000  0.4785080000000 1.0
C      1  0.5567790000000  0.4148330000000  0.5214920000000 1.0
C      1  0.5522990000000  0.5784750000000  0.4776530000000 1.0
C      1  0.5804240000000  0.5977230000000  0.5088230000000 1.0
C      1  0.5779800000000  0.4067970000000  0.4808810000000 1.0
C      1  0.4220200000000  0.5932030000000  0.5191190000000 1.0
C      1  0.4195760000000  0.4022770000000  0.4911770000000 1.0
C      1  0.5804260000000  0.4022780000000  0.5088240000000 1.0
C      1  0.5779790000000  0.5932040000000  0.4808800000000 1.0
C      1  0.4220210000000  0.4067960000000  0.5191200000000 1.0
C      1  0.4195740000000  0.5977220000000  0.4911760000000 1.0
C      1  0.4167890000000  0.5270430000000  0.4885060000000 1.0
C      1  0.4036170000000  0.4858450000000  0.5109810000000 1.0
C      1  0.5963830000000  0.5141550000000  0.4890190000000 1.0
C      1  0.5832110000000  0.4729570000000  0.5114940000000 1.0
C      1  0.4167890000000  0.4729550000000  0.4885060000000 1.0
C      1  0.4036160000000  0.5141540000000  0.5109800000000 1.0
C      1  0.5963840000000  0.4858460000000  0.4890200000000 1.0
C      1  0.5832110000000  0.5270450000000  0.5114940000000 1.0
C      1  0.3988470000000  0.4590410000000  0.4706380000000 1.0
C      1  0.3869330000000  0.5318560000000  0.5264730000000 1.0
C      1  0.6130670000000  0.4681440000000  0.4735270000000 1.0
C      1  0.6011530000000  0.5409590000000  0.5293620000000 1.0
C      1  0.3988460000000  0.5409570000000  0.4706380000000 1.0
C      1  0.3869340000000  0.4681430000000  0.5264740000000 1.0
C      1  0.6130660000000  0.5318570000000  0.4735260000000 1.0
C      1  0.6011540000000  0.4590430000000  0.5293620000000 1.0
C      1  0.3844450000000  0.4865830000000  0.5745560000000 1.0
C      1  0.3924590000000  0.5133520000000  0.4272200000000 1.0
C      1  0.6075410000000  0.4866480000000  0.5727800000000 1.0
C      1  0.6155550000000  0.5134170000000  0.4254440000000 1.0
C      1  0.3844450000000  0.5134170000000  0.5745560000000 1.0
C      1  0.3924590000000  0.4866460000000  0.4272200000000 1.0
C      1  0.6075410000000  0.5133540000000  0.5727800000000 1.0
C      1  0.6155550000000  0.4865830000000  0.4254440000000 1.0
C      1  0.4469270000000  0.4675640000000  0.4902300000000 1.0
C      1  0.4597220000000  0.5145190000000  0.5109960000000 1.0
C      1  0.5402780000000  0.4854810000000  0.4890040000000 1.0
C      1  0.5530730000000  0.5324360000000  0.5097700000000 1.0
C      1  0.4469270000000  0.5324350000000  0.4902290000000 1.0
C      1  0.4597220000000  0.4854810000000  0.5109970000000 1.0
C      1  0.5402780000000  0.5145190000000  0.4890030000000 1.0
C      1  0.5530730000000  0.4675650000000  0.5097710000000 1.0
C      1  0.3788550000000  0.5555920000000  0.4845400000000 1.0
C      1  0.3734120000000  0.4487460000000  0.5107820000000 1.0
C      1  0.6265880000000  0.5512540000000  0.4892180000000 1.0
C      1  0.6211450000000  0.4444080000000  0.5154600000000 1.0
C      1  0.3788560000000  0.4444060000000  0.4845410000000 1.0
C      1  0.3734110000000  0.5512520000000  0.5107810000000 1.0
C      1  0.6265890000000  0.4487480000000  0.4892190000000 1.0
C      1  0.6211440000000  0.5555940000000  0.5154590000000 1.0
C      1  0.4472880000000  0.5617610000000  0.4975380000000 1.0
C      1  0.5527120000000  0.4382390000000  0.5024620000000 1.0
C      1  0.4472890000000  0.4382380000000  0.4975390000000 1.0
C      1  0.5527110000000  0.5617620000000  0.5024610000000 1.0
END
