TITL C-3623283-6828-63 -2.91951277056034e-07 125000 -359.589912607699 0 0 61 (D4h) n - 1
REM
REM in /home/nfs/bkarasulu/CARBON/AIRSS/Generating-Clusters/LCBOP/Higher-Symm/SD-CG/FIRE-CG
REM
REM
REM
REM
REM
REM ./C.cell (b20cbc046b6831c77cfcea5457e17084)
REM AIRSS Version 0.9.1 bugfix July 2018 build 013d7b7c2542+ Fri, 06 Jul 2018 19:26:36 +0100
REM compiler GCC version 9.2.1 20190827 (Red Hat 9.2.1-1)
REM options -cpp -mtune=generic -march=x86-64 -g -O0 -fpre-include=/usr/include/finclude/math-vector-fortran.h
REM seed -1131378557 -228087296 1869808634 1522964166 1677617862 -100861700 -461996487 -1012462572 -446102242 -560248174 1363141189 1006338952 -462909491 -1961015052 -1312473829 -886759244 294720621 1246264764 325328078 -1306050312 78867368 557956402 1713216557 -836384462 -110951784 -913082721 -1325369037 -1832218175 -1532516534 -99223677 -1194149337 -1130718289 -685056507
REM
CELL 1.54180   50.00000   50.00000   50.00000   90.00000   90.00000   90.00000
LATT -1
SFAC C  
C      1  0.5613590000000  0.5247910000000  0.4480430000000 1.0
C      1  0.4763500000000  0.5611000000000  0.4480390000000 1.0
C      1  0.4387790000000  0.4769360000000  0.4480600000000 1.0
C      1  0.5234260000000  0.4394150000000  0.4480530000000 1.0
C      1  0.5613590000000  0.5247910000000  0.5498470000000 1.0
C      1  0.4763500000000  0.5611010000000  0.5498510000000 1.0
C      1  0.4387790000000  0.4769360000000  0.5498310000000 1.0
C      1  0.5234270000000  0.4394150000000  0.5498370000000 1.0
C      1  0.5574840000000  0.4709630000000  0.5498510000000 1.0
C      1  0.5302880000000  0.5593100000000  0.5498470000000 1.0
C      1  0.4414060000000  0.5305390000000  0.5498380000000 1.0
C      1  0.4698440000000  0.4424240000000  0.5498310000000 1.0
C      1  0.5574840000000  0.4709630000000  0.4480390000000 1.0
C      1  0.5302870000000  0.5593100000000  0.4480430000000 1.0
C      1  0.4414050000000  0.5305390000000  0.4480530000000 1.0
C      1  0.4698440000000  0.4424230000000  0.4480600000000 1.0
C      1  0.5649120000000  0.4695950000000  0.4739520000000 1.0
C      1  0.5313130000000  0.5663380000000  0.4740630000000 1.0
C      1  0.4342390000000  0.5319750000000  0.4740310000000 1.0
C      1  0.4685940000000  0.4351920000000  0.4740250000000 1.0
C      1  0.5649120000000  0.4695950000000  0.5239380000000 1.0
C      1  0.5313130000000  0.5663380000000  0.5238270000000 1.0
C      1  0.4342400000000  0.5319750000000  0.5238600000000 1.0
C      1  0.4685940000000  0.4351920000000  0.5238670000000 1.0
C      1  0.5140130000000  0.4836070000000  0.5692850000000 1.0
C      1  0.5173830000000  0.5164510000000  0.5698300000000 1.0
C      1  0.4843670000000  0.5165430000000  0.5692850000000 1.0
C      1  0.4833080000000  0.4857800000000  0.5689620000000 1.0
C      1  0.5140120000000  0.4836070000000  0.4286050000000 1.0
C      1  0.5173820000000  0.5164510000000  0.4280600000000 1.0
C      1  0.4843660000000  0.5165430000000  0.4286050000000 1.0
C      1  0.4833080000000  0.4857800000000  0.4289290000000 1.0
C      1  0.5684560000000  0.5250740000000  0.4740620000000 1.0
C      1  0.4757680000000  0.5686310000000  0.4739520000000 1.0
C      1  0.4314560000000  0.4764510000000  0.4740250000000 1.0
C      1  0.5241030000000  0.4321380000000  0.4740310000000 1.0
C      1  0.5684560000000  0.5250740000000  0.5238270000000 1.0
C      1  0.4757680000000  0.5686310000000  0.5239380000000 1.0
C      1  0.4314570000000  0.4764510000000  0.5238670000000 1.0
C      1  0.5241040000000  0.4321380000000  0.5238600000000 1.0
C      1  0.5320960000000  0.4642150000000  0.4374630000000 1.0
C      1  0.5368120000000  0.5339400000000  0.4373040000000 1.0
C      1  0.4669770000000  0.5365600000000  0.4374630000000 1.0
C      1  0.4634650000000  0.4679190000000  0.4375270000000 1.0
C      1  0.5320970000000  0.4642150000000  0.5604280000000 1.0
C      1  0.5368130000000  0.5339400000000  0.5605860000000 1.0
C      1  0.4669780000000  0.5365610000000  0.5604280000000 1.0
C      1  0.4634660000000  0.4679200000000  0.5603640000000 1.0
C      1  0.5191500000000  0.4444030000000  0.4989450000000 1.0
C      1  0.5561390000000  0.5201280000000  0.4989450000000 1.0
C      1  0.4808310000000  0.5565880000000  0.4989450000000 1.0
C      1  0.4436650000000  0.4814730000000  0.4989460000000 1.0
C      1  0.4459180000000  0.5257630000000  0.4989450000000 1.0
C      1  0.4748680000000  0.4468060000000  0.4989450000000 1.0
C      1  0.5534660000000  0.4758920000000  0.4989450000000 1.0
C      1  0.5251030000000  0.5546080000000  0.4989450000000 1.0
C      1  0.5360330000000  0.4991220000000  0.4989450000000 1.0
C      1  0.4636030000000  0.5026590000000  0.4989450000000 1.0
C      1  0.4980280000000  0.4644140000000  0.4989450000000 1.0
C      1  0.5021050000000  0.5368160000000  0.4989450000000 1.0
C      1  0.4995910000000  0.5004370000000  0.4989450000000 1.0
END
