TITL C-3623282-6910-1112 36.3183066182953 125000 -961.861885551997 0 0 162 (C1) n - 1
REM
REM in /home/nfs/bkarasulu/CARBON/AIRSS/Generating-Clusters/LCBOP/Higher-Symm/SD-CG/FIRE-CG
REM
REM
REM
REM
REM
REM ./C.cell (b20cbc046b6831c77cfcea5457e17084)
REM AIRSS Version 0.9.1 bugfix July 2018 build 013d7b7c2542+ Fri, 06 Jul 2018 19:26:36 +0100
REM compiler GCC version 9.2.1 20190827 (Red Hat 9.2.1-1)
REM options -cpp -mtune=generic -march=x86-64 -g -O0 -fpre-include=/usr/include/finclude/math-vector-fortran.h
REM seed -1346895183 -1648783880 -1537190193 1930792738 541018699 1510671007 507653147 521850246 -569320854 -1323058446 -135322229 -246444194 1056777337 1262282552 -275115164 -1726198707 307061137 -874200082 -417707367 690115087 367271924 1137063276 301890236 1985132390 800970375 1489366773 -69667230 212831824 -1587501916 -307476822 -1022465349 1935731601 -2052856401
REM
CELL 1.54180   50.00000   50.00000   50.00000   90.00000   90.00000   90.00000
LATT -1
SFAC C  
C      1  0.4365240000000  0.5238830000000  0.4829170000000 1.0
C      1  0.5243040000000  0.5631120000000  0.4849040000000 1.0
C      1  0.5648010000000  0.4753500000000  0.4885460000000 1.0
C      1  0.4760090000000  0.4368170000000  0.4868160000000 1.0
C      1  0.4351830000000  0.5249240000000  0.5108680000000 1.0
C      1  0.5243210000000  0.5637370000000  0.5129440000000 1.0
C      1  0.5635560000000  0.4763450000000  0.5165070000000 1.0
C      1  0.4760480000000  0.4371700000000  0.5148640000000 1.0
C      1  0.4487530000000  0.5752010000000  0.4333020000000 1.0
C      1  0.5711190000000  0.5489550000000  0.4363410000000 1.0
C      1  0.5491290000000  0.4305660000000  0.4339670000000 1.0
C      1  0.4285630000000  0.4503130000000  0.4332780000000 1.0
C      1  0.4511670000000  0.5695290000000  0.5662260000000 1.0
C      1  0.5711590000000  0.5503450000000  0.5661000000000 1.0
C      1  0.5519330000000  0.4252200000000  0.5660190000000 1.0
C      1  0.4287690000000  0.4515800000000  0.5631760000000 1.0
C      1  0.5301530000000  0.6351190000000  0.4284300000000 1.0
C      1  0.6405230000000  0.4709370000000  0.4379960000000 1.0
C      1  0.4706120000000  0.3631140000000  0.4329480000000 1.0
C      1  0.3578200000000  0.5249190000000  0.4394420000000 1.0
C      1  0.5293360000000  0.6370970000000  0.5674830000000 1.0
C      1  0.6414920000000  0.4749020000000  0.5618300000000 1.0
C      1  0.4699360000000  0.3657130000000  0.5721820000000 1.0
C      1  0.3586220000000  0.5286990000000  0.5599110000000 1.0
C      1  0.5445450000000  0.5778470000000  0.5262810000000 1.0
C      1  0.5766820000000  0.4568660000000  0.5317590000000 1.0
C      1  0.4557420000000  0.4232850000000  0.5283440000000 1.0
C      1  0.4210890000000  0.5450780000000  0.5241520000000 1.0
C      1  0.5445890000000  0.5769320000000  0.4713390000000 1.0
C      1  0.5788710000000  0.4550840000000  0.4753780000000 1.0
C      1  0.4556630000000  0.4229950000000  0.4733470000000 1.0
C      1  0.4234730000000  0.5432220000000  0.4674320000000 1.0
C      1  0.4677700000000  0.4903370000000  0.4676950000000 1.0
C      1  0.4922150000000  0.5309150000000  0.4660230000000 1.0
C      1  0.5332330000000  0.5060620000000  0.4686090000000 1.0
C      1  0.5064390000000  0.4685060000000  0.4671280000000 1.0
C      1  0.4666630000000  0.4941360000000  0.5306480000000 1.0
C      1  0.4938070000000  0.5317530000000  0.5320920000000 1.0
C      1  0.5322370000000  0.5096820000000  0.5321230000000 1.0
C      1  0.5077550000000  0.4694050000000  0.5341970000000 1.0
C      1  0.5597640000000  0.5001360000000  0.4752910000000 1.0
C      1  0.5002960000000  0.4425100000000  0.4729350000000 1.0
C      1  0.4415160000000  0.4976710000000  0.4723020000000 1.0
C      1  0.4997630000000  0.5574900000000  0.4714020000000 1.0
C      1  0.5584550000000  0.5023710000000  0.5274610000000 1.0
C      1  0.5004770000000  0.4428140000000  0.5285750000000 1.0
C      1  0.4401300000000  0.4999960000000  0.5239160000000 1.0
C      1  0.5000380000000  0.5578490000000  0.5267250000000 1.0
C      1  0.6169530000000  0.4772810000000  0.5503700000000 1.0
C      1  0.4737130000000  0.3876110000000  0.5565280000000 1.0
C      1  0.3824200000000  0.5255310000000  0.5471490000000 1.0
C      1  0.5259300000000  0.6144010000000  0.5529160000000 1.0
C      1  0.6170340000000  0.4742880000000  0.4512740000000 1.0
C      1  0.4741490000000  0.3859400000000  0.4472780000000 1.0
C      1  0.3826560000000  0.5226320000000  0.4502650000000 1.0
C      1  0.5264900000000  0.6129930000000  0.4437870000000 1.0
C      1  0.5993810000000  0.5583420000000  0.4768490000000 1.0
C      1  0.5574410000000  0.4015790000000  0.4743550000000 1.0
C      1  0.4008410000000  0.4395200000000  0.4741980000000 1.0
C      1  0.4435850000000  0.5989370000000  0.4770270000000 1.0
C      1  0.5991920000000  0.5602870000000  0.5252320000000 1.0
C      1  0.5565140000000  0.4009540000000  0.5226900000000 1.0
C      1  0.4007970000000  0.4414440000000  0.5225940000000 1.0
C      1  0.4427900000000  0.5982030000000  0.5254990000000 1.0
C      1  0.3777470000000  0.4001240000000  0.4731340000000 1.0
C      1  0.4055460000000  0.6240790000000  0.4743120000000 1.0
C      1  0.6230010000000  0.5972470000000  0.4728590000000 1.0
C      1  0.5954290000000  0.3763280000000  0.4721020000000 1.0
C      1  0.3776930000000  0.4022370000000  0.5266460000000 1.0
C      1  0.4047470000000  0.6233640000000  0.5277990000000 1.0
C      1  0.6227790000000  0.5993860000000  0.5263690000000 1.0
C      1  0.5944770000000  0.3757080000000  0.5256340000000 1.0
C      1  0.5474600000000  0.5984580000000  0.4555690000000 1.0
C      1  0.6013070000000  0.4529960000000  0.4607830000000 1.0
C      1  0.4530630000000  0.4011050000000  0.4580270000000 1.0
C      1  0.3999030000000  0.5444660000000  0.4545740000000 1.0
C      1  0.5470800000000  0.5996700000000  0.5417000000000 1.0
C      1  0.6000130000000  0.4554470000000  0.5450160000000 1.0
C      1  0.4528300000000  0.4019490000000  0.5443570000000 1.0
C      1  0.3984170000000  0.5469570000000  0.5384150000000 1.0
C      1  0.5123850000000  0.4757180000000  0.6067910000000 1.0
C      1  0.4818230000000  0.4887970000000  0.6045550000000 1.0
C      1  0.4917160000000  0.5178020000000  0.6074230000000 1.0
C      1  0.5203760000000  0.5102300000000  0.6082420000000 1.0
C      1  0.5092270000000  0.4795560000000  0.3911460000000 1.0
C      1  0.4776770000000  0.4935890000000  0.3917280000000 1.0
C      1  0.4879770000000  0.5219290000000  0.3940040000000 1.0
C      1  0.5162890000000  0.5145520000000  0.3955630000000 1.0
C      1  0.4584880000000  0.5819130000000  0.5420120000000 1.0
C      1  0.5833730000000  0.5439190000000  0.5415720000000 1.0
C      1  0.5420360000000  0.4161050000000  0.5412360000000 1.0
C      1  0.4160720000000  0.4583400000000  0.5389560000000 1.0
C      1  0.4582250000000  0.5840470000000  0.4583710000000 1.0
C      1  0.5839500000000  0.5417390000000  0.4603460000000 1.0
C      1  0.5417540000000  0.4180520000000  0.4580610000000 1.0
C      1  0.4165040000000  0.4562100000000  0.4580260000000 1.0
C      1  0.4731590000000  0.4973020000000  0.5576460000000 1.0
C      1  0.4931020000000  0.5204870000000  0.5600510000000 1.0
C      1  0.5218830000000  0.5071780000000  0.5605560000000 1.0
C      1  0.5176260000000  0.4768980000000  0.5599380000000 1.0
C      1  0.4778820000000  0.4932990000000  0.4393690000000 1.0
C      1  0.4820190000000  0.5236520000000  0.4404720000000 1.0
C      1  0.5264960000000  0.5033290000000  0.4415370000000 1.0
C      1  0.5066590000000  0.4800530000000  0.4389830000000 1.0
C      1  0.4842540000000  0.5341660000000  0.5852950000000 1.0
C      1  0.5351660000000  0.5176620000000  0.5854140000000 1.0
C      1  0.5233840000000  0.4634350000000  0.5844770000000 1.0
C      1  0.4664140000000  0.4824730000000  0.5814020000000 1.0
C      1  0.4769530000000  0.5366850000000  0.4155300000000 1.0
C      1  0.5325780000000  0.5190410000000  0.4181400000000 1.0
C      1  0.5157590000000  0.4657730000000  0.4142430000000 1.0
C      1  0.4638830000000  0.4839190000000  0.4144930000000 1.0
C      1  0.3939580000000  0.4982280000000  0.4584090000000 1.0
C      1  0.5013670000000  0.6020100000000  0.4496930000000 1.0
C      1  0.6057990000000  0.4993650000000  0.4570210000000 1.0
C      1  0.4992440000000  0.3970780000000  0.4530400000000 1.0
C      1  0.3937360000000  0.5005290000000  0.5412190000000 1.0
C      1  0.5009210000000  0.6029760000000  0.5473480000000 1.0
C      1  0.6056780000000  0.5017880000000  0.5425330000000 1.0
C      1  0.4988800000000  0.3985200000000  0.5506710000000 1.0
C      1  0.6279260000000  0.5528530000000  0.4866780000000 1.0
C      1  0.5501650000000  0.3731290000000  0.4832920000000 1.0
C      1  0.3721370000000  0.4453730000000  0.4834200000000 1.0
C      1  0.4504420000000  0.6270610000000  0.4871150000000 1.0
C      1  0.6278470000000  0.5540640000000  0.5161080000000 1.0
C      1  0.5496120000000  0.3728120000000  0.5127120000000 1.0
C      1  0.3721450000000  0.4465670000000  0.5128560000000 1.0
C      1  0.4499860000000  0.6266700000000  0.5165380000000 1.0
C      1  0.5723240000000  0.3580890000000  0.5250120000000 1.0
C      1  0.3588670000000  0.4233560000000  0.5258360000000 1.0
C      1  0.4268500000000  0.6410240000000  0.5284470000000 1.0
C      1  0.6413480000000  0.5780560000000  0.5272820000000 1.0
C      1  0.5732910000000  0.3587220000000  0.4714520000000 1.0
C      1  0.3589060000000  0.4212150000000  0.4722840000000 1.0
C      1  0.4276480000000  0.6417690000000  0.4749320000000 1.0
C      1  0.6415470000000  0.5758850000000  0.4737350000000 1.0
C      1  0.5976260000000  0.5888200000000  0.5146260000000 1.0
C      1  0.5856910000000  0.4014860000000  0.5137300000000 1.0
C      1  0.4027840000000  0.4121710000000  0.5142110000000 1.0
C      1  0.4139990000000  0.5979390000000  0.5155380000000 1.0
C      1  0.5977420000000  0.5876440000000  0.4852100000000 1.0
C      1  0.5862330000000  0.4017890000000  0.4843130000000 1.0
C      1  0.4028030000000  0.4110060000000  0.4847930000000 1.0
C      1  0.4144610000000  0.5982890000000  0.4861130000000 1.0
C      1  0.5545960000000  0.5376630000000  0.5829580000000 1.0
C      1  0.5419890000000  0.4425630000000  0.5839450000000 1.0
C      1  0.4471450000000  0.4622520000000  0.5795200000000 1.0
C      1  0.4641550000000  0.5535740000000  0.5834960000000 1.0
C      1  0.5523290000000  0.5387970000000  0.4201610000000 1.0
C      1  0.5360180000000  0.4465440000000  0.4168710000000 1.0
C      1  0.4448530000000  0.4635100000000  0.4165290000000 1.0
C      1  0.4589400000000  0.5580290000000  0.4152950000000 1.0
C      1  0.4863410000000  0.5810270000000  0.4611980000000 1.0
C      1  0.5831820000000  0.5138580000000  0.4656290000000 1.0
C      1  0.5137910000000  0.4191840000000  0.4628240000000 1.0
C      1  0.4174860000000  0.4838140000000  0.4645020000000 1.0
C      1  0.4864770000000  0.5809410000000  0.5372620000000 1.0
C      1  0.5823740000000  0.5161910000000  0.5356540000000 1.0
C      1  0.5139100000000  0.4192820000000  0.5387720000000 1.0
C      1  0.4166630000000  0.4861490000000  0.5332550000000 1.0
C      1  0.5002450000000  0.5004520000000  0.4852010000000 1.0
C      1  0.4998710000000  0.4995710000000  0.5144280000000 1.0
END
