TITL C-3623283-6828-1833 -3.33548993987161e-07 125000 -583.228354141795 0 0 98 (C1) n - 1
REM
REM in /home/nfs/bkarasulu/CARBON/AIRSS/Generating-Clusters/LCBOP/Higher-Symm/SD-CG/FIRE-CG
REM
REM
REM
REM
REM
REM ./C.cell (b20cbc046b6831c77cfcea5457e17084)
REM AIRSS Version 0.9.1 bugfix July 2018 build 013d7b7c2542+ Fri, 06 Jul 2018 19:26:36 +0100
REM compiler GCC version 9.2.1 20190827 (Red Hat 9.2.1-1)
REM options -cpp -mtune=generic -march=x86-64 -g -O0 -fpre-include=/usr/include/finclude/math-vector-fortran.h
REM seed 1315333541 2139677678 -1064579543 1127058831 -350902997 829416269 938670711 2061060285 2058305753 -67240599 -1698968121 -1379545266 -114477129 -1053867506 -1224115819 153692467 -1951379931 -826663233 -1078264868 -98017125 1832659951 -315305705 682945705 -889683969 2083198095 -1425462440 851533941 -1202021193 -422839959 1101846411 -1180863534 -1411842062 736786436
REM
CELL 1.54180   50.00000   50.00000   50.00000   90.00000   90.00000   90.00000
LATT -1
SFAC C  
C      1  0.5409890000000  0.4747460000000  0.5667490000000 1.0
C      1  0.4888210000000  0.4527980000000  0.5669470000000 1.0
C      1  0.4520240000000  0.4973910000000  0.5653960000000 1.0
C      1  0.4783740000000  0.5482300000000  0.5678350000000 1.0
C      1  0.5356520000000  0.5313140000000  0.5599510000000 1.0
C      1  0.5365240000000  0.4767010000000  0.4431070000000 1.0
C      1  0.4842080000000  0.4496600000000  0.4312800000000 1.0
C      1  0.4506270000000  0.4970730000000  0.4322030000000 1.0
C      1  0.4817340000000  0.5465720000000  0.4316100000000 1.0
C      1  0.5356090000000  0.5327200000000  0.4346000000000 1.0
C      1  0.5598280000000  0.4947900000000  0.5102530000000 1.0
C      1  0.5200120000000  0.4553050000000  0.5115780000000 1.0
C      1  0.4643820000000  0.4694120000000  0.5141940000000 1.0
C      1  0.4593620000000  0.5259070000000  0.5128440000000 1.0
C      1  0.5096800000000  0.5489400000000  0.5189180000000 1.0
C      1  0.5568990000000  0.5123000000000  0.4868410000000 1.0
C      1  0.5143230000000  0.4533020000000  0.4812280000000 1.0
C      1  0.4611740000000  0.4680200000000  0.4832440000000 1.0
C      1  0.4602760000000  0.5261110000000  0.4816210000000 1.0
C      1  0.5135440000000  0.5471650000000  0.4881370000000 1.0
C      1  0.5593820000000  0.5475610000000  0.5500150000000 1.0
C      1  0.5615210000000  0.4605860000000  0.5522540000000 1.0
C      1  0.4859090000000  0.4362250000000  0.5429710000000 1.0
C      1  0.4289390000000  0.4956140000000  0.5482050000000 1.0
C      1  0.4708090000000  0.5631240000000  0.5436990000000 1.0
C      1  0.5540850000000  0.5492070000000  0.4493750000000 1.0
C      1  0.5620710000000  0.4633390000000  0.4533930000000 1.0
C      1  0.4792710000000  0.4328220000000  0.4550210000000 1.0
C      1  0.4260310000000  0.4958310000000  0.4473240000000 1.0
C      1  0.4777390000000  0.5621840000000  0.4559100000000 1.0
C      1  0.4853200000000  0.5424570000000  0.4760400000000 1.0
C      1  0.5305080000000  0.5227170000000  0.4820230000000 1.0
C      1  0.5204380000000  0.4788090000000  0.4676780000000 1.0
C      1  0.4849520000000  0.4520490000000  0.4755430000000 1.0
C      1  0.4621110000000  0.4967980000000  0.4732160000000 1.0
C      1  0.4801730000000  0.5449600000000  0.5234080000000 1.0
C      1  0.5218310000000  0.5265690000000  0.5346820000000 1.0
C      1  0.5360280000000  0.4810910000000  0.5189020000000 1.0
C      1  0.4908990000000  0.4560220000000  0.5223080000000 1.0
C      1  0.4708610000000  0.4985780000000  0.5168840000000 1.0
C      1  0.5389500000000  0.5032870000000  0.4271650000000 1.0
C      1  0.5117580000000  0.4589070000000  0.4227510000000 1.0
C      1  0.4656860000000  0.4726160000000  0.4213090000000 1.0
C      1  0.4643740000000  0.5227830000000  0.4219240000000 1.0
C      1  0.5098580000000  0.5417460000000  0.4216330000000 1.0
C      1  0.5406090000000  0.5043530000000  0.5753110000000 1.0
C      1  0.5158820000000  0.4617640000000  0.5776850000000 1.0
C      1  0.4682810000000  0.4738170000000  0.5762880000000 1.0
C      1  0.4629240000000  0.5232670000000  0.5771460000000 1.0
C      1  0.5065210000000  0.5439510000000  0.5783530000000 1.0
C      1  0.4121500000000  0.4951220000000  0.4710180000000 1.0
C      1  0.4674830000000  0.5841640000000  0.4725490000000 1.0
C      1  0.5664020000000  0.5591370000000  0.4719490000000 1.0
C      1  0.5744760000000  0.4544510000000  0.4762050000000 1.0
C      1  0.4743510000000  0.4091780000000  0.4719900000000 1.0
C      1  0.4142490000000  0.4942330000000  0.5250310000000 1.0
C      1  0.4624660000000  0.5857070000000  0.5268390000000 1.0
C      1  0.5693500000000  0.5562340000000  0.5258750000000 1.0
C      1  0.5744470000000  0.4510640000000  0.5299240000000 1.0
C      1  0.4785460000000  0.4127040000000  0.5265780000000 1.0
C      1  0.4420680000000  0.4548290000000  0.5276900000000 1.0
C      1  0.4331370000000  0.5365080000000  0.5227830000000 1.0
C      1  0.5183650000000  0.5759830000000  0.5294050000000 1.0
C      1  0.5856250000000  0.4968550000000  0.5223740000000 1.0
C      1  0.5323580000000  0.4297420000000  0.5220550000000 1.0
C      1  0.4364000000000  0.4527320000000  0.4752350000000 1.0
C      1  0.4359920000000  0.5401270000000  0.4702710000000 1.0
C      1  0.5222780000000  0.5739690000000  0.4770860000000 1.0
C      1  0.5812900000000  0.5145190000000  0.4720690000000 1.0
C      1  0.5277820000000  0.4288560000000  0.4695630000000 1.0
C      1  0.5399070000000  0.4072390000000  0.5089230000000 1.0
C      1  0.4224070000000  0.4391200000000  0.5174910000000 1.0
C      1  0.4135730000000  0.5501430000000  0.5097940000000 1.0
C      1  0.5250320000000  0.5987380000000  0.5163160000000 1.0
C      1  0.6082950000000  0.5037490000000  0.5088940000000 1.0
C      1  0.5379660000000  0.4069550000000  0.4818720000000 1.0
C      1  0.4194330000000  0.4381000000000  0.4905450000000 1.0
C      1  0.4150780000000  0.5520330000000  0.4827760000000 1.0
C      1  0.5267310000000  0.5977750000000  0.4892740000000 1.0
C      1  0.6061480000000  0.5116760000000  0.4829040000000 1.0
C      1  0.5246680000000  0.5004620000000  0.4014600000000 1.0
C      1  0.5091440000000  0.4760560000000  0.3999940000000 1.0
C      1  0.4807650000000  0.4839540000000  0.3978930000000 1.0
C      1  0.4794190000000  0.5129670000000  0.3978440000000 1.0
C      1  0.5066020000000  0.5234610000000  0.3984340000000 1.0
C      1  0.5240850000000  0.5041290000000  0.5998820000000 1.0
C      1  0.5092570000000  0.4788030000000  0.6012460000000 1.0
C      1  0.4808770000000  0.4852010000000  0.6010200000000 1.0
C      1  0.4781400000000  0.5141130000000  0.6012850000000 1.0
C      1  0.5051420000000  0.5260910000000  0.6007570000000 1.0
C      1  0.4088490000000  0.4943700000000  0.4981870000000 1.0
C      1  0.5785150000000  0.4492900000000  0.5027780000000 1.0
C      1  0.4750980000000  0.4056010000000  0.4997970000000 1.0
C      1  0.4628710000000  0.5901770000000  0.4993020000000 1.0
C      1  0.5711740000000  0.5607500000000  0.4989660000000 1.0
C      1  0.5112230000000  0.5013750000000  0.4810490000000 1.0
C      1  0.5168180000000  0.5007780000000  0.5264730000000 1.0
C      1  0.4974780000000  0.4997330000000  0.5062410000000 1.0
END
