TITL C-3623282-6910-958 -1.71849341507804e-07 125000 -407.388465189667 0 0 68 (C2) n - 1
REM
REM in /home/nfs/bkarasulu/CARBON/AIRSS/Generating-Clusters/LCBOP/Higher-Symm/SD-CG/FIRE-CG
REM
REM
REM
REM
REM
REM ./C.cell (b20cbc046b6831c77cfcea5457e17084)
REM AIRSS Version 0.9.1 bugfix July 2018 build 013d7b7c2542+ Fri, 06 Jul 2018 19:26:36 +0100
REM compiler GCC version 9.2.1 20190827 (Red Hat 9.2.1-1)
REM options -cpp -mtune=generic -march=x86-64 -g -O0 -fpre-include=/usr/include/finclude/math-vector-fortran.h
REM seed 272419131 564218676 1355115915 1091866939 -1749431150 894044300 2043805613 -54245494 -2038092918 419640089 -1569039735 -104276366 1111069915 -785177305 -286055635 704669013 -2145724601 950960962 -812736428 2144515925 1137094237 513086194 6820400 2073710188 -69016100 -648184808 2050354786 -530878165 -103780298 41126352 -1025389665 2021993279 1152709877
REM
CELL 1.54180   50.00000   50.00000   50.00000   90.00000   90.00000   90.00000
LATT -1
SFAC C  
C      1  0.4904230000000  0.5401050000000  0.5330080000000 1.0
C      1  0.5095700000000  0.5400560000000  0.4669310000000 1.0
C      1  0.4871110000000  0.4102400000000  0.4963280000000 1.0
C      1  0.5129030000000  0.4102470000000  0.5038100000000 1.0
C      1  0.5016240000000  0.4633420000000  0.5144030000000 1.0
C      1  0.4983820000000  0.4633200000000  0.4856540000000 1.0
C      1  0.5322460000000  0.4912360000000  0.4316630000000 1.0
C      1  0.4677560000000  0.4913360000000  0.5683510000000 1.0
C      1  0.4360090000000  0.4859250000000  0.4352240000000 1.0
C      1  0.5639930000000  0.4860350000000  0.5647970000000 1.0
C      1  0.4823390000000  0.4595560000000  0.5352320000000 1.0
C      1  0.5176670000000  0.4595050000000  0.4648300000000 1.0
C      1  0.4270620000000  0.4623550000000  0.4450770000000 1.0
C      1  0.5729440000000  0.4624510000000  0.5549810000000 1.0
C      1  0.4162270000000  0.4752020000000  0.4893790000000 1.0
C      1  0.5837770000000  0.4752320000000  0.5106590000000 1.0
C      1  0.5235980000000  0.4779460000000  0.5232200000000 1.0
C      1  0.4764060000000  0.4779060000000  0.4768140000000 1.0
C      1  0.5530110000000  0.4888770000000  0.4512000000000 1.0
C      1  0.4469900000000  0.4889440000000  0.5488170000000 1.0
C      1  0.5047780000000  0.4642140000000  0.5844300000000 1.0
C      1  0.4952280000000  0.4640840000000  0.4156250000000 1.0
C      1  0.4625280000000  0.4181750000000  0.4890220000000 1.0
C      1  0.5374850000000  0.4181980000000  0.5111040000000 1.0
C      1  0.5739300000000  0.4547460000000  0.5276420000000 1.0
C      1  0.4260770000000  0.4546920000000  0.4724280000000 1.0
C      1  0.5632610000000  0.5154400000000  0.4913950000000 1.0
C      1  0.4367360000000  0.5154430000000  0.5085810000000 1.0
C      1  0.5495990000000  0.5050180000000  0.5520000000000 1.0
C      1  0.4504010000000  0.5049300000000  0.4479920000000 1.0
C      1  0.4354100000000  0.5108550000000  0.5362500000000 1.0
C      1  0.5645880000000  0.5108100000000  0.4637330000000 1.0
C      1  0.5397860000000  0.5748370000000  0.4557520000000 1.0
C      1  0.4602020000000  0.5748990000000  0.5441330000000 1.0
C      1  0.4412260000000  0.4327880000000  0.4817660000000 1.0
C      1  0.5587850000000  0.4328260000000  0.5183370000000 1.0
C      1  0.3942100000000  0.5182690000000  0.4848060000000 1.0
C      1  0.6057870000000  0.5183090000000  0.5151660000000 1.0
C      1  0.5144210000000  0.5446570000000  0.5488950000000 1.0
C      1  0.4855720000000  0.5445800000000  0.4510360000000 1.0
C      1  0.5848410000000  0.5032650000000  0.5060790000000 1.0
C      1  0.4151590000000  0.5032420000000  0.4939160000000 1.0
C      1  0.5353300000000  0.5027950000000  0.5277360000000 1.0
C      1  0.4646700000000  0.5027470000000  0.4722600000000 1.0
C      1  0.5043820000000  0.4792140000000  0.6072060000000 1.0
C      1  0.4956220000000  0.4790490000000  0.3928260000000 1.0
C      1  0.4921380000000  0.5448850000000  0.4240410000000 1.0
C      1  0.5078550000000  0.5450020000000  0.5758900000000 1.0
C      1  0.5457400000000  0.4659870000000  0.4676470000000 1.0
C      1  0.4542660000000  0.4660290000000  0.5324050000000 1.0
C      1  0.5290540000000  0.5923520000000  0.4733960000000 1.0
C      1  0.4709310000000  0.5923880000000  0.5264620000000 1.0
C      1  0.5122190000000  0.4698090000000  0.4374280000000 1.0
C      1  0.4877860000000  0.4699030000000  0.5626180000000 1.0
C      1  0.5257380000000  0.5117390000000  0.4127290000000 1.0
C      1  0.4742600000000  0.5118690000000  0.5872530000000 1.0
C      1  0.5123820000000  0.5287590000000  0.4923780000000 1.0
C      1  0.4876130000000  0.5287690000000  0.5075780000000 1.0
C      1  0.4692790000000  0.5492480000000  0.5517560000000 1.0
C      1  0.5307130000000  0.5491730000000  0.4481680000000 1.0
C      1  0.4896360000000  0.5992930000000  0.5084510000000 1.0
C      1  0.5103480000000  0.5992820000000  0.4913970000000 1.0
C      1  0.4625340000000  0.5188910000000  0.4958780000000 1.0
C      1  0.5374630000000  0.5189040000000  0.5040930000000 1.0
C      1  0.5207360000000  0.5383190000000  0.4219280000000 1.0
C      1  0.4792580000000  0.5384360000000  0.5780130000000 1.0
C      1  0.5110510000000  0.5014490000000  0.3904280000000 1.0
C      1  0.4889490000000  0.5016160000000  0.6095690000000 1.0
END
