TITL C-3623289-7120-1929 6400.29552745814 125000 -718.770922001762 0 0 123 (C1) n - 1
REM
REM in /home/nfs/bkarasulu/CARBON/AIRSS/Generating-Clusters/LCBOP/Higher-Symm/SD-CG/FIRE-CG
REM
REM
REM
REM
REM
REM ./C.cell (b20cbc046b6831c77cfcea5457e17084)
REM AIRSS Version 0.9.1 bugfix July 2018 build 013d7b7c2542+ Fri, 06 Jul 2018 19:26:36 +0100
REM compiler GCC version 9.2.1 20190827 (Red Hat 9.2.1-1)
REM options -cpp -mtune=generic -march=x86-64 -g -O0 -fpre-include=/usr/include/finclude/math-vector-fortran.h
REM seed -380483914 -317522591 435785960 1522887556 -64946993 1228341859 -1928618033 -1174373833 -577432786 -1499365180 -886091315 1453543776 -1372156876 11332724 -892201682 -1258573877 -1908839954 -507461993 -3582490 1925368635 615865652 375470648 -1684880398 1466398055 1391836972 990279146 -1020714083 -1330679477 814848848 -700579229 -239491805 1234221168 90379972
REM
CELL 1.54180   50.00000   50.00000   50.00000   90.00000   90.00000   90.00000
LATT -1
SFAC C  
C      1  0.5611080000000  0.4280480000000  0.4612990000000 1.0
C      1  0.4422240000000  0.4320890000000  0.5433400000000 1.0
C      1  0.4179900000000  0.4311400000000  0.4702880000000 1.0
C      1  0.5575320000000  0.4348780000000  0.5441690000000 1.0
C      1  0.5139640000000  0.5105750000000  0.5880610000000 1.0
C      1  0.4875690000000  0.5081930000000  0.4138210000000 1.0
C      1  0.4843390000000  0.5089130000000  0.5879690000000 1.0
C      1  0.5171450000000  0.5074980000000  0.4134420000000 1.0
C      1  0.5107940000000  0.5368600000000  0.5246870000000 1.0
C      1  0.4874600000000  0.5351830000000  0.4687180000000 1.0
C      1  0.4849100000000  0.5345260000000  0.5351800000000 1.0
C      1  0.5158450000000  0.5348410000000  0.4635260000000 1.0
C      1  0.5769280000000  0.4989910000000  0.4397350000000 1.0
C      1  0.4261130000000  0.4990490000000  0.5607890000000 1.0
C      1  0.4281520000000  0.5025370000000  0.4405900000000 1.0
C      1  0.5714160000000  0.5060490000000  0.5598820000000 1.0
C      1  0.5504370000000  0.5100480000000  0.5135920000000 1.0
C      1  0.4500590000000  0.5073550000000  0.4859310000000 1.0
C      1  0.4492230000000  0.5070840000000  0.5154470000000 1.0
C      1  0.5523030000000  0.5084630000000  0.4842930000000 1.0
C      1  0.5581490000000  0.4836220000000  0.4264290000000 1.0
C      1  0.4439620000000  0.4837910000000  0.5753810000000 1.0
C      1  0.4454650000000  0.4853220000000  0.4265770000000 1.0
C      1  0.5561250000000  0.4891370000000  0.5753210000000 1.0
C      1  0.5819040000000  0.5979450000000  0.5086560000000 1.0
C      1  0.4148350000000  0.5909760000000  0.4861230000000 1.0
C      1  0.4116380000000  0.5899390000000  0.5147100000000 1.0
C      1  0.5855370000000  0.5958870000000  0.4798120000000 1.0
C      1  0.5155760000000  0.4924790000000  0.5456060000000 1.0
C      1  0.4850650000000  0.4867060000000  0.4561150000000 1.0
C      1  0.4854630000000  0.4848930000000  0.5449250000000 1.0
C      1  0.5165240000000  0.4857740000000  0.4561990000000 1.0
C      1  0.5653660000000  0.5504080000000  0.4830270000000 1.0
C      1  0.4412490000000  0.5503340000000  0.5169880000000 1.0
C      1  0.4423120000000  0.5509330000000  0.4900120000000 1.0
C      1  0.5619120000000  0.5519980000000  0.5099770000000 1.0
C      1  0.4697150000000  0.4400260000000  0.5596690000000 1.0
C      1  0.5357160000000  0.4397970000000  0.4454620000000 1.0
C      1  0.5307540000000  0.4396080000000  0.5589930000000 1.0
C      1  0.4714770000000  0.4394430000000  0.4454380000000 1.0
C      1  0.4742450000000  0.5592200000000  0.5445540000000 1.0
C      1  0.5251760000000  0.5624190000000  0.4669360000000 1.0
C      1  0.5176440000000  0.5633950000000  0.5144280000000 1.0
C      1  0.4820180000000  0.5632120000000  0.4772560000000 1.0
C      1  0.4844670000000  0.4545140000000  0.5821400000000 1.0
C      1  0.5183390000000  0.4521030000000  0.4231580000000 1.0
C      1  0.5164050000000  0.4567710000000  0.5797130000000 1.0
C      1  0.4875380000000  0.4528940000000  0.4230780000000 1.0
C      1  0.5677030000000  0.4606860000000  0.5326200000000 1.0
C      1  0.4220230000000  0.4591870000000  0.4670930000000 1.0
C      1  0.4305520000000  0.4558830000000  0.5300210000000 1.0
C      1  0.5751140000000  0.4545980000000  0.4682280000000 1.0
C      1  0.5080040000000  0.3803310000000  0.5262260000000 1.0
C      1  0.4821400000000  0.3940040000000  0.4562600000000 1.0
C      1  0.5159300000000  0.3621930000000  0.5431710000000 1.0
C      1  0.5081960000000  0.3960130000000  0.4635670000000 1.0
C      1  0.4744380000000  0.4450560000000  0.5123500000000 1.0
C      1  0.5144470000000  0.4418960000000  0.4871090000000 1.0
C      1  0.5258800000000  0.4499000000000  0.5130550000000 1.0
C      1  0.4880620000000  0.4507170000000  0.4879410000000 1.0
C      1  0.4554580000000  0.5711860000000  0.4757520000000 1.0
C      1  0.5440520000000  0.5708620000000  0.5210440000000 1.0
C      1  0.5517630000000  0.5683370000000  0.4666260000000 1.0
C      1  0.4500340000000  0.5694500000000  0.5355760000000 1.0
C      1  0.4749160000000  0.4146710000000  0.5124040000000 1.0
C      1  0.5193210000000  0.4114080000000  0.4867460000000 1.0
C      1  0.5002800000000  0.4013990000000  0.5097700000000 1.0
C      1  0.4622620000000  0.4141730000000  0.4576820000000 1.0
C      1  0.5715600000000  0.5286540000000  0.5225120000000 1.0
C      1  0.4297300000000  0.5280550000000  0.4785190000000 1.0
C      1  0.4285380000000  0.5260970000000  0.5248720000000 1.0
C      1  0.5754260000000  0.5249850000000  0.4756830000000 1.0
C      1  0.4710400000000  0.5331120000000  0.4182310000000 1.0
C      1  0.5287720000000  0.5362330000000  0.5829420000000 1.0
C      1  0.5343490000000  0.5315030000000  0.4158170000000 1.0
C      1  0.4663760000000  0.5322000000000  0.5864190000000 1.0
C      1  0.4737950000000  0.4834580000000  0.5755270000000 1.0
C      1  0.5280300000000  0.4823430000000  0.4263350000000 1.0
C      1  0.5266400000000  0.4865410000000  0.5743700000000 1.0
C      1  0.4758610000000  0.4831660000000  0.4258940000000 1.0
C      1  0.4096630000000  0.4844040000000  0.4670000000000 1.0
C      1  0.5844840000000  0.4832140000000  0.5340740000000 1.0
C      1  0.5915840000000  0.4783250000000  0.4664790000000 1.0
C      1  0.4147090000000  0.4798560000000  0.5331140000000 1.0
C      1  0.4194940000000  0.5570050000000  0.5657970000000 1.0
C      1  0.5805250000000  0.5599230000000  0.4335880000000 1.0
C      1  0.5669910000000  0.5664170000000  0.5597480000000 1.0
C      1  0.4296690000000  0.5611040000000  0.4394290000000 1.0
C      1  0.5289060000000  0.5102470000000  0.4682220000000 1.0
C      1  0.4726690000000  0.5083730000000  0.5311440000000 1.0
C      1  0.4741390000000  0.5103150000000  0.4707850000000 1.0
C      1  0.5258670000000  0.5122570000000  0.5272720000000 1.0
C      1  0.5511530000000  0.4123980000000  0.4889850000000 1.0
C      1  0.4475860000000  0.4104400000000  0.5135740000000 1.0
C      1  0.4399430000000  0.4141480000000  0.4783630000000 1.0
C      1  0.5594650000000  0.4155130000000  0.5188420000000 1.0
C      1  0.4854790000000  0.4543320000000  0.5370580000000 1.0
C      1  0.5278720000000  0.4603190000000  0.4680700000000 1.0
C      1  0.5130900000000  0.4440890000000  0.5365540000000 1.0
C      1  0.4722930000000  0.4616850000000  0.4666850000000 1.0
C      1  0.4015010000000  0.5264620000000  0.5148680000000 1.0
C      1  0.6016630000000  0.5234340000000  0.4877430000000 1.0
C      1  0.5992810000000  0.5251290000000  0.5153070000000 1.0
C      1  0.4022430000000  0.5272970000000  0.4872000000000 1.0
C      1  0.4480520000000  0.4579630000000  0.5074220000000 1.0
C      1  0.5530970000000  0.4662350000000  0.4829290000000 1.0
C      1  0.5501800000000  0.4630760000000  0.5102700000000 1.0
C      1  0.4465750000000  0.4655410000000  0.4803890000000 1.0
C      1  0.4347190000000  0.5315570000000  0.5723650000000 1.0
C      1  0.5665730000000  0.5318980000000  0.4285710000000 1.0
C      1  0.5567440000000  0.5384150000000  0.5684620000000 1.0
C      1  0.4418940000000  0.5344360000000  0.4313930000000 1.0
C      1  0.5632700000000  0.5861750000000  0.5365450000000 1.0
C      1  0.4319650000000  0.5819750000000  0.4615550000000 1.0
C      1  0.4243620000000  0.5785240000000  0.5452760000000 1.0
C      1  0.5745950000000  0.5815460000000  0.4543170000000 1.0
C      1  0.4825230000000  0.5557300000000  0.5909030000000 1.0
C      1  0.5171640000000  0.5545540000000  0.4130000000000 1.0
C      1  0.5099270000000  0.5577030000000  0.5880250000000 1.0
C      1  0.4895850000000  0.5552700000000  0.4144480000000 1.0
C      1  0.4019190000000  0.4853850000000  0.5016950000000 1.0
C      1  0.5983440000000  0.4824780000000  0.5011970000000 1.0
C      1  0.5073120000000  0.5716060000000  0.4883720000000 1.0
END
