TITL C-3623289-7120-2007 -1.27049085011125e-06 125000 -588.687366630102 0 0 91 (C1) n - 1
REM
REM in /home/nfs/bkarasulu/CARBON/AIRSS/Generating-Clusters/LCBOP/Higher-Symm/SD-CG/FIRE-CG
REM
REM
REM
REM
REM
REM ./C.cell (b20cbc046b6831c77cfcea5457e17084)
REM AIRSS Version 0.9.1 bugfix July 2018 build 013d7b7c2542+ Fri, 06 Jul 2018 19:26:36 +0100
REM compiler GCC version 9.2.1 20190827 (Red Hat 9.2.1-1)
REM options -cpp -mtune=generic -march=x86-64 -g -O0 -fpre-include=/usr/include/finclude/math-vector-fortran.h
REM seed 1712779620 -521340591 1531998586 -796585312 2075257653 1237766391 1914927402 -1631215470 -1121795721 -1203449894 531318477 1392554728 -13375781 -1797532090 -490210545 -1203621271 860484925 -1065886572 -187422069 -914486312 -142823648 121393435 -314410540 2117818487 168230691 970301366 705773955 -1107719785 1618762330 -1404237708 576641074 -1953533573 804658372
REM
CELL 1.54180   50.00000   50.00000   50.00000   90.00000   90.00000   90.00000
LATT -1
SFAC C  
C      1  0.5818890000000  0.4773480000000  0.4875430000000 1.0
C      1  0.5822370000000  0.5032600000000  0.4734410000000 1.0
C      1  0.5817560000000  0.5248230000000  0.4936740000000 1.0
C      1  0.5803060000000  0.5117350000000  0.5200420000000 1.0
C      1  0.5807580000000  0.4825640000000  0.5163540000000 1.0
C      1  0.4183160000000  0.4766560000000  0.4881240000000 1.0
C      1  0.4186540000000  0.5025340000000  0.4741100000000 1.0
C      1  0.4194130000000  0.5238740000000  0.4942560000000 1.0
C      1  0.4195530000000  0.5109910000000  0.5206780000000 1.0
C      1  0.4186830000000  0.4817600000000  0.5170760000000 1.0
C      1  0.4454680000000  0.5313550000000  0.4446450000000 1.0
C      1  0.4446570000000  0.5627330000000  0.5115050000000 1.0
C      1  0.4423750000000  0.5056050000000  0.5645500000000 1.0
C      1  0.4437090000000  0.4389610000000  0.5242600000000 1.0
C      1  0.4455530000000  0.4582270000000  0.4517140000000 1.0
C      1  0.5561290000000  0.5322890000000  0.4431920000000 1.0
C      1  0.5588380000000  0.5659030000000  0.5112570000000 1.0
C      1  0.5551470000000  0.5053570000000  0.5623280000000 1.0
C      1  0.5561540000000  0.4396250000000  0.5237050000000 1.0
C      1  0.5550870000000  0.4584810000000  0.4510560000000 1.0
C      1  0.4760940000000  0.5169740000000  0.4868970000000 1.0
C      1  0.4828090000000  0.5274060000000  0.5124950000000 1.0
C      1  0.4723380000000  0.4873450000000  0.5344020000000 1.0
C      1  0.4744550000000  0.4747560000000  0.5097770000000 1.0
C      1  0.4746360000000  0.4887460000000  0.4856440000000 1.0
C      1  0.5289850000000  0.5174530000000  0.4832410000000 1.0
C      1  0.5264300000000  0.5314800000000  0.5076010000000 1.0
C      1  0.5183910000000  0.4921070000000  0.5309180000000 1.0
C      1  0.5246390000000  0.4754950000000  0.5094830000000 1.0
C      1  0.5272360000000  0.4887370000000  0.4843970000000 1.0
C      1  0.4852070000000  0.4269870000000  0.4655810000000 1.0
C      1  0.4854040000000  0.5080550000000  0.4201330000000 1.0
C      1  0.4831930000000  0.5831260000000  0.4791010000000 1.0
C      1  0.4840460000000  0.5395620000000  0.5709810000000 1.0
C      1  0.4840850000000  0.4410530000000  0.5601480000000 1.0
C      1  0.5153340000000  0.4269700000000  0.4652040000000 1.0
C      1  0.5153940000000  0.5084640000000  0.4189590000000 1.0
C      1  0.5188920000000  0.5849870000000  0.4783120000000 1.0
C      1  0.5150940000000  0.5393780000000  0.5701370000000 1.0
C      1  0.5158010000000  0.4412430000000  0.5598220000000 1.0
C      1  0.4311780000000  0.5061760000000  0.4486720000000 1.0
C      1  0.4314980000000  0.5493860000000  0.4891260000000 1.0
C      1  0.4316880000000  0.5234610000000  0.5433060000000 1.0
C      1  0.4301390000000  0.4630790000000  0.5358010000000 1.0
C      1  0.4308430000000  0.4536480000000  0.4767280000000 1.0
C      1  0.5698030000000  0.5067300000000  0.4478300000000 1.0
C      1  0.5708410000000  0.5510050000000  0.4883690000000 1.0
C      1  0.5673730000000  0.5237930000000  0.5424840000000 1.0
C      1  0.5687480000000  0.4640950000000  0.5347520000000 1.0
C      1  0.5695130000000  0.4541660000000  0.4762580000000 1.0
C      1  0.4406430000000  0.4742720000000  0.5616030000000 1.0
C      1  0.4419880000000  0.4330970000000  0.4948440000000 1.0
C      1  0.4427220000000  0.4825670000000  0.4354860000000 1.0
C      1  0.4422460000000  0.5547020000000  0.4621800000000 1.0
C      1  0.4438410000000  0.5502550000000  0.5389990000000 1.0
C      1  0.5574510000000  0.4751090000000  0.5596920000000 1.0
C      1  0.5582130000000  0.4336720000000  0.4944590000000 1.0
C      1  0.5579020000000  0.4829670000000  0.4349380000000 1.0
C      1  0.5592750000000  0.5556530000000  0.4612220000000 1.0
C      1  0.5569690000000  0.5515280000000  0.5389970000000 1.0
C      1  0.5279310000000  0.5127460000000  0.5715300000000 1.0
C      1  0.5282930000000  0.4354340000000  0.5332570000000 1.0
C      1  0.5271380000000  0.4514180000000  0.4537690000000 1.0
C      1  0.5279220000000  0.5283120000000  0.4365160000000 1.0
C      1  0.5325850000000  0.5780960000000  0.5038840000000 1.0
C      1  0.4699500000000  0.5135050000000  0.5729760000000 1.0
C      1  0.4717580000000  0.4350320000000  0.5336250000000 1.0
C      1  0.4734140000000  0.4516430000000  0.4547380000000 1.0
C      1  0.4733850000000  0.5270410000000  0.4391510000000 1.0
C      1  0.4710800000000  0.5740420000000  0.5045400000000 1.0
C      1  0.4866790000000  0.4748240000000  0.4640810000000 1.0
C      1  0.4875020000000  0.5289730000000  0.4635370000000 1.0
C      1  0.4884920000000  0.5556360000000  0.5163090000000 1.0
C      1  0.4845200000000  0.4934740000000  0.5593770000000 1.0
C      1  0.4862220000000  0.4490090000000  0.5130710000000 1.0
C      1  0.5142770000000  0.4748610000000  0.4633090000000 1.0
C      1  0.5150600000000  0.5293420000000  0.4617110000000 1.0
C      1  0.5159410000000  0.5576220000000  0.5133500000000 1.0
C      1  0.5120320000000  0.4928320000000  0.5587600000000 1.0
C      1  0.5137950000000  0.4495030000000  0.5130350000000 1.0
C      1  0.4648570000000  0.5572390000000  0.5581490000000 1.0
C      1  0.4622980000000  0.4567440000000  0.5736540000000 1.0
C      1  0.4638860000000  0.4169710000000  0.4830130000000 1.0
C      1  0.4645490000000  0.4881110000000  0.4165480000000 1.0
C      1  0.4627750000000  0.5757650000000  0.4597130000000 1.0
C      1  0.5345430000000  0.5574100000000  0.5576250000000 1.0
C      1  0.5370010000000  0.4576210000000  0.5726600000000 1.0
C      1  0.5366290000000  0.4172620000000  0.4826960000000 1.0
C      1  0.5361180000000  0.4883100000000  0.4159240000000 1.0
C      1  0.5386280000000  0.5765600000000  0.4586810000000 1.0
C      1  0.5074990000000  0.5157190000000  0.5217830000000 1.0
END
