TITL C-3623288-6813-1111 0.000814777597955851 125000 -344.676604490323 0 0 63 (C1) n - 1
REM
REM in /home/nfs/bkarasulu/CARBON/AIRSS/Generating-Clusters/LCBOP/Higher-Symm/SD-CG/FIRE-CG
REM
REM
REM
REM
REM
REM ./C.cell (b20cbc046b6831c77cfcea5457e17084)
REM AIRSS Version 0.9.1 bugfix July 2018 build 013d7b7c2542+ Fri, 06 Jul 2018 19:26:36 +0100
REM compiler GCC version 9.2.1 20190827 (Red Hat 9.2.1-1)
REM options -cpp -mtune=generic -march=x86-64 -g -O0 -fpre-include=/usr/include/finclude/math-vector-fortran.h
REM seed -1140568207 -553701820 1174975656 -2091495592 82499375 -439923974 -885990749 862379447 964656151 -1474309463 2045033690 1602202548 -922046020 -1192403824 -1735958862 1511495030 -198593011 -1371495952 -1629635064 -1416661911 -2136719354 55883767 -1366875920 -1644257142 1357725197 330824563 -1906799791 -751051001 1833161033 -1572689753 594186952 -659679830 -1418060177
REM
CELL 1.54180   50.00000   50.00000   50.00000   90.00000   90.00000   90.00000
LATT -1
SFAC C  
C      1  0.5293860000000  0.5024980000000  0.4474660000000 1.0
C      1  0.5552430000000  0.5010040000000  0.5187850000000 1.0
C      1  0.5090600000000  0.4982480000000  0.5462220000000 1.0
C      1  0.4645170000000  0.4989480000000  0.4886290000000 1.0
C      1  0.5031060000000  0.4964590000000  0.4567200000000 1.0
C      1  0.4669310000000  0.4993400000000  0.5152290000000 1.0
C      1  0.5331310000000  0.4974850000000  0.5581580000000 1.0
C      1  0.5416680000000  0.5011070000000  0.4940540000000 1.0
C      1  0.5396490000000  0.4528440000000  0.5281400000000 1.0
C      1  0.4635610000000  0.4516240000000  0.5424890000000 1.0
C      1  0.4515510000000  0.4493870000000  0.4689050000000 1.0
C      1  0.5241510000000  0.4500740000000  0.4548330000000 1.0
C      1  0.4520220000000  0.5481530000000  0.5290350000000 1.0
C      1  0.5240540000000  0.5477420000000  0.5433580000000 1.0
C      1  0.5405690000000  0.5501000000000  0.4693840000000 1.0
C      1  0.4662280000000  0.5474390000000  0.4556750000000 1.0
C      1  0.5181660000000  0.4213830000000  0.4916450000000 1.0
C      1  0.5034810000000  0.4236230000000  0.5208500000000 1.0
C      1  0.4756050000000  0.4224740000000  0.5080030000000 1.0
C      1  0.4873990000000  0.4208540000000  0.4798520000000 1.0
C      1  0.4755970000000  0.5774840000000  0.4909230000000 1.0
C      1  0.4869330000000  0.5785410000000  0.5217730000000 1.0
C      1  0.5165280000000  0.5778860000000  0.5076180000000 1.0
C      1  0.5039600000000  0.5776500000000  0.4794800000000 1.0
C      1  0.5537170000000  0.5469810000000  0.4959840000000 1.0
C      1  0.4967360000000  0.5449680000000  0.5555070000000 1.0
C      1  0.4416930000000  0.5438730000000  0.5021970000000 1.0
C      1  0.4926570000000  0.5454410000000  0.4436830000000 1.0
C      1  0.4407620000000  0.4544970000000  0.4953960000000 1.0
C      1  0.4893880000000  0.4565370000000  0.5558560000000 1.0
C      1  0.5532060000000  0.4542650000000  0.5012700000000 1.0
C      1  0.4967480000000  0.4527030000000  0.4436930000000 1.0
C      1  0.4224680000000  0.5232460000000  0.4987590000000 1.0
C      1  0.4994160000000  0.5258590000000  0.4224090000000 1.0
C      1  0.5790480000000  0.5298430000000  0.4967350000000 1.0
C      1  0.4887080000000  0.5263500000000  0.5766260000000 1.0
C      1  0.5804240000000  0.4757690000000  0.4898730000000 1.0
C      1  0.4889650000000  0.4726690000000  0.4232920000000 1.0
C      1  0.4219200000000  0.4755590000000  0.4982590000000 1.0
C      1  0.4869590000000  0.4762250000000  0.5777520000000 1.0
C      1  0.4861780000000  0.4996310000000  0.4159600000000 1.0
C      1  0.5713130000000  0.4801510000000  0.4627330000000 1.0
C      1  0.5052170000000  0.5005130000000  0.5912540000000 1.0
C      1  0.4194700000000  0.4984260000000  0.5202960000000 1.0
C      1  0.5277880000000  0.5188860000000  0.4244060000000 1.0
C      1  0.4194420000000  0.5003380000000  0.4767150000000 1.0
C      1  0.4656500000000  0.5029010000000  0.5732390000000 1.0
C      1  0.5917430000000  0.5038430000000  0.4960980000000 1.0
C      1  0.4576880000000  0.5572070000000  0.4814210000000 1.0
C      1  0.5140380000000  0.5585520000000  0.4606100000000 1.0
C      1  0.5352110000000  0.5579940000000  0.5178690000000 1.0
C      1  0.4767250000000  0.5585860000000  0.5389200000000 1.0
C      1  0.5354490000000  0.4411580000000  0.4804230000000 1.0
C      1  0.4770060000000  0.4392740000000  0.4606450000000 1.0
C      1  0.4564270000000  0.4417560000000  0.5166930000000 1.0
C      1  0.5126530000000  0.4445890000000  0.5391010000000 1.0
C      1  0.5491690000000  0.4974140000000  0.4660320000000 1.0
C      1  0.5563650000000  0.4998740000000  0.5453400000000 1.0
C      1  0.4851160000000  0.4999870000000  0.5345320000000 1.0
C      1  0.4780140000000  0.4976230000000  0.4658330000000 1.0
C      1  0.5022030000000  0.5253450000000  0.4993230000000 1.0
C      1  0.5033380000000  0.4758520000000  0.5000250000000 1.0
C      1  0.5141770000000  0.5009210000000  0.4983980000000 1.0
END
