TITL C-3623286-7563-99 183.215483512597 125000 -1095.76095745924 0 0 176 (C1) n - 1
REM
REM in /home/nfs/bkarasulu/CARBON/AIRSS/Generating-Clusters/LCBOP/Higher-Symm/SD-CG/FIRE-CG
REM
REM
REM
REM
REM
REM ./C.cell (b20cbc046b6831c77cfcea5457e17084)
REM AIRSS Version 0.9.1 bugfix July 2018 build 013d7b7c2542+ Fri, 06 Jul 2018 19:26:36 +0100
REM compiler GCC version 9.2.1 20190827 (Red Hat 9.2.1-1)
REM options -cpp -mtune=generic -march=x86-64 -g -O0 -fpre-include=/usr/include/finclude/math-vector-fortran.h
REM seed -1450373759 443277970 1616988989 266472117 1894960447 890406390 -1981846318 -1577008835 -1377006953 -1126386080 1153964350 956021795 1575939664 -305084203 1508530469 480450526 748165425 1942543151 -1390618467 1606078230 -755738216 -391943212 -151788346 70878721 865558617 1157623267 -849029943 1944292112 53214642 408124693 -1780298439 -1657151007 -1539128281
REM
CELL 1.54180   50.00000   50.00000   50.00000   90.00000   90.00000   90.00000
LATT -1
SFAC C  
C      1  0.5240050000000  0.4573450000000  0.5961280000000 1.0
C      1  0.4806880000000  0.5357920000000  0.4094540000000 1.0
C      1  0.5809870000000  0.5773960000000  0.4959010000000 1.0
C      1  0.4239910000000  0.4243550000000  0.5119680000000 1.0
C      1  0.5725110000000  0.5281250000000  0.5208570000000 1.0
C      1  0.4279670000000  0.4622840000000  0.4750400000000 1.0
C      1  0.4646230000000  0.5774800000000  0.5072850000000 1.0
C      1  0.5343130000000  0.4333210000000  0.4793820000000 1.0
C      1  0.4957690000000  0.6009360000000  0.5658900000000 1.0
C      1  0.4739680000000  0.4182680000000  0.4128780000000 1.0
C      1  0.5455550000000  0.5334260000000  0.5222860000000 1.0
C      1  0.4524270000000  0.4547350000000  0.4621230000000 1.0
C      1  0.5736030000000  0.4855310000000  0.4385450000000 1.0
C      1  0.4401680000000  0.5189030000000  0.5668850000000 1.0
C      1  0.5203720000000  0.6071220000000  0.4544580000000 1.0
C      1  0.4788130000000  0.3986810000000  0.5575420000000 1.0
C      1  0.5271330000000  0.5770660000000  0.5110600000000 1.0
C      1  0.4741120000000  0.4273530000000  0.4989980000000 1.0
C      1  0.5272020000000  0.4861990000000  0.4467180000000 1.0
C      1  0.4881630000000  0.4996700000000  0.5576950000000 1.0
C      1  0.5303220000000  0.5244810000000  0.4003610000000 1.0
C      1  0.4753820000000  0.4708050000000  0.6052830000000 1.0
C      1  0.4516960000000  0.4170210000000  0.5169900000000 1.0
C      1  0.5630420000000  0.5946310000000  0.4812660000000 1.0
C      1  0.4605760000000  0.4989540000000  0.5666150000000 1.0
C      1  0.5518380000000  0.4987440000000  0.4548840000000 1.0
C      1  0.5081690000000  0.5500280000000  0.5458720000000 1.0
C      1  0.4950180000000  0.4326280000000  0.4522920000000 1.0
C      1  0.5337630000000  0.3851000000000  0.5071100000000 1.0
C      1  0.4544290000000  0.6175610000000  0.4871820000000 1.0
C      1  0.4441640000000  0.5351090000000  0.5042150000000 1.0
C      1  0.5615760000000  0.4703640000000  0.4883020000000 1.0
C      1  0.4177280000000  0.5215620000000  0.5472510000000 1.0
C      1  0.5989530000000  0.4820000000000  0.4532430000000 1.0
C      1  0.5114480000000  0.6445620000000  0.5187320000000 1.0
C      1  0.4606480000000  0.3853880000000  0.4752120000000 1.0
C      1  0.5677470000000  0.4993410000000  0.5624050000000 1.0
C      1  0.4350130000000  0.5070130000000  0.4350750000000 1.0
C      1  0.4945810000000  0.4411710000000  0.5392980000000 1.0
C      1  0.5020830000000  0.5397250000000  0.4722510000000 1.0
C      1  0.4743770000000  0.5078980000000  0.4092800000000 1.0
C      1  0.5263320000000  0.4831160000000  0.5835240000000 1.0
C      1  0.5443590000000  0.4377130000000  0.5859410000000 1.0
C      1  0.4618160000000  0.5579540000000  0.4168420000000 1.0
C      1  0.4440470000000  0.4849180000000  0.5138220000000 1.0
C      1  0.5555430000000  0.4998490000000  0.4844470000000 1.0
C      1  0.5478080000000  0.5967930000000  0.5618520000000 1.0
C      1  0.4324710000000  0.4042490000000  0.4395840000000 1.0
C      1  0.4988380000000  0.4331650000000  0.5129730000000 1.0
C      1  0.5100760000000  0.5867980000000  0.4940440000000 1.0
C      1  0.4665160000000  0.4733580000000  0.5218100000000 1.0
C      1  0.5310330000000  0.5193960000000  0.5027100000000 1.0
C      1  0.3813730000000  0.4906770000000  0.4864410000000 1.0
C      1  0.6161460000000  0.5022170000000  0.5229850000000 1.0
C      1  0.5245950000000  0.4993690000000  0.3874990000000 1.0
C      1  0.4855040000000  0.4925200000000  0.6226720000000 1.0
C      1  0.5785280000000  0.5110750000000  0.4995820000000 1.0
C      1  0.4239260000000  0.4805260000000  0.4963680000000 1.0
C      1  0.5187860000000  0.4195050000000  0.4606440000000 1.0
C      1  0.4538870000000  0.6036190000000  0.5124170000000 1.0
C      1  0.4058450000000  0.4941610000000  0.5378910000000 1.0
C      1  0.6064350000000  0.5070470000000  0.4660890000000 1.0
C      1  0.5851620000000  0.4659220000000  0.5876840000000 1.0
C      1  0.4179500000000  0.5385370000000  0.4040810000000 1.0
C      1  0.5384290000000  0.4584080000000  0.5230310000000 1.0
C      1  0.4418640000000  0.5144230000000  0.4617490000000 1.0
C      1  0.5441710000000  0.5902600000000  0.4597870000000 1.0
C      1  0.4565660000000  0.4122160000000  0.5458740000000 1.0
C      1  0.4908100000000  0.5410230000000  0.5226240000000 1.0
C      1  0.4880070000000  0.4911410000000  0.4831110000000 1.0
C      1  0.4211180000000  0.5112550000000  0.4098320000000 1.0
C      1  0.5917100000000  0.4839240000000  0.5650770000000 1.0
C      1  0.5795020000000  0.4380620000000  0.4567930000000 1.0
C      1  0.4268120000000  0.5711460000000  0.5547760000000 1.0
C      1  0.6045040000000  0.4796590000000  0.5392740000000 1.0
C      1  0.3818040000000  0.5173240000000  0.4749260000000 1.0
C      1  0.5792340000000  0.4273090000000  0.4308220000000 1.0
C      1  0.4489470000000  0.5794880000000  0.5709730000000 1.0
C      1  0.5284770000000  0.4799920000000  0.5377850000000 1.0
C      1  0.4668850000000  0.5051200000000  0.4712370000000 1.0
C      1  0.4020540000000  0.5377580000000  0.4768820000000 1.0
C      1  0.5908650000000  0.4588460000000  0.5249900000000 1.0
C      1  0.5427560000000  0.4872390000000  0.5609170000000 1.0
C      1  0.4587480000000  0.4929490000000  0.4274280000000 1.0
C      1  0.5116700000000  0.5704850000000  0.3954520000000 1.0
C      1  0.4889000000000  0.4260690000000  0.5832010000000 1.0
C      1  0.4513290000000  0.4391760000000  0.5568550000000 1.0
C      1  0.5438390000000  0.5626210000000  0.4502290000000 1.0
C      1  0.5716100000000  0.4438970000000  0.4107810000000 1.0
C      1  0.4522530000000  0.5614340000000  0.5922500000000 1.0
C      1  0.4108040000000  0.4431160000000  0.5304680000000 1.0
C      1  0.5931820000000  0.5577890000000  0.4779910000000 1.0
C      1  0.5066810000000  0.5134340000000  0.6213940000000 1.0
C      1  0.5037370000000  0.4788750000000  0.3889570000000 1.0
C      1  0.4098990000000  0.4092670000000  0.4251880000000 1.0
C      1  0.5625830000000  0.6040820000000  0.5837800000000 1.0
C      1  0.5074290000000  0.4829840000000  0.4654200000000 1.0
C      1  0.5035510000000  0.4926010000000  0.5338850000000 1.0
C      1  0.6029670000000  0.4536820000000  0.4651600000000 1.0
C      1  0.4133480000000  0.5513360000000  0.5384230000000 1.0
C      1  0.4514410000000  0.4851550000000  0.3762020000000 1.0
C      1  0.5568730000000  0.4937210000000  0.6252130000000 1.0
C      1  0.5351590000000  0.5591840000000  0.5331980000000 1.0
C      1  0.4730540000000  0.4371080000000  0.4715550000000 1.0
C      1  0.5888190000000  0.5374320000000  0.4576050000000 1.0
C      1  0.4137940000000  0.4663760000000  0.5498930000000 1.0
C      1  0.4737010000000  0.5838090000000  0.4224320000000 1.0
C      1  0.5316150000000  0.4209070000000  0.5667300000000 1.0
C      1  0.4329520000000  0.5579290000000  0.4177860000000 1.0
C      1  0.5726030000000  0.4406830000000  0.5805390000000 1.0
C      1  0.4542330000000  0.4763880000000  0.5843270000000 1.0
C      1  0.5543770000000  0.5311950000000  0.4154360000000 1.0
C      1  0.5031690000000  0.3883200000000  0.5431530000000 1.0
C      1  0.4921470000000  0.6148400000000  0.4568390000000 1.0
C      1  0.4336450000000  0.4011110000000  0.4693660000000 1.0
C      1  0.5578480000000  0.5766170000000  0.5438110000000 1.0
C      1  0.4705020000000  0.4546740000000  0.5417230000000 1.0
C      1  0.5186830000000  0.5500620000000  0.4540950000000 1.0
C      1  0.5065170000000  0.5467880000000  0.5748050000000 1.0
C      1  0.4588000000000  0.4673400000000  0.4377930000000 1.0
C      1  0.5063390000000  0.4319400000000  0.5620410000000 1.0
C      1  0.4955440000000  0.5898020000000  0.4053640000000 1.0
C      1  0.4803050000000  0.6297460000000  0.4795080000000 1.0
C      1  0.5042540000000  0.3815770000000  0.5135760000000 1.0
C      1  0.5515550000000  0.3972110000000  0.5278280000000 1.0
C      1  0.4448990000000  0.6007140000000  0.4648620000000 1.0
C      1  0.5755190000000  0.4792660000000  0.6116110000000 1.0
C      1  0.4280580000000  0.4937390000000  0.3878940000000 1.0
C      1  0.5216560000000  0.6316390000000  0.5396800000000 1.0
C      1  0.4710900000000  0.3820300000000  0.4475420000000 1.0
C      1  0.4038170000000  0.5640710000000  0.5138550000000 1.0
C      1  0.6111920000000  0.4385030000000  0.4894620000000 1.0
C      1  0.5087040000000  0.4586150000000  0.4100290000000 1.0
C      1  0.5061830000000  0.5257780000000  0.5946910000000 1.0
C      1  0.4046620000000  0.4446840000000  0.4728920000000 1.0
C      1  0.5932120000000  0.5452460000000  0.5311230000000 1.0
C      1  0.5056330000000  0.5018440000000  0.5794060000000 1.0
C      1  0.5314990000000  0.4686320000000  0.4245910000000 1.0
C      1  0.4349480000000  0.4590630000000  0.5699700000000 1.0
C      1  0.5646820000000  0.5441340000000  0.4396480000000 1.0
C      1  0.5079930000000  0.5429460000000  0.4009350000000 1.0
C      1  0.4948100000000  0.4487740000000  0.6006980000000 1.0
C      1  0.5268880000000  0.3957960000000  0.4497870000000 1.0
C      1  0.4574380000000  0.6130880000000  0.5384670000000 1.0
C      1  0.4193120000000  0.5722840000000  0.4378020000000 1.0
C      1  0.5820150000000  0.4226330000000  0.5599690000000 1.0
C      1  0.5218810000000  0.6093600000000  0.5571140000000 1.0
C      1  0.4587150000000  0.3994580000000  0.4279170000000 1.0
C      1  0.4687770000000  0.5994630000000  0.4456690000000 1.0
C      1  0.5321750000000  0.3976790000000  0.5507350000000 1.0
C      1  0.5573730000000  0.4470880000000  0.4719390000000 1.0
C      1  0.4641740000000  0.5507510000000  0.5164080000000 1.0
C      1  0.5782060000000  0.4134500000000  0.5316040000000 1.0
C      1  0.4218990000000  0.5821690000000  0.4645890000000 1.0
C      1  0.4889980000000  0.4859910000000  0.5107770000000 1.0
C      1  0.5057160000000  0.5308680000000  0.4987600000000 1.0
C      1  0.6060460000000  0.5047540000000  0.4949570000000 1.0
C      1  0.3995860000000  0.4899560000000  0.5088900000000 1.0
C      1  0.5971700000000  0.4318700000000  0.5147590000000 1.0
C      1  0.4054730000000  0.5662520000000  0.4847340000000 1.0
C      1  0.5599100000000  0.4682210000000  0.4187930000000 1.0
C      1  0.4426280000000  0.5363520000000  0.5892240000000 1.0
C      1  0.6165190000000  0.5290150000000  0.5351750000000 1.0
C      1  0.3815800000000  0.4635420000000  0.4738400000000 1.0
C      1  0.4776570000000  0.4901630000000  0.3863440000000 1.0
C      1  0.5331770000000  0.5061370000000  0.6304030000000 1.0
C      1  0.4675230000000  0.5989540000000  0.5610850000000 1.0
C      1  0.4927730000000  0.4374060000000  0.4231370000000 1.0
C      1  0.5243740000000  0.4403750000000  0.5049280000000 1.0
C      1  0.4851280000000  0.5804090000000  0.4884360000000 1.0
C      1  0.5817240000000  0.5718860000000  0.5258690000000 1.0
C      1  0.4157750000000  0.4196100000000  0.4846300000000 1.0
C      1  0.4957750000000  0.6449050000000  0.4971630000000 1.0
C      1  0.4807180000000  0.3797700000000  0.4961680000000 1.0
C      1  0.4285790000000  0.5281900000000  0.4814340000000 1.0
C      1  0.5648910000000  0.4636170000000  0.5153530000000 1.0
END
