TITL C-3623282-6910-489 47.2617078879673 125000 -972.972710382637 0 0 162 (C1) n - 1
REM
REM in /home/nfs/bkarasulu/CARBON/AIRSS/Generating-Clusters/LCBOP/Higher-Symm/SD-CG/FIRE-CG
REM
REM
REM
REM
REM
REM ./C.cell (b20cbc046b6831c77cfcea5457e17084)
REM AIRSS Version 0.9.1 bugfix July 2018 build 013d7b7c2542+ Fri, 06 Jul 2018 19:26:36 +0100
REM compiler GCC version 9.2.1 20190827 (Red Hat 9.2.1-1)
REM options -cpp -mtune=generic -march=x86-64 -g -O0 -fpre-include=/usr/include/finclude/math-vector-fortran.h
REM seed -544530410 -1676980053 -449175998 -1561421376 982538601 -1226161717 -1179605549 701763703 -846934356 557682592 -334866071 1448877584 735112643 -704521310 1117355165 -1436446045 -2046432251 -716320175 800400779 -1342184403 -493074787 409159283 1198837780 -2086050096 609468247 -1877235727 117547361 1241499486 -1998257482 -1250765662 -393200014 -1257756665 -441804828
REM
CELL 1.54180   50.00000   50.00000   50.00000   90.00000   90.00000   90.00000
LATT -1
SFAC C  
C      1  0.6195380000000  0.4911650000000  0.5362700000000 1.0
C      1  0.4450540000000  0.4093760000000  0.5500100000000 1.0
C      1  0.4315670000000  0.5849950000000  0.5422670000000 1.0
C      1  0.3905180000000  0.4252940000000  0.4749510000000 1.0
C      1  0.5113960000000  0.6184890000000  0.4692920000000 1.0
C      1  0.6106710000000  0.4331130000000  0.4653200000000 1.0
C      1  0.4773700000000  0.3875150000000  0.4629970000000 1.0
C      1  0.4220800000000  0.5625420000000  0.4431550000000 1.0
C      1  0.5916720000000  0.5256610000000  0.4448580000000 1.0
C      1  0.5729160000000  0.5106170000000  0.4296540000000 1.0
C      1  0.4712500000000  0.4312160000000  0.4288930000000 1.0
C      1  0.4446670000000  0.5520780000000  0.4275200000000 1.0
C      1  0.5381770000000  0.4582770000000  0.5112050000000 1.0
C      1  0.4401720000000  0.4884250000000  0.5135690000000 1.0
C      1  0.5115430000000  0.5659760000000  0.5111430000000 1.0
C      1  0.3828780000000  0.5044530000000  0.5129810000000 1.0
C      1  0.5811930000000  0.5842040000000  0.5187310000000 1.0
C      1  0.5487170000000  0.3967880000000  0.5147670000000 1.0
C      1  0.5738680000000  0.4342540000000  0.5263440000000 1.0
C      1  0.4028780000000  0.4654240000000  0.5293220000000 1.0
C      1  0.5369380000000  0.6029040000000  0.5270460000000 1.0
C      1  0.5911000000000  0.4780270000000  0.5725680000000 1.0
C      1  0.4337640000000  0.4400120000000  0.5841770000000 1.0
C      1  0.4496470000000  0.5723620000000  0.5852730000000 1.0
C      1  0.5795990000000  0.5418830000000  0.4648310000000 1.0
C      1  0.4939420000000  0.4092430000000  0.4684640000000 1.0
C      1  0.4167590000000  0.5411410000000  0.4611110000000 1.0
C      1  0.3940420000000  0.4489780000000  0.4308100000000 1.0
C      1  0.5479310000000  0.6481470000000  0.4572200000000 1.0
C      1  0.5815650000000  0.4255560000000  0.4248570000000 1.0
C      1  0.4086840000000  0.4178190000000  0.4959990000000 1.0
C      1  0.4896900000000  0.6129160000000  0.4866430000000 1.0
C      1  0.6125670000000  0.4527920000000  0.4861790000000 1.0
C      1  0.4959280000000  0.5299490000000  0.5765530000000 1.0
C      1  0.5151350000000  0.4983500000000  0.5745660000000 1.0
C      1  0.4794670000000  0.4992110000000  0.5790160000000 1.0
C      1  0.4196340000000  0.5368570000000  0.4923070000000 1.0
C      1  0.5891040000000  0.5409190000000  0.4924800000000 1.0
C      1  0.5028280000000  0.4155010000000  0.4991730000000 1.0
C      1  0.4280640000000  0.5140240000000  0.6052930000000 1.0
C      1  0.5576100000000  0.5397330000000  0.5840680000000 1.0
C      1  0.5027130000000  0.4419720000000  0.5916610000000 1.0
C      1  0.4646150000000  0.3992900000000  0.5323620000000 1.0
C      1  0.4209660000000  0.5812310000000  0.5165440000000 1.0
C      1  0.6191700000000  0.5085360000000  0.5140950000000 1.0
C      1  0.5373180000000  0.4563610000000  0.5595010000000 1.0
C      1  0.4333130000000  0.4916220000000  0.5621220000000 1.0
C      1  0.5240570000000  0.5647300000000  0.5579230000000 1.0
C      1  0.4950500000000  0.5166160000000  0.4918400000000 1.0
C      1  0.5219730000000  0.5244420000000  0.4917470000000 1.0
C      1  0.4903590000000  0.4903390000000  0.4986760000000 1.0
C      1  0.5521810000000  0.5248210000000  0.4148450000000 1.0
C      1  0.5001640000000  0.4352960000000  0.4261530000000 1.0
C      1  0.4419480000000  0.5242650000000  0.4217730000000 1.0
C      1  0.5205450000000  0.4431260000000  0.4947450000000 1.0
C      1  0.4364560000000  0.5083530000000  0.4933840000000 1.0
C      1  0.5245900000000  0.5527330000000  0.4895500000000 1.0
C      1  0.3935710000000  0.4997140000000  0.4579990000000 1.0
C      1  0.5729240000000  0.5891320000000  0.4658110000000 1.0
C      1  0.5407730000000  0.4056740000000  0.4590820000000 1.0
C      1  0.4644530000000  0.3723320000000  0.5245150000000 1.0
C      1  0.4055590000000  0.5977700000000  0.4997170000000 1.0
C      1  0.6390670000000  0.5117310000000  0.4942410000000 1.0
C      1  0.4575390000000  0.4647510000000  0.5181260000000 1.0
C      1  0.4831390000000  0.5650010000000  0.5175410000000 1.0
C      1  0.5524510000000  0.4842830000000  0.5118750000000 1.0
C      1  0.5327550000000  0.4849830000000  0.5584790000000 1.0
C      1  0.4614150000000  0.4857680000000  0.5637190000000 1.0
C      1  0.4982170000000  0.5530900000000  0.5622140000000 1.0
C      1  0.5774980000000  0.4909480000000  0.4987410000000 1.0
C      1  0.4564720000000  0.4384630000000  0.5062030000000 1.0
C      1  0.4632890000000  0.5710310000000  0.4979460000000 1.0
C      1  0.6190920000000  0.5198760000000  0.4481290000000 1.0
C      1  0.4666900000000  0.3663860000000  0.4755160000000 1.0
C      1  0.4111610000000  0.5873700000000  0.4501440000000 1.0
C      1  0.5288290000000  0.4402210000000  0.5812570000000 1.0
C      1  0.4172460000000  0.4992260000000  0.5841790000000 1.0
C      1  0.5449410000000  0.5638510000000  0.5771160000000 1.0
C      1  0.5465890000000  0.4227040000000  0.5926380000000 1.0
C      1  0.3908110000000  0.4920500000000  0.5851130000000 1.0
C      1  0.5527190000000  0.5870630000000  0.5894720000000 1.0
C      1  0.5067890000000  0.4668490000000  0.4221170000000 1.0
C      1  0.4668720000000  0.5033160000000  0.4217650000000 1.0
C      1  0.5212550000000  0.5204720000000  0.4169690000000 1.0
C      1  0.5804820000000  0.4966010000000  0.5884280000000 1.0
C      1  0.4545080000000  0.4430100000000  0.6007540000000 1.0
C      1  0.4444130000000  0.5588210000000  0.6074690000000 1.0
C      1  0.5600300000000  0.6023290000000  0.5106090000000 1.0
C      1  0.5677600000000  0.4159300000000  0.5032110000000 1.0
C      1  0.3899450000000  0.4770370000000  0.5047060000000 1.0
C      1  0.5927460000000  0.5151320000000  0.5044060000000 1.0
C      1  0.4762370000000  0.4185810000000  0.5143710000000 1.0
C      1  0.4358570000000  0.5612410000000  0.5019920000000 1.0
C      1  0.5165780000000  0.5440230000000  0.4422550000000 1.0
C      1  0.5199190000000  0.4707750000000  0.4503900000000 1.0
C      1  0.4617840000000  0.4926970000000  0.4504520000000 1.0
C      1  0.4676540000000  0.5873990000000  0.4517560000000 1.0
C      1  0.5789500000000  0.4656830000000  0.4553610000000 1.0
C      1  0.4323970000000  0.4409530000000  0.4625200000000 1.0
C      1  0.4862630000000  0.4469850000000  0.6364300000000 1.0
C      1  0.4388420000000  0.5334360000000  0.6480870000000 1.0
C      1  0.5701930000000  0.5228660000000  0.6271110000000 1.0
C      1  0.4887940000000  0.5453930000000  0.4490880000000 1.0
C      1  0.5392560000000  0.4899450000000  0.4553490000000 1.0
C      1  0.4704020000000  0.4677920000000  0.4592990000000 1.0
C      1  0.5388740000000  0.6246830000000  0.4693140000000 1.0
C      1  0.5830080000000  0.4348090000000  0.4526540000000 1.0
C      1  0.4022360000000  0.4484940000000  0.4590250000000 1.0
C      1  0.5993020000000  0.5848690000000  0.4770130000000 1.0
C      1  0.5314010000000  0.3831750000000  0.4750440000000 1.0
C      1  0.3777550000000  0.5204470000000  0.4712090000000 1.0
C      1  0.4564020000000  0.4454720000000  0.4486840000000 1.0
C      1  0.4693770000000  0.5628380000000  0.4378080000000 1.0
C      1  0.5644600000000  0.4864080000000  0.4428960000000 1.0
C      1  0.4070440000000  0.4387980000000  0.5400630000000 1.0
C      1  0.5169140000000  0.6228860000000  0.5269770000000 1.0
C      1  0.5989180000000  0.4471730000000  0.5326690000000 1.0
C      1  0.5911300000000  0.4723270000000  0.4813420000000 1.0
C      1  0.4347920000000  0.4295770000000  0.4895550000000 1.0
C      1  0.4710730000000  0.5922620000000  0.4794290000000 1.0
C      1  0.4194800000000  0.5136840000000  0.4479390000000 1.0
C      1  0.5611750000000  0.5635550000000  0.4589990000000 1.0
C      1  0.5158600000000  0.4227510000000  0.4503570000000 1.0
C      1  0.5699440000000  0.4136310000000  0.3750330000000 1.0
C      1  0.3860160000000  0.4546940000000  0.3791990000000 1.0
C      1  0.5661420000000  0.6920320000000  0.4347410000000 1.0
C      1  0.5965310000000  0.5677330000000  0.5008290000000 1.0
C      1  0.5237620000000  0.3922630000000  0.5019760000000 1.0
C      1  0.3897530000000  0.5273520000000  0.4974260000000 1.0
C      1  0.4272470000000  0.4298720000000  0.5588920000000 1.0
C      1  0.4530550000000  0.5745600000000  0.5575750000000 1.0
C      1  0.6035440000000  0.4708150000000  0.5486180000000 1.0
C      1  0.4036270000000  0.5998350000000  0.4728500000000 1.0
C      1  0.6372460000000  0.5154530000000  0.4675340000000 1.0
C      1  0.4629990000000  0.3592800000000  0.5011200000000 1.0
C      1  0.5646010000000  0.4188850000000  0.4721080000000 1.0
C      1  0.3947190000000  0.4744790000000  0.4742640000000 1.0
C      1  0.5573560000000  0.6071880000000  0.4818680000000 1.0
C      1  0.4371210000000  0.5354000000000  0.6209180000000 1.0
C      1  0.5694750000000  0.5197400000000  0.5998980000000 1.0
C      1  0.4811550000000  0.4439400000000  0.6096870000000 1.0
C      1  0.5764000000000  0.4193150000000  0.3996420000000 1.0
C      1  0.3896670000000  0.4515070000000  0.4048130000000 1.0
C      1  0.5570870000000  0.6702750000000  0.4458880000000 1.0
C      1  0.5232020000000  0.4887820000000  0.4081060000000 1.0
C      1  0.4783160000000  0.4765310000000  0.4109460000000 1.0
C      1  0.4897610000000  0.5217700000000  0.4095480000000 1.0
C      1  0.4222030000000  0.4859180000000  0.5365880000000 1.0
C      1  0.5269860000000  0.5769920000000  0.5325740000000 1.0
C      1  0.5488490000000  0.4456840000000  0.5356340000000 1.0
C      1  0.5209090000000  0.4478830000000  0.4665280000000 1.0
C      1  0.4404110000000  0.5022090000000  0.4655280000000 1.0
C      1  0.5335600000000  0.5572910000000  0.4616860000000 1.0
C      1  0.6182580000000  0.4444540000000  0.5121530000000 1.0
C      1  0.3993170000000  0.4182120000000  0.5222390000000 1.0
C      1  0.4938870000000  0.6234570000000  0.5126130000000 1.0
C      1  0.5448380000000  0.4978240000000  0.5359880000000 1.0
C      1  0.4704920000000  0.4678550000000  0.5434850000000 1.0
C      1  0.4768760000000  0.5635800000000  0.5457600000000 1.0
C      1  0.5378100000000  0.5082900000000  0.4759100000000 1.0
C      1  0.4841200000000  0.4694480000000  0.4833000000000 1.0
C      1  0.4808810000000  0.5307570000000  0.4720850000000 1.0
END
