TITL C-3623282-6910-630 -145.55054424279 125000 -1129.56085660399 0 0 179 (C1) n - 1
REM
REM in /home/nfs/bkarasulu/CARBON/AIRSS/Generating-Clusters/LCBOP/Higher-Symm/SD-CG/FIRE-CG
REM
REM
REM
REM
REM
REM ./C.cell (b20cbc046b6831c77cfcea5457e17084)
REM AIRSS Version 0.9.1 bugfix July 2018 build 013d7b7c2542+ Fri, 06 Jul 2018 19:26:36 +0100
REM compiler GCC version 9.2.1 20190827 (Red Hat 9.2.1-1)
REM options -cpp -mtune=generic -march=x86-64 -g -O0 -fpre-include=/usr/include/finclude/math-vector-fortran.h
REM seed 2076716938 -1533619477 1192335893 237385864 -1127528616 866983395 130764538 203023871 1849632609 -983318657 -1750469361 -646777618 848157376 -2108622846 321595733 -862998890 1738177099 -239627349 -938348721 944940128 -338011054 -795448023 1964903160 865805986 1854597366 -1995920540 -2076411992 -216469030 -69399688 -1671399719 1108931011 713418996 -234214053
REM
CELL 1.54180   50.00000   50.00000   50.00000   90.00000   90.00000   90.00000
LATT -1
SFAC C  
C      1  0.4805870000000  0.5646400000000  0.5067200000000 1.0
C      1  0.4773390000000  0.5713120000000  0.4796110000000 1.0
C      1  0.4035660000000  0.5745870000000  0.5186900000000 1.0
C      1  0.4127420000000  0.5649700000000  0.4935130000000 1.0
C      1  0.6040020000000  0.4809020000000  0.4559300000000 1.0
C      1  0.6068440000000  0.4726010000000  0.5657910000000 1.0
C      1  0.5616590000000  0.5267770000000  0.4950040000000 1.0
C      1  0.5527960000000  0.5251460000000  0.5233440000000 1.0
C      1  0.6317990000000  0.4735370000000  0.4959490000000 1.0
C      1  0.6307070000000  0.4712050000000  0.5229410000000 1.0
C      1  0.4390120000000  0.5249630000000  0.4214270000000 1.0
C      1  0.4370830000000  0.5246970000000  0.5980730000000 1.0
C      1  0.6174560000000  0.4094170000000  0.4662480000000 1.0
C      1  0.6197770000000  0.4055650000000  0.5433570000000 1.0
C      1  0.5203960000000  0.5156360000000  0.4778970000000 1.0
C      1  0.5062070000000  0.5175870000000  0.5026610000000 1.0
C      1  0.4183050000000  0.5639310000000  0.4433060000000 1.0
C      1  0.4240250000000  0.5638320000000  0.5678850000000 1.0
C      1  0.4522800000000  0.4453410000000  0.5262460000000 1.0
C      1  0.4741990000000  0.4439700000000  0.4686510000000 1.0
C      1  0.6162400000000  0.4463520000000  0.5699010000000 1.0
C      1  0.6123380000000  0.4547220000000  0.4497640000000 1.0
C      1  0.4200650000000  0.5779480000000  0.5414960000000 1.0
C      1  0.4160810000000  0.5786450000000  0.4686440000000 1.0
C      1  0.5864030000000  0.4942680000000  0.4372050000000 1.0
C      1  0.5909270000000  0.4855710000000  0.5853320000000 1.0
C      1  0.4877370000000  0.4420680000000  0.5929190000000 1.0
C      1  0.4856840000000  0.4441260000000  0.4058030000000 1.0
C      1  0.5321630000000  0.5457570000000  0.3921260000000 1.0
C      1  0.5377290000000  0.5494710000000  0.5963660000000 1.0
C      1  0.4194620000000  0.5360910000000  0.5776620000000 1.0
C      1  0.4236860000000  0.5335200000000  0.4458570000000 1.0
C      1  0.4080090000000  0.5156220000000  0.5615480000000 1.0
C      1  0.4011000000000  0.5130000000000  0.4507390000000 1.0
C      1  0.5070910000000  0.3884310000000  0.4802210000000 1.0
C      1  0.5014680000000  0.3898350000000  0.5087220000000 1.0
C      1  0.4328770000000  0.4076470000000  0.5564080000000 1.0
C      1  0.4329910000000  0.4112520000000  0.4464960000000 1.0
C      1  0.4289920000000  0.5414110000000  0.4961110000000 1.0
C      1  0.4324940000000  0.5297650000000  0.5218430000000 1.0
C      1  0.5161690000000  0.5817210000000  0.4530970000000 1.0
C      1  0.5242680000000  0.5767190000000  0.5135030000000 1.0
C      1  0.5097330000000  0.6422650000000  0.4523910000000 1.0
C      1  0.5260490000000  0.6431460000000  0.5183140000000 1.0
C      1  0.6219040000000  0.4010110000000  0.4910840000000 1.0
C      1  0.6232570000000  0.3998090000000  0.5176190000000 1.0
C      1  0.4586320000000  0.5938170000000  0.4831800000000 1.0
C      1  0.4555250000000  0.5963350000000  0.5102820000000 1.0
C      1  0.5583590000000  0.4572690000000  0.4888320000000 1.0
C      1  0.5590030000000  0.4379450000000  0.5070880000000 1.0
C      1  0.4900360000000  0.4999160000000  0.5960850000000 1.0
C      1  0.4904060000000  0.5038500000000  0.4049260000000 1.0
C      1  0.6104230000000  0.4270150000000  0.4457850000000 1.0
C      1  0.6089650000000  0.4196090000000  0.5649470000000 1.0
C      1  0.5152190000000  0.4862260000000  0.4075880000000 1.0
C      1  0.5149160000000  0.4853840000000  0.5939390000000 1.0
C      1  0.4394120000000  0.4523220000000  0.4170960000000 1.0
C      1  0.4398750000000  0.4499430000000  0.5869310000000 1.0
C      1  0.5447910000000  0.4322440000000  0.5572380000000 1.0
C      1  0.5316560000000  0.4200180000000  0.4452230000000 1.0
C      1  0.5287450000000  0.4394500000000  0.4264350000000 1.0
C      1  0.5232620000000  0.4501320000000  0.5609340000000 1.0
C      1  0.5320640000000  0.6249630000000  0.4534250000000 1.0
C      1  0.5412810000000  0.6194530000000  0.5190450000000 1.0
C      1  0.5972530000000  0.5048460000000  0.5277940000000 1.0
C      1  0.6030440000000  0.5102600000000  0.4987300000000 1.0
C      1  0.5979690000000  0.4196400000000  0.4216720000000 1.0
C      1  0.5845660000000  0.4119070000000  0.5768410000000 1.0
C      1  0.4732520000000  0.4289200000000  0.5265800000000 1.0
C      1  0.4980560000000  0.4341580000000  0.4737190000000 1.0
C      1  0.4675600000000  0.4900720000000  0.4598030000000 1.0
C      1  0.4705270000000  0.4878510000000  0.5175720000000 1.0
C      1  0.4653220000000  0.4577180000000  0.6012290000000 1.0
C      1  0.4634010000000  0.4613390000000  0.4013560000000 1.0
C      1  0.4423210000000  0.3794270000000  0.5147870000000 1.0
C      1  0.4425510000000  0.3816460000000  0.4857460000000 1.0
C      1  0.3850740000000  0.5127320000000  0.4750180000000 1.0
C      1  0.4097850000000  0.5168580000000  0.5327290000000 1.0
C      1  0.5421640000000  0.4963150000000  0.5956670000000 1.0
C      1  0.5420180000000  0.4982280000000  0.4107400000000 1.0
C      1  0.5891670000000  0.5348180000000  0.4918660000000 1.0
C      1  0.5782850000000  0.5252560000000  0.5381790000000 1.0
C      1  0.4259670000000  0.3973530000000  0.5307720000000 1.0
C      1  0.4263240000000  0.4010420000000  0.4719570000000 1.0
C      1  0.5180200000000  0.5914220000000  0.4230330000000 1.0
C      1  0.5387270000000  0.5930710000000  0.5647180000000 1.0
C      1  0.5615930000000  0.4492450000000  0.5981400000000 1.0
C      1  0.5723270000000  0.4590770000000  0.4050900000000 1.0
C      1  0.5111520000000  0.4565130000000  0.4116780000000 1.0
C      1  0.5111330000000  0.4570530000000  0.5857760000000 1.0
C      1  0.5071240000000  0.5156280000000  0.4539910000000 1.0
C      1  0.5130030000000  0.4646640000000  0.5395840000000 1.0
C      1  0.4485940000000  0.5774830000000  0.5785280000000 1.0
C      1  0.4343860000000  0.5809290000000  0.4244960000000 1.0
C      1  0.4910640000000  0.3714120000000  0.5286880000000 1.0
C      1  0.4896430000000  0.3729410000000  0.4632940000000 1.0
C      1  0.5466750000000  0.5268830000000  0.4076350000000 1.0
C      1  0.5510170000000  0.5243720000000  0.5989450000000 1.0
C      1  0.5343320000000  0.5992080000000  0.4994940000000 1.0
C      1  0.5292410000000  0.6015610000000  0.4714050000000 1.0
C      1  0.5472470000000  0.5700250000000  0.5788770000000 1.0
C      1  0.5257860000000  0.5705880000000  0.4038320000000 1.0
C      1  0.5023450000000  0.6543720000000  0.5129620000000 1.0
C      1  0.4813800000000  0.6380820000000  0.4520400000000 1.0
C      1  0.5789000000000  0.5272450000000  0.6044700000000 1.0
C      1  0.5693460000000  0.5367940000000  0.4215470000000 1.0
C      1  0.4058960000000  0.4119370000000  0.4883520000000 1.0
C      1  0.4054740000000  0.4098280000000  0.5154170000000 1.0
C      1  0.4454940000000  0.6039420000000  0.4387310000000 1.0
C      1  0.4633540000000  0.5890920000000  0.5568610000000 1.0
C      1  0.4245830000000  0.4754590000000  0.5858610000000 1.0
C      1  0.4257480000000  0.4764740000000  0.4257680000000 1.0
C      1  0.4950710000000  0.5631320000000  0.4582000000000 1.0
C      1  0.4989700000000  0.5729110000000  0.5254060000000 1.0
C      1  0.5508590000000  0.6089440000000  0.5442370000000 1.0
C      1  0.5381730000000  0.6139890000000  0.4271100000000 1.0
C      1  0.5982900000000  0.5102590000000  0.5966620000000 1.0
C      1  0.5878390000000  0.5224570000000  0.4348600000000 1.0
C      1  0.5644810000000  0.4769340000000  0.5935130000000 1.0
C      1  0.5661310000000  0.4828850000000  0.4188290000000 1.0
C      1  0.4570860000000  0.4654520000000  0.4677550000000 1.0
C      1  0.4484890000000  0.4697280000000  0.5131060000000 1.0
C      1  0.4398460000000  0.4962750000000  0.6005270000000 1.0
C      1  0.4403170000000  0.4984780000000  0.4129590000000 1.0
C      1  0.4754890000000  0.5272390000000  0.5565660000000 1.0
C      1  0.4965550000000  0.5388100000000  0.4417230000000 1.0
C      1  0.4470240000000  0.4237940000000  0.5749770000000 1.0
C      1  0.4462460000000  0.4256420000000  0.4262860000000 1.0
C      1  0.4929640000000  0.4919210000000  0.4488340000000 1.0
C      1  0.4912600000000  0.4783670000000  0.5335650000000 1.0
C      1  0.5906520000000  0.5515470000000  0.5355890000000 1.0
C      1  0.5964290000000  0.5569490000000  0.5089690000000 1.0
C      1  0.4449490000000  0.5921980000000  0.5352480000000 1.0
C      1  0.4373510000000  0.5987000000000  0.4660170000000 1.0
C      1  0.5615980000000  0.4278420000000  0.5797040000000 1.0
C      1  0.5830550000000  0.4346020000000  0.4050840000000 1.0
C      1  0.3963410000000  0.4938460000000  0.5208240000000 1.0
C      1  0.3934060000000  0.4916350000000  0.4931710000000 1.0
C      1  0.4403550000000  0.5297090000000  0.4728130000000 1.0
C      1  0.4562180000000  0.5307330000000  0.5378430000000 1.0
C      1  0.4652900000000  0.4895780000000  0.4007710000000 1.0
C      1  0.4666640000000  0.4855810000000  0.6055520000000 1.0
C      1  0.4056740000000  0.4863100000000  0.5676620000000 1.0
C      1  0.4105280000000  0.4843340000000  0.4484690000000 1.0
C      1  0.4689750000000  0.6494450000000  0.4747090000000 1.0
C      1  0.4798560000000  0.6560070000000  0.4984910000000 1.0
C      1  0.4733960000000  0.4195810000000  0.4162460000000 1.0
C      1  0.4757700000000  0.4183230000000  0.5808260000000 1.0
C      1  0.5157950000000  0.4132780000000  0.4677610000000 1.0
C      1  0.4946870000000  0.4158420000000  0.5179260000000 1.0
C      1  0.6136820000000  0.4902960000000  0.4815430000000 1.0
C      1  0.6117990000000  0.4837820000000  0.5402010000000 1.0
C      1  0.4979850000000  0.3771620000000  0.5556350000000 1.0
C      1  0.4925940000000  0.3754470000000  0.4353800000000 1.0
C      1  0.4623690000000  0.5383130000000  0.6007110000000 1.0
C      1  0.4593460000000  0.5418830000000  0.4107420000000 1.0
C      1  0.5256010000000  0.5405090000000  0.3661050000000 1.0
C      1  0.5183430000000  0.5559360000000  0.6146830000000 1.0
C      1  0.5107080000000  0.5965750000000  0.5660120000000 1.0
C      1  0.4904930000000  0.6037890000000  0.4186120000000 1.0
C      1  0.4608950000000  0.5661720000000  0.6009210000000 1.0
C      1  0.4503280000000  0.5677270000000  0.4054350000000 1.0
C      1  0.4852050000000  0.3944020000000  0.4179590000000 1.0
C      1  0.4898010000000  0.3950920000000  0.5739180000000 1.0
C      1  0.5244020000000  0.5218790000000  0.5249270000000 1.0
C      1  0.5473100000000  0.5085910000000  0.4792630000000 1.0
C      1  0.4781910000000  0.5097290000000  0.5009880000000 1.0
C      1  0.4619900000000  0.5121190000000  0.4771050000000 1.0
C      1  0.5537470000000  0.4276310000000  0.5310700000000 1.0
C      1  0.5540530000000  0.4813970000000  0.4785110000000 1.0
C      1  0.3942750000000  0.4754470000000  0.5432100000000 1.0
C      1  0.4114700000000  0.4754040000000  0.4768730000000 1.0
C      1  0.4906210000000  0.5856300000000  0.5500160000000 1.0
C      1  0.4707500000000  0.6172620000000  0.4345260000000 1.0
C      1  0.4634600000000  0.3683180000000  0.4724900000000 1.0
C      1  0.4637970000000  0.3643450000000  0.5252450000000 1.0
C      1  0.4855520000000  0.5316530000000  0.4157000000000 1.0
C      1  0.4819040000000  0.5246520000000  0.5842710000000 1.0
C      1  0.4366470000000  0.4678010000000  0.4871760000000 1.0
END
