TITL C-3623288-6813-351 887.640846747643 125000 -1144.58261215924 0 0 187 (C1) n - 1
REM
REM in /home/nfs/bkarasulu/CARBON/AIRSS/Generating-Clusters/LCBOP/Higher-Symm/SD-CG/FIRE-CG
REM
REM
REM
REM
REM
REM ./C.cell (b20cbc046b6831c77cfcea5457e17084)
REM AIRSS Version 0.9.1 bugfix July 2018 build 013d7b7c2542+ Fri, 06 Jul 2018 19:26:36 +0100
REM compiler GCC version 9.2.1 20190827 (Red Hat 9.2.1-1)
REM options -cpp -mtune=generic -march=x86-64 -g -O0 -fpre-include=/usr/include/finclude/math-vector-fortran.h
REM seed 1602998203 68339178 -1241676923 1884257391 1550854531 59398113 -1782412596 -107503634 -2013832523 939280676 -1013184941 -1361167415 -1075423609 2032281210 5606914 -1286373850 1198694464 -721947785 421159712 999636653 -1928038652 1779839971 295572002 -1943472950 1629703432 1860836537 1429120633 1550116642 131752749 -280401762 -1123328526 -1781514155 -496195832
REM
CELL 1.54180   50.00000   50.00000   50.00000   90.00000   90.00000   90.00000
LATT -1
SFAC C  
C      1  0.6170220000000  0.5540690000000  0.5669990000000 1.0
C      1  0.3924340000000  0.5492110000000  0.4803430000000 1.0
C      1  0.6112140000000  0.5144130000000  0.4361190000000 1.0
C      1  0.3899430000000  0.4777020000000  0.4620460000000 1.0
C      1  0.6119170000000  0.4451790000000  0.5003110000000 1.0
C      1  0.3843200000000  0.4736680000000  0.5659150000000 1.0
C      1  0.5374380000000  0.5701580000000  0.4360560000000 1.0
C      1  0.4640560000000  0.4830890000000  0.4009080000000 1.0
C      1  0.5318790000000  0.4132640000000  0.4677710000000 1.0
C      1  0.4651510000000  0.4247990000000  0.5622370000000 1.0
C      1  0.5346930000000  0.5174970000000  0.5952800000000 1.0
C      1  0.4647200000000  0.5893670000000  0.5323660000000 1.0
C      1  0.4111650000000  0.4335540000000  0.5766340000000 1.0
C      1  0.5852590000000  0.5388410000000  0.6014840000000 1.0
C      1  0.4108660000000  0.5828150000000  0.5133810000000 1.0
C      1  0.5899760000000  0.5564060000000  0.4268730000000 1.0
C      1  0.4091430000000  0.4779120000000  0.4158280000000 1.0
C      1  0.5874070000000  0.4097080000000  0.4770210000000 1.0
C      1  0.3888250000000  0.5671380000000  0.5026710000000 1.0
C      1  0.6147300000000  0.5416050000000  0.4278620000000 1.0
C      1  0.3866210000000  0.4817440000000  0.4337090000000 1.0
C      1  0.6126460000000  0.4219640000000  0.4836670000000 1.0
C      1  0.3852130000000  0.4461030000000  0.5741390000000 1.0
C      1  0.6117560000000  0.5485710000000  0.5949530000000 1.0
C      1  0.5497760000000  0.5233760000000  0.4657300000000 1.0
C      1  0.4570420000000  0.4909620000000  0.4543820000000 1.0
C      1  0.5512980000000  0.4623270000000  0.4862920000000 1.0
C      1  0.4426080000000  0.4655810000000  0.5308560000000 1.0
C      1  0.5751390000000  0.5066410000000  0.5627880000000 1.0
C      1  0.4559450000000  0.5418720000000  0.5058770000000 1.0
C      1  0.4504150000000  0.4423000000000  0.5450350000000 1.0
C      1  0.5482060000000  0.5123370000000  0.5699250000000 1.0
C      1  0.4567320000000  0.5635520000000  0.5237920000000 1.0
C      1  0.5473580000000  0.5484920000000  0.4522810000000 1.0
C      1  0.4570140000000  0.4928810000000  0.4265210000000 1.0
C      1  0.5361420000000  0.4412650000000  0.4728280000000 1.0
C      1  0.4639120000000  0.5046360000000  0.5467310000000 1.0
C      1  0.5368150000000  0.5485230000000  0.5162340000000 1.0
C      1  0.4675520000000  0.5380810000000  0.4474610000000 1.0
C      1  0.5306540000000  0.4777170000000  0.4438220000000 1.0
C      1  0.4572110000000  0.4379720000000  0.4946590000000 1.0
C      1  0.5341550000000  0.4643290000000  0.5321250000000 1.0
C      1  0.4268030000000  0.4549400000000  0.4245950000000 1.0
C      1  0.5692010000000  0.4086360000000  0.5006680000000 1.0
C      1  0.4311840000000  0.4530620000000  0.5876540000000 1.0
C      1  0.5651620000000  0.5549580000000  0.5861210000000 1.0
C      1  0.4313450000000  0.5894560000000  0.4921330000000 1.0
C      1  0.5692150000000  0.5392660000000  0.4134660000000 1.0
C      1  0.3981150000000  0.4235140000000  0.4772330000000 1.0
C      1  0.5973190000000  0.4447390000000  0.5539350000000 1.0
C      1  0.4008820000000  0.5111920000000  0.6025340000000 1.0
C      1  0.5948550000000  0.5988860000000  0.5457850000000 1.0
C      1  0.4052000000000  0.5731300000000  0.4321350000000 1.0
C      1  0.5933880000000  0.4796810000000  0.3969420000000 1.0
C      1  0.5727960000000  0.4306120000000  0.5187130000000 1.0
C      1  0.4267140000000  0.4805420000000  0.5793100000000 1.0
C      1  0.5720940000000  0.5602560000000  0.5582990000000 1.0
C      1  0.4308620000000  0.5703980000000  0.4703050000000 1.0
C      1  0.5689360000000  0.5109440000000  0.4209070000000 1.0
C      1  0.4252660000000  0.4497180000000  0.4530940000000 1.0
C      1  0.5359360000000  0.4757730000000  0.5061560000000 1.0
C      1  0.4656250000000  0.4835470000000  0.5259900000000 1.0
C      1  0.5246640000000  0.5210680000000  0.5235400000000 1.0
C      1  0.4824300000000  0.5335370000000  0.4993930000000 1.0
C      1  0.5214360000000  0.5158930000000  0.4742510000000 1.0
C      1  0.4822640000000  0.4892350000000  0.4659850000000 1.0
C      1  0.5225400000000  0.4981570000000  0.6393400000000 1.0
C      1  0.4650020000000  0.6164170000000  0.5739180000000 1.0
C      1  0.5345710000000  0.6197140000000  0.4361600000000 1.0
C      1  0.4678850000000  0.4993550000000  0.3542150000000 1.0
C      1  0.5220600000000  0.3820320000000  0.4307230000000 1.0
C      1  0.4754900000000  0.3765730000000  0.5684450000000 1.0
C      1  0.5746690000000  0.4777270000000  0.4800500000000 1.0
C      1  0.4155210000000  0.4723890000000  0.5265420000000 1.0
C      1  0.5996640000000  0.5106580000000  0.5524790000000 1.0
C      1  0.4308130000000  0.5292610000000  0.5017700000000 1.0
C      1  0.5736940000000  0.5057740000000  0.4713400000000 1.0
C      1  0.4339220000000  0.4936530000000  0.4690370000000 1.0
C      1  0.4466930000000  0.5352720000000  0.5977400000000 1.0
C      1  0.5506770000000  0.6024410000000  0.5176810000000 1.0
C      1  0.4518920000000  0.5675690000000  0.4104790000000 1.0
C      1  0.5464270000000  0.4574340000000  0.3971180000000 1.0
C      1  0.4433970000000  0.3957900000000  0.4896400000000 1.0
C      1  0.5512020000000  0.4438740000000  0.5829240000000 1.0
C      1  0.5807650000000  0.4112680000000  0.4491080000000 1.0
C      1  0.4157410000000  0.4101800000000  0.5597930000000 1.0
C      1  0.5824610000000  0.5109770000000  0.6112950000000 1.0
C      1  0.4142460000000  0.5809610000000  0.5420700000000 1.0
C      1  0.5864550000000  0.5770060000000  0.4475140000000 1.0
C      1  0.4157180000000  0.5012920000000  0.4000610000000 1.0
C      1  0.4392950000000  0.3887490000000  0.5174240000000 1.0
C      1  0.5600270000000  0.4608880000000  0.6047120000000 1.0
C      1  0.4390770000000  0.5583720000000  0.5819440000000 1.0
C      1  0.5607340000000  0.5985450000000  0.4902520000000 1.0
C      1  0.4455920000000  0.5437090000000  0.3951620000000 1.0
C      1  0.5531580000000  0.4328840000000  0.4104380000000 1.0
C      1  0.4946620000000  0.5427080000000  0.5884750000000 1.0
C      1  0.5021670000000  0.6006520000000  0.5055700000000 1.0
C      1  0.5009140000000  0.5560060000000  0.4087030000000 1.0
C      1  0.4977750000000  0.4524860000000  0.4126790000000 1.0
C      1  0.4968550000000  0.4010370000000  0.4973950000000 1.0
C      1  0.5017000000000  0.4484400000000  0.5817890000000 1.0
C      1  0.4276290000000  0.5804930000000  0.4183600000000 1.0
C      1  0.5699820000000  0.4699440000000  0.3868500000000 1.0
C      1  0.4182500000000  0.4047450000000  0.4782100000000 1.0
C      1  0.5694210000000  0.4452130000000  0.5613950000000 1.0
C      1  0.4239270000000  0.5235030000000  0.6103210000000 1.0
C      1  0.5718800000000  0.6093600000000  0.5356330000000 1.0
C      1  0.4676720000000  0.4756570000000  0.6107110000000 1.0
C      1  0.5273440000000  0.5839390000000  0.5757080000000 1.0
C      1  0.4674330000000  0.6059070000000  0.4630870000000 1.0
C      1  0.5353790000000  0.5218790000000  0.3838520000000 1.0
C      1  0.4580330000000  0.4169170000000  0.4283350000000 1.0
C      1  0.5364120000000  0.3961690000000  0.5352800000000 1.0
C      1  0.4833730000000  0.4939900000000  0.5940900000000 1.0
C      1  0.5127380000000  0.5793520000000  0.5514910000000 1.0
C      1  0.4872350000000  0.5880840000000  0.4529620000000 1.0
C      1  0.5149400000000  0.5054580000000  0.3966080000000 1.0
C      1  0.4785480000000  0.4175880000000  0.4493080000000 1.0
C      1  0.5166470000000  0.4154980000000  0.5436050000000 1.0
C      1  0.4052560000000  0.5637200000000  0.4586480000000 1.0
C      1  0.5952190000000  0.4989310000000  0.4173400000000 1.0
C      1  0.3992050000000  0.4500450000000  0.4663720000000 1.0
C      1  0.6005130000000  0.4392750000000  0.5258180000000 1.0
C      1  0.3998960000000  0.4903870000000  0.5837020000000 1.0
C      1  0.5980370000000  0.5727760000000  0.5557640000000 1.0
C      1  0.5303020000000  0.5073730000000  0.5491710000000 1.0
C      1  0.4954190000000  0.5252770000000  0.5229770000000 1.0
C      1  0.5052360000000  0.5397480000000  0.4832080000000 1.0
C      1  0.5017060000000  0.5061840000000  0.4548570000000 1.0
C      1  0.4943660000000  0.4699900000000  0.4815490000000 1.0
C      1  0.4853620000000  0.4688550000000  0.5093610000000 1.0
C      1  0.5361430000000  0.4022350000000  0.4422000000000 1.0
C      1  0.4604800000000  0.3971510000000  0.5591640000000 1.0
C      1  0.5384830000000  0.5008320000000  0.6175460000000 1.0
C      1  0.4554660000000  0.5966940000000  0.5579500000000 1.0
C      1  0.5447950000000  0.5960290000000  0.4446500000000 1.0
C      1  0.4575280000000  0.4998540000000  0.3792560000000 1.0
C      1  0.4058440000000  0.5243270000000  0.4873780000000 1.0
C      1  0.5998990000000  0.5134900000000  0.4624140000000 1.0
C      1  0.4063130000000  0.4986260000000  0.4742640000000 1.0
C      1  0.6002820000000  0.4677950000000  0.4876760000000 1.0
C      1  0.3915890000000  0.4770410000000  0.5384080000000 1.0
C      1  0.6190210000000  0.5296950000000  0.5521570000000 1.0
C      1  0.5484440000000  0.4939210000000  0.4314460000000 1.0
C      1  0.4459720000000  0.4451680000000  0.4714860000000 1.0
C      1  0.5548000000000  0.4451230000000  0.5361980000000 1.0
C      1  0.4444360000000  0.4979400000000  0.5660270000000 1.0
C      1  0.5572560000000  0.5559570000000  0.5345430000000 1.0
C      1  0.4520540000000  0.5548860000000  0.4608730000000 1.0
C      1  0.4367360000000  0.5173980000000  0.3885570000000 1.0
C      1  0.5591720000000  0.4141010000000  0.4306460000000 1.0
C      1  0.4355670000000  0.3946680000000  0.5451350000000 1.0
C      1  0.5639020000000  0.4878250000000  0.6143330000000 1.0
C      1  0.4330970000000  0.5796140000000  0.5638970000000 1.0
C      1  0.5672350000000  0.5934260000000  0.4626860000000 1.0
C      1  0.4744810000000  0.6048450000000  0.5110760000000 1.0
C      1  0.5283590000000  0.5630890000000  0.4101240000000 1.0
C      1  0.4709900000000  0.4560150000000  0.4024190000000 1.0
C      1  0.5239850000000  0.3969110000000  0.4890430000000 1.0
C      1  0.4762020000000  0.4367570000000  0.5850040000000 1.0
C      1  0.5212110000000  0.5421150000000  0.5977920000000 1.0
C      1  0.4494500000000  0.4400000000000  0.4132560000000 1.0
C      1  0.5452100000000  0.3939070000000  0.5079850000000 1.0
C      1  0.4569780000000  0.4511540000000  0.6003140000000 1.0
C      1  0.5386620000000  0.5638050000000  0.5922850000000 1.0
C      1  0.4555070000000  0.6059620000000  0.4893370000000 1.0
C      1  0.5467110000000  0.5452190000000  0.3969440000000 1.0
C      1  0.4735570000000  0.4017840000000  0.4771280000000 1.0
C      1  0.5243040000000  0.4334980000000  0.5731000000000 1.0
C      1  0.4744780000000  0.5233370000000  0.5963260000000 1.0
C      1  0.5219970000000  0.5959780000000  0.5269490000000 1.0
C      1  0.4799530000000  0.5727070000000  0.4216370000000 1.0
C      1  0.5193450000000  0.4704670000000  0.4003540000000 1.0
C      1  0.5193650000000  0.4811200000000  0.5517040000000 1.0
C      1  0.4811550000000  0.5282170000000  0.5464480000000 1.0
C      1  0.5216450000000  0.5609400000000  0.4927980000000 1.0
C      1  0.4892770000000  0.5234880000000  0.4370450000000 1.0
C      1  0.5139240000000  0.4565940000000  0.4598600000000 1.0
C      1  0.4796970000000  0.4407110000000  0.5123540000000 1.0
C      1  0.4960700000000  0.4191520000000  0.5212350000000 1.0
C      1  0.5019640000000  0.4770710000000  0.5753610000000 1.0
C      1  0.4919890000000  0.5510580000000  0.5611740000000 1.0
C      1  0.5081340000000  0.5848240000000  0.4818910000000 1.0
C      1  0.4982300000000  0.5264680000000  0.4105660000000 1.0
C      1  0.4979640000000  0.4399070000000  0.4401290000000 1.0
C      1  0.5277990000000  0.5020190000000  0.5006350000000 1.0
END
