TITL C-3623285-6872-1804 -87926.323296873 125000 -765.319553385798 0 0 125 (C1) n - 1
REM
REM in /home/nfs/bkarasulu/CARBON/AIRSS/Generating-Clusters/LCBOP/Higher-Symm/SD-CG/FIRE-CG
REM
REM
REM
REM
REM
REM ./C.cell (b20cbc046b6831c77cfcea5457e17084)
REM AIRSS Version 0.9.1 bugfix July 2018 build 013d7b7c2542+ Fri, 06 Jul 2018 19:26:36 +0100
REM compiler GCC version 9.2.1 20190827 (Red Hat 9.2.1-1)
REM options -cpp -mtune=generic -march=x86-64 -g -O0 -fpre-include=/usr/include/finclude/math-vector-fortran.h
REM seed 1790756451 -1554341086 1346816348 -798235085 -305131292 489677376 1596275628 -1245847981 66594611 697636097 -1562671008 1099862823 1359669706 -1269910459 1742580904 -567721556 1952753695 -1355728962 -1620183299 -335050448 1037599654 -1532883330 490129809 -1101778107 953935219 909282658 1041173232 334260367 -1974316500 -1484702397 -529242880 -40292468 -1608822518
REM
CELL 1.54180   50.00000   50.00000   50.00000   90.00000   90.00000   90.00000
LATT -1
SFAC C  
C      1  0.5105140000000  0.5207380000000  0.4492600000000 1.0
C      1  0.5159390000000  0.4514740000000  0.5066290000000 1.0
C      1  0.5135550000000  0.5324990000000  0.5414060000000 1.0
C      1  0.4783690000000  0.5281510000000  0.5954220000000 1.0
C      1  0.4829170000000  0.5661190000000  0.4296290000000 1.0
C      1  0.4846690000000  0.4094100000000  0.4771130000000 1.0
C      1  0.4598530000000  0.4522410000000  0.4315990000000 1.0
C      1  0.4523020000000  0.4672680000000  0.5795120000000 1.0
C      1  0.4636410000000  0.5806340000000  0.4915670000000 1.0
C      1  0.5247780000000  0.4603900000000  0.3988050000000 1.0
C      1  0.5203320000000  0.4414270000000  0.5968400000000 1.0
C      1  0.5274510000000  0.6018810000000  0.5127640000000 1.0
C      1  0.4818890000000  0.5897950000000  0.5364070000000 1.0
C      1  0.4787160000000  0.4868460000000  0.4014160000000 1.0
C      1  0.4806310000000  0.4272460000000  0.5626110000000 1.0
C      1  0.5751100000000  0.5180080000000  0.4189380000000 1.0
C      1  0.5760270000000  0.4359290000000  0.5202500000000 1.0
C      1  0.5755160000000  0.5526870000000  0.5461030000000 1.0
C      1  0.5885730000000  0.4553780000000  0.5372120000000 1.0
C      1  0.5949880000000  0.5529470000000  0.5205600000000 1.0
C      1  0.5941920000000  0.4963110000000  0.4298550000000 1.0
C      1  0.5470840000000  0.3998790000000  0.4633460000000 1.0
C      1  0.5399970000000  0.5159810000000  0.6092340000000 1.0
C      1  0.5429050000000  0.5859830000000  0.4170970000000 1.0
C      1  0.4193210000000  0.4401490000000  0.4929770000000 1.0
C      1  0.4152330000000  0.5282280000000  0.5551100000000 1.0
C      1  0.4194040000000  0.5373540000000  0.4524130000000 1.0
C      1  0.4441480000000  0.5599390000000  0.5349150000000 1.0
C      1  0.4428860000000  0.5021410000000  0.4300110000000 1.0
C      1  0.4431510000000  0.4401560000000  0.5346680000000 1.0
C      1  0.5664770000000  0.5067740000000  0.4688540000000 1.0
C      1  0.5758640000000  0.4935080000000  0.4917660000000 1.0
C      1  0.5702880000000  0.5091390000000  0.5145180000000 1.0
C      1  0.5586520000000  0.5626090000000  0.4971520000000 1.0
C      1  0.5599870000000  0.4681940000000  0.4365530000000 1.0
C      1  0.5557570000000  0.4628510000000  0.5700980000000 1.0
C      1  0.5382610000000  0.4398860000000  0.4911920000000 1.0
C      1  0.5349610000000  0.5273510000000  0.5613900000000 1.0
C      1  0.5367820000000  0.5423240000000  0.4394120000000 1.0
C      1  0.4338430000000  0.5170160000000  0.5730110000000 1.0
C      1  0.4387220000000  0.5576520000000  0.4503930000000 1.0
C      1  0.4391010000000  0.4295760000000  0.4759490000000 1.0
C      1  0.4229990000000  0.5405520000000  0.5307010000000 1.0
C      1  0.4237040000000  0.5092450000000  0.4506320000000 1.0
C      1  0.4231810000000  0.4535350000000  0.5178650000000 1.0
C      1  0.4849280000000  0.4705840000000  0.4717950000000 1.0
C      1  0.4855490000000  0.4951880000000  0.5534950000000 1.0
C      1  0.4825150000000  0.5341840000000  0.4910340000000 1.0
C      1  0.4585240000000  0.5577600000000  0.5614160000000 1.0
C      1  0.4580940000000  0.5255070000000  0.4185030000000 1.0
C      1  0.4608720000000  0.4203210000000  0.5197430000000 1.0
C      1  0.5323690000000  0.5769300000000  0.5686340000000 1.0
C      1  0.5294330000000  0.5209690000000  0.3911900000000 1.0
C      1  0.5353640000000  0.4031170000000  0.5329350000000 1.0
C      1  0.3907860000000  0.5442080000000  0.4955410000000 1.0
C      1  0.3918800000000  0.4754820000000  0.4630310000000 1.0
C      1  0.3897900000000  0.4814220000000  0.5384350000000 1.0
C      1  0.5391050000000  0.4490950000000  0.5509530000000 1.0
C      1  0.5500210000000  0.5384980000000  0.5094270000000 1.0
C      1  0.5488770000000  0.4911370000000  0.4497930000000 1.0
C      1  0.5204120000000  0.4628080000000  0.5341780000000 1.0
C      1  0.5220760000000  0.5349110000000  0.5125560000000 1.0
C      1  0.5203980000000  0.4919930000000  0.4532490000000 1.0
C      1  0.5029350000000  0.5432580000000  0.5916460000000 1.0
C      1  0.5032990000000  0.5574290000000  0.4114990000000 1.0
C      1  0.5077230000000  0.4038100000000  0.4931380000000 1.0
C      1  0.4584910000000  0.5517590000000  0.4304290000000 1.0
C      1  0.4604620000000  0.4167150000000  0.4906730000000 1.0
C      1  0.4556740000000  0.5351760000000  0.5791050000000 1.0
C      1  0.5461750000000  0.4573870000000  0.4148260000000 1.0
C      1  0.5432770000000  0.4562800000000  0.5948670000000 1.0
C      1  0.5463850000000  0.5873280000000  0.5006060000000 1.0
C      1  0.4699310000000  0.4707750000000  0.5131410000000 1.0
C      1  0.4726640000000  0.5199770000000  0.5142110000000 1.0
C      1  0.4706250000000  0.4951440000000  0.4738490000000 1.0
C      1  0.5762490000000  0.4758130000000  0.5536730000000 1.0
C      1  0.5858290000000  0.5547080000000  0.4911830000000 1.0
C      1  0.5872310000000  0.4711590000000  0.4455380000000 1.0
C      1  0.4799600000000  0.5157610000000  0.4016750000000 1.0
C      1  0.4845920000000  0.4136380000000  0.5363870000000 1.0
C      1  0.4820360000000  0.5752770000000  0.5613650000000 1.0
C      1  0.5775210000000  0.5333700000000  0.4646330000000 1.0
C      1  0.5815090000000  0.4670320000000  0.4811810000000 1.0
C      1  0.5734580000000  0.5027160000000  0.5425560000000 1.0
C      1  0.5216660000000  0.5053970000000  0.5065270000000 1.0
C      1  0.5200690000000  0.4926940000000  0.4829910000000 1.0
C      1  0.5309500000000  0.4893450000000  0.5272220000000 1.0
C      1  0.4899810000000  0.4580640000000  0.4968550000000 1.0
C      1  0.4873540000000  0.5192880000000  0.5392710000000 1.0
C      1  0.4846820000000  0.5198870000000  0.4661270000000 1.0
C      1  0.5555100000000  0.5155350000000  0.3976800000000 1.0
C      1  0.5606860000000  0.4133590000000  0.5302210000000 1.0
C      1  0.5573650000000  0.5732580000000  0.5573110000000 1.0
C      1  0.4969340000000  0.4711540000000  0.5502960000000 1.0
C      1  0.5032560000000  0.5529380000000  0.4956630000000 1.0
C      1  0.5017340000000  0.4675070000000  0.4487640000000 1.0
C      1  0.4899130000000  0.4194600000000  0.4505660000000 1.0
C      1  0.4786750000000  0.5015130000000  0.6059230000000 1.0
C      1  0.4925480000000  0.5789280000000  0.4535770000000 1.0
C      1  0.5083220000000  0.4037150000000  0.5225860000000 1.0
C      1  0.5052890000000  0.5684120000000  0.5765060000000 1.0
C      1  0.5032270000000  0.5317840000000  0.3976010000000 1.0
C      1  0.5665440000000  0.4462580000000  0.4947730000000 1.0
C      1  0.5634760000000  0.5266320000000  0.5550810000000 1.0
C      1  0.5660530000000  0.5381750000000  0.4388670000000 1.0
C      1  0.5042710000000  0.6032280000000  0.5261590000000 1.0
C      1  0.5006510000000  0.4710210000000  0.3935500000000 1.0
C      1  0.4996960000000  0.4297710000000  0.5836310000000 1.0
C      1  0.5265960000000  0.5275790000000  0.5886250000000 1.0
C      1  0.5287480000000  0.5633650000000  0.4222430000000 1.0
C      1  0.5320620000000  0.4137110000000  0.4813400000000 1.0
C      1  0.4097920000000  0.4791310000000  0.5195620000000 1.0
C      1  0.4103040000000  0.5288710000000  0.5076540000000 1.0
C      1  0.4105580000000  0.4940270000000  0.4711540000000 1.0
C      1  0.4437730000000  0.5752270000000  0.4720110000000 1.0
C      1  0.4417040000000  0.4391780000000  0.4492730000000 1.0
C      1  0.4343760000000  0.4887390000000  0.5744440000000 1.0
C      1  0.4879120000000  0.4445610000000  0.4367460000000 1.0
C      1  0.4708280000000  0.4761450000000  0.5996960000000 1.0
C      1  0.4911670000000  0.5761720000000  0.4819400000000 1.0
C      1  0.4567810000000  0.4780470000000  0.4194850000000 1.0
C      1  0.4560660000000  0.4448140000000  0.5613330000000 1.0
C      1  0.4599020000000  0.5796000000000  0.5196610000000 1.0
C      1  0.4621870000000  0.4960540000000  0.5026210000000 1.0
C      1  0.4121780000000  0.5006470000000  0.4996670000000 1.0
END
