TITL C-3623286-7563-1672 -55842.1154359463 125000 -292.617669440594 0 0 52 (C2) n - 1
REM
REM in /home/nfs/bkarasulu/CARBON/AIRSS/Generating-Clusters/LCBOP/Higher-Symm/SD-CG/FIRE-CG
REM
REM
REM
REM
REM
REM ./C.cell (b20cbc046b6831c77cfcea5457e17084)
REM AIRSS Version 0.9.1 bugfix July 2018 build 013d7b7c2542+ Fri, 06 Jul 2018 19:26:36 +0100
REM compiler GCC version 9.2.1 20190827 (Red Hat 9.2.1-1)
REM options -cpp -mtune=generic -march=x86-64 -g -O0 -fpre-include=/usr/include/finclude/math-vector-fortran.h
REM seed -1509092398 1642257263 -1110197554 769226400 -587666271 -5485521 -2119708578 1844186711 732116694 -1628299068 -986081192 642091948 -2105388024 1722798809 -56731972 636126227 -899887133 1425970696 551756441 -590559333 1181316247 225561912 1134953425 -458088489 -998187896 -1624898780 -1521813807 -2064959366 -32006097 -1435413469 74644848 1730712060 608494900
REM
CELL 1.54180   50.00000   50.00000   50.00000   90.00000   90.00000   90.00000
LATT -1
SFAC C  
C      1  0.4459550000000  0.4911780000000  0.5291860000000 1.0
C      1  0.5301450000000  0.4463210000000  0.4903500000000 1.0
C      1  0.4918980000000  0.5276340000000  0.4455150000000 1.0
C      1  0.4527400000000  0.5067710000000  0.4734490000000 1.0
C      1  0.5528700000000  0.5080890000000  0.5291930000000 1.0
C      1  0.5460920000000  0.4925060000000  0.4734520000000 1.0
C      1  0.5260390000000  0.5456900000000  0.5072440000000 1.0
C      1  0.4686850000000  0.5529520000000  0.4903570000000 1.0
C      1  0.4727890000000  0.4535810000000  0.5072320000000 1.0
C      1  0.4903770000000  0.4725250000000  0.5504280000000 1.0
C      1  0.5069360000000  0.4716470000000  0.4455110000000 1.0
C      1  0.5084460000000  0.5267370000000  0.5504340000000 1.0
C      1  0.4784400000000  0.5627330000000  0.5182360000000 1.0
C      1  0.5174260000000  0.4791270000000  0.5610960000000 1.0
C      1  0.5576220000000  0.5184310000000  0.4811670000000 1.0
C      1  0.4801350000000  0.4439530000000  0.4806850000000 1.0
C      1  0.5203860000000  0.4365350000000  0.5182250000000 1.0
C      1  0.5186960000000  0.5553240000000  0.4806950000000 1.0
C      1  0.5190680000000  0.5188610000000  0.4377440000000 1.0
C      1  0.4813960000000  0.5201330000000  0.5610980000000 1.0
C      1  0.4797690000000  0.4804230000000  0.4377390000000 1.0
C      1  0.5625590000000  0.4805240000000  0.5218960000000 1.0
C      1  0.4412070000000  0.4808460000000  0.4811590000000 1.0
C      1  0.4362670000000  0.5187440000000  0.5218930000000 1.0
C      1  0.4981790000000  0.4581430000000  0.5244910000000 1.0
C      1  0.5276050000000  0.4927300000000  0.4485750000000 1.0
C      1  0.4552360000000  0.5260020000000  0.4989080000000 1.0
C      1  0.4932400000000  0.5405970000000  0.4728780000000 1.0
C      1  0.5006470000000  0.5411240000000  0.5244990000000 1.0
C      1  0.5055910000000  0.4586800000000  0.4728720000000 1.0
C      1  0.5249710000000  0.5012270000000  0.5403000000000 1.0
C      1  0.4712290000000  0.5065510000000  0.4485730000000 1.0
C      1  0.4738530000000  0.4980370000000  0.5402970000000 1.0
C      1  0.4492660000000  0.4716520000000  0.5077250000000 1.0
C      1  0.5435930000000  0.4732700000000  0.4989080000000 1.0
C      1  0.5495610000000  0.5276190000000  0.5077360000000 1.0
C      1  0.5386900000000  0.5382630000000  0.4350750000000 1.0
C      1  0.4344440000000  0.5383980000000  0.5412490000000 1.0
C      1  0.5386400000000  0.4338810000000  0.5386770000000 1.0
C      1  0.5366810000000  0.4598130000000  0.5646590000000 1.0
C      1  0.4601400000000  0.4610180000000  0.4350680000000 1.0
C      1  0.4621370000000  0.5394420000000  0.5646640000000 1.0
C      1  0.4352200000000  0.4626730000000  0.4613460000000 1.0
C      1  0.5643820000000  0.4608640000000  0.5412450000000 1.0
C      1  0.5636080000000  0.5366090000000  0.4613650000000 1.0
C      1  0.5365890000000  0.5627380000000  0.4616530000000 1.0
C      1  0.4601860000000  0.5653900000000  0.5386820000000 1.0
C      1  0.4622440000000  0.4365380000000  0.4616350000000 1.0
C      1  0.5018520000000  0.4862270000000  0.4881710000000 1.0
C      1  0.4825490000000  0.5163420000000  0.5135340000000 1.0
C      1  0.4969780000000  0.5130470000000  0.4881730000000 1.0
C      1  0.5162780000000  0.4829270000000  0.5135320000000 1.0
END
