TITL C-3623288-6813-1269 129847.4038823 125000 -1214.3790868995 0 0 198 (C1) n - 1
REM
REM in /home/nfs/bkarasulu/CARBON/AIRSS/Generating-Clusters/LCBOP/Higher-Symm/SD-CG/FIRE-CG
REM
REM
REM
REM
REM
REM ./C.cell (b20cbc046b6831c77cfcea5457e17084)
REM AIRSS Version 0.9.1 bugfix July 2018 build 013d7b7c2542+ Fri, 06 Jul 2018 19:26:36 +0100
REM compiler GCC version 9.2.1 20190827 (Red Hat 9.2.1-1)
REM options -cpp -mtune=generic -march=x86-64 -g -O0 -fpre-include=/usr/include/finclude/math-vector-fortran.h
REM seed -852038319 784123173 1574231514 524553740 -524155523 1408445658 451780165 457374681 -1409336909 -114638908 -2059946007 1970910616 490760847 -1378674430 1796861838 -1518277239 -199227063 1956934106 -431082471 2135527390 67940716 199716474 250124631 -553370863 -1028570226 -228565876 -1998432199 91710243 -314145777 734572737 -169512080 1864881674 2036665281
REM
CELL 1.54180   50.00000   50.00000   50.00000   90.00000   90.00000   90.00000
LATT -1
SFAC C  
C      1  0.5284780000000  0.4258430000000  0.5770900000000 1.0
C      1  0.5272380000000  0.4191370000000  0.4252670000000 1.0
C      1  0.5279610000000  0.5767580000000  0.4215990000000 1.0
C      1  0.5276500000000  0.5801040000000  0.5724160000000 1.0
C      1  0.4713220000000  0.5758920000000  0.5815510000000 1.0
C      1  0.4710690000000  0.5783340000000  0.4256010000000 1.0
C      1  0.4706240000000  0.4249510000000  0.4171250000000 1.0
C      1  0.4714040000000  0.4207860000000  0.5770170000000 1.0
C      1  0.4267790000000  0.5787690000000  0.4529060000000 1.0
C      1  0.4286160000000  0.5452170000000  0.5807890000000 1.0
C      1  0.4295170000000  0.4240490000000  0.5448060000000 1.0
C      1  0.4278220000000  0.4559760000000  0.4189360000000 1.0
C      1  0.5715100000000  0.4194400000000  0.4531910000000 1.0
C      1  0.5719820000000  0.4556250000000  0.5780110000000 1.0
C      1  0.5719560000000  0.5814080000000  0.5448170000000 1.0
C      1  0.5705640000000  0.5466860000000  0.4223160000000 1.0
C      1  0.5369530000000  0.4957200000000  0.5256330000000 1.0
C      1  0.5382930000000  0.4725440000000  0.5091670000000 1.0
C      1  0.5399900000000  0.4830440000000  0.4818090000000 1.0
C      1  0.5283860000000  0.5224630000000  0.4887090000000 1.0
C      1  0.4650940000000  0.4940810000000  0.5251910000000 1.0
C      1  0.4619280000000  0.5217130000000  0.5167010000000 1.0
C      1  0.4724680000000  0.4973280000000  0.4737230000000 1.0
C      1  0.4675630000000  0.4802630000000  0.4983850000000 1.0
C      1  0.5320290000000  0.4987840000000  0.4260740000000 1.0
C      1  0.5274700000000  0.5777180000000  0.5018970000000 1.0
C      1  0.5320340000000  0.5004700000000  0.5762690000000 1.0
C      1  0.5275550000000  0.4180320000000  0.4978970000000 1.0
C      1  0.4695850000000  0.5006660000000  0.4195110000000 1.0
C      1  0.4652960000000  0.4245650000000  0.4971620000000 1.0
C      1  0.4695320000000  0.4990810000000  0.5847420000000 1.0
C      1  0.4660080000000  0.5753960000000  0.4996700000000 1.0
C      1  0.4440130000000  0.5792170000000  0.4325830000000 1.0
C      1  0.4449430000000  0.5661840000000  0.5837240000000 1.0
C      1  0.4452480000000  0.4221070000000  0.5664080000000 1.0
C      1  0.4443140000000  0.4351360000000  0.4155330000000 1.0
C      1  0.5539900000000  0.4168930000000  0.4332720000000 1.0
C      1  0.5550020000000  0.4350490000000  0.5766790000000 1.0
C      1  0.5544570000000  0.5828210000000  0.5648870000000 1.0
C      1  0.5546840000000  0.5681130000000  0.4211310000000 1.0
C      1  0.5994210000000  0.5977420000000  0.4557080000000 1.0
C      1  0.5987370000000  0.5462570000000  0.5954920000000 1.0
C      1  0.6022030000000  0.4048530000000  0.5465980000000 1.0
C      1  0.5954320000000  0.4569730000000  0.4045920000000 1.0
C      1  0.4022750000000  0.4054620000000  0.4551460000000 1.0
C      1  0.3979660000000  0.4546170000000  0.5960170000000 1.0
C      1  0.4061640000000  0.5957280000000  0.5432380000000 1.0
C      1  0.3980750000000  0.5452260000000  0.4029220000000 1.0
C      1  0.3931640000000  0.4695610000000  0.5444600000000 1.0
C      1  0.3947270000000  0.4572470000000  0.4688210000000 1.0
C      1  0.3913740000000  0.5317520000000  0.4546800000000 1.0
C      1  0.3974140000000  0.5439700000000  0.5298530000000 1.0
C      1  0.6055540000000  0.5321520000000  0.5437840000000 1.0
C      1  0.6066580000000  0.5459450000000  0.4689360000000 1.0
C      1  0.6028760000000  0.4702590000000  0.4565920000000 1.0
C      1  0.6062130000000  0.4564300000000  0.5314460000000 1.0
C      1  0.3628210000000  0.5256660000000  0.5023340000000 1.0
C      1  0.3647650000000  0.4995080000000  0.5215840000000 1.0
C      1  0.3645610000000  0.4799730000000  0.4982980000000 1.0
C      1  0.3635150000000  0.5010550000000  0.4780150000000 1.0
C      1  0.6356100000000  0.4756600000000  0.5001530000000 1.0
C      1  0.6357520000000  0.5031290000000  0.5212360000000 1.0
C      1  0.6349410000000  0.5216740000000  0.4986000000000 1.0
C      1  0.6347880000000  0.4994710000000  0.4778480000000 1.0
C      1  0.5126530000000  0.4132210000000  0.5237250000000 1.0
C      1  0.5174300000000  0.4736890000000  0.4167950000000 1.0
C      1  0.5143560000000  0.5858570000000  0.4755740000000 1.0
C      1  0.5176490000000  0.5259530000000  0.5837090000000 1.0
C      1  0.4796230000000  0.5851430000000  0.5262840000000 1.0
C      1  0.4847670000000  0.5253230000000  0.4155530000000 1.0
C      1  0.4798730000000  0.4170540000000  0.4719280000000 1.0
C      1  0.4843720000000  0.4736180000000  0.5910640000000 1.0
C      1  0.4021800000000  0.5697840000000  0.5396450000000 1.0
C      1  0.3934340000000  0.4590820000000  0.5702930000000 1.0
C      1  0.3974170000000  0.4312330000000  0.4589130000000 1.0
C      1  0.3925760000000  0.5416230000000  0.4285940000000 1.0
C      1  0.6062000000000  0.4307190000000  0.5424280000000 1.0
C      1  0.6035940000000  0.5423880000000  0.5697320000000 1.0
C      1  0.6047280000000  0.5720170000000  0.4592000000000 1.0
C      1  0.5997870000000  0.4605560000000  0.4304790000000 1.0
C      1  0.4158720000000  0.3547130000000  0.4535350000000 1.0
C      1  0.4166470000000  0.5464970000000  0.3537590000000 1.0
C      1  0.4139860000000  0.6475700000000  0.5468940000000 1.0
C      1  0.4158570000000  0.4529150000000  0.6453930000000 1.0
C      1  0.5831330000000  0.6476840000000  0.4536060000000 1.0
C      1  0.5843470000000  0.4530260000000  0.3533640000000 1.0
C      1  0.5843870000000  0.3554390000000  0.5467770000000 1.0
C      1  0.5831100000000  0.5463840000000  0.6456690000000 1.0
C      1  0.5939350000000  0.3796850000000  0.5475500000000 1.0
C      1  0.5893590000000  0.4548760000000  0.3788800000000 1.0
C      1  0.5910890000000  0.6228690000000  0.4543720000000 1.0
C      1  0.5909410000000  0.5470440000000  0.6208130000000 1.0
C      1  0.4107180000000  0.6217630000000  0.5451870000000 1.0
C      1  0.4072550000000  0.5463250000000  0.3780780000000 1.0
C      1  0.4093670000000  0.3799560000000  0.4538790000000 1.0
C      1  0.4064880000000  0.4530080000000  0.6210650000000 1.0
C      1  0.5064380000000  0.3652190000000  0.4764190000000 1.0
C      1  0.5129360000000  0.5256870000000  0.3657440000000 1.0
C      1  0.5082460000000  0.6355100000000  0.5230720000000 1.0
C      1  0.5168710000000  0.4760910000000  0.6338180000000 1.0
C      1  0.4855090000000  0.6352870000000  0.4750910000000 1.0
C      1  0.4924670000000  0.4764250000000  0.3640760000000 1.0
C      1  0.4861250000000  0.3649750000000  0.5258060000000 1.0
C      1  0.4953010000000  0.5250770000000  0.6354610000000 1.0
C      1  0.4455800000000  0.4856210000000  0.5452420000000 1.0
C      1  0.4395930000000  0.4723760000000  0.4939650000000 1.0
C      1  0.4481680000000  0.5069060000000  0.4615510000000 1.0
C      1  0.4400360000000  0.5292530000000  0.5009630000000 1.0
C      1  0.5607300000000  0.5068300000000  0.5329710000000 1.0
C      1  0.5521220000000  0.5364920000000  0.4948980000000 1.0
C      1  0.5613650000000  0.4961390000000  0.4712780000000 1.0
C      1  0.5569140000000  0.4511330000000  0.5158720000000 1.0
C      1  0.4881910000000  0.5210470000000  0.5782350000000 1.0
C      1  0.4842760000000  0.4240070000000  0.5212840000000 1.0
C      1  0.4874480000000  0.4776660000000  0.4231920000000 1.0
C      1  0.4871100000000  0.5724150000000  0.4781750000000 1.0
C      1  0.5100360000000  0.4772750000000  0.5744860000000 1.0
C      1  0.5068520000000  0.5717240000000  0.5230320000000 1.0
C      1  0.5127430000000  0.5214990000000  0.4264450000000 1.0
C      1  0.5087390000000  0.4267060000000  0.4760680000000 1.0
C      1  0.5134280000000  0.5067970000000  0.5318860000000 1.0
C      1  0.5124320000000  0.4594690000000  0.5088680000000 1.0
C      1  0.5180970000000  0.4767610000000  0.4663660000000 1.0
C      1  0.5019100000000  0.5301070000000  0.4894000000000 1.0
C      1  0.4919220000000  0.4914500000000  0.5365340000000 1.0
C      1  0.4870030000000  0.5326760000000  0.5119970000000 1.0
C      1  0.4981360000000  0.4961280000000  0.4640340000000 1.0
C      1  0.4887030000000  0.4619830000000  0.5001350000000 1.0
C      1  0.4986890000000  0.4674110000000  0.5493590000000 1.0
C      1  0.5079460000000  0.4511940000000  0.4606000000000 1.0
C      1  0.5126100000000  0.5409180000000  0.4471480000000 1.0
C      1  0.4989180000000  0.5456390000000  0.5331440000000 1.0
C      1  0.4842500000000  0.5393810000000  0.5567190000000 1.0
C      1  0.4944930000000  0.5463890000000  0.4681400000000 1.0
C      1  0.4842850000000  0.4577820000000  0.4442480000000 1.0
C      1  0.4859660000000  0.4461110000000  0.5382390000000 1.0
C      1  0.4881220000000  0.5990010000000  0.4376990000000 1.0
C      1  0.4914680000000  0.5636480000000  0.5998540000000 1.0
C      1  0.4890070000000  0.4007570000000  0.5640240000000 1.0
C      1  0.4907480000000  0.4368800000000  0.3986960000000 1.0
C      1  0.5078180000000  0.3999960000000  0.4367110000000 1.0
C      1  0.5120780000000  0.4364120000000  0.5993600000000 1.0
C      1  0.5086500000000  0.5998160000000  0.5615570000000 1.0
C      1  0.5103040000000  0.5639840000000  0.4015090000000 1.0
C      1  0.4875830000000  0.5482110000000  0.6236070000000 1.0
C      1  0.4816200000000  0.3774220000000  0.5493950000000 1.0
C      1  0.4860780000000  0.4528510000000  0.3755830000000 1.0
C      1  0.4803020000000  0.6220900000000  0.4521890000000 1.0
C      1  0.5211020000000  0.4523790000000  0.6213630000000 1.0
C      1  0.5146130000000  0.6227270000000  0.5458930000000 1.0
C      1  0.5176570000000  0.5490500000000  0.3784370000000 1.0
C      1  0.5129430000000  0.3772810000000  0.4531350000000 1.0
C      1  0.5154080000000  0.5898350000000  0.4448080000000 1.0
C      1  0.5173880000000  0.5568850000000  0.5866760000000 1.0
C      1  0.5153590000000  0.4115670000000  0.5550280000000 1.0
C      1  0.5170940000000  0.4428850000000  0.4114450000000 1.0
C      1  0.4806680000000  0.4113390000000  0.4413400000000 1.0
C      1  0.4838660000000  0.4426690000000  0.5922360000000 1.0
C      1  0.4808720000000  0.5897830000000  0.5572600000000 1.0
C      1  0.4838340000000  0.5558920000000  0.4120500000000 1.0
C      1  0.3980960000000  0.4534280000000  0.5207670000000 1.0
C      1  0.3996710000000  0.4808200000000  0.4517000000000 1.0
C      1  0.3972390000000  0.5484110000000  0.4779300000000 1.0
C      1  0.4021350000000  0.5202300000000  0.5468510000000 1.0
C      1  0.5997980000000  0.5488690000000  0.5200800000000 1.0
C      1  0.6010240000000  0.5224850000000  0.4524240000000 1.0
C      1  0.5974050000000  0.4527730000000  0.4799660000000 1.0
C      1  0.6021740000000  0.4802910000000  0.5478810000000 1.0
C      1  0.5555180000000  0.4289060000000  0.4981760000000 1.0
C      1  0.5576910000000  0.5037280000000  0.4429420000000 1.0
C      1  0.5531630000000  0.5630850000000  0.5041520000000 1.0
C      1  0.5602160000000  0.5002290000000  0.5620820000000 1.0
C      1  0.4413190000000  0.5581380000000  0.4945690000000 1.0
C      1  0.4443560000000  0.4990000000000  0.4347470000000 1.0
C      1  0.4404730000000  0.4429360000000  0.5003870000000 1.0
C      1  0.4437340000000  0.4999730000000  0.5697320000000 1.0
C      1  0.6150090000000  0.5418170000000  0.4961400000000 1.0
C      1  0.6153510000000  0.5050110000000  0.5403450000000 1.0
C      1  0.6131960000000  0.4592130000000  0.5037100000000 1.0
C      1  0.6135350000000  0.4972510000000  0.4594960000000 1.0
C      1  0.3849660000000  0.4606700000000  0.4959700000000 1.0
C      1  0.3859530000000  0.4969590000000  0.5403440000000 1.0
C      1  0.3853090000000  0.5419720000000  0.5034710000000 1.0
C      1  0.3838170000000  0.5043530000000  0.4586950000000 1.0
C      1  0.5802760000000  0.4799820000000  0.5667860000000 1.0
C      1  0.5765120000000  0.4316330000000  0.4780320000000 1.0
C      1  0.5777040000000  0.5231450000000  0.4356380000000 1.0
C      1  0.5766270000000  0.5671670000000  0.5210090000000 1.0
C      1  0.4231210000000  0.5207130000000  0.5678610000000 1.0
C      1  0.4202700000000  0.5653800000000  0.4765410000000 1.0
C      1  0.4221100000000  0.4801980000000  0.4324430000000 1.0
C      1  0.4212190000000  0.4366030000000  0.5210050000000 1.0
C      1  0.5029710000000  0.5010590000000  0.3614960000000 1.0
C      1  0.4966670000000  0.6393440000000  0.4991650000000 1.0
C      1  0.4958600000000  0.3615830000000  0.5009160000000 1.0
C      1  0.5066610000000  0.5007220000000  0.6381130000000 1.0
C      1  0.4302860000000  0.5057790000000  0.4844530000000 1.0
C      1  0.5705840000000  0.5158450000000  0.4994880000000 1.0
END
