TITL C-3623285-6872-1796 -3.69232298389245e-08 125000 -250.522303930619 0 0 47 (C3h) n - 1
REM
REM in /home/nfs/bkarasulu/CARBON/AIRSS/Generating-Clusters/LCBOP/Higher-Symm/SD-CG/FIRE-CG
REM
REM
REM
REM
REM
REM ./C.cell (b20cbc046b6831c77cfcea5457e17084)
REM AIRSS Version 0.9.1 bugfix July 2018 build 013d7b7c2542+ Fri, 06 Jul 2018 19:26:36 +0100
REM compiler GCC version 9.2.1 20190827 (Red Hat 9.2.1-1)
REM options -cpp -mtune=generic -march=x86-64 -g -O0 -fpre-include=/usr/include/finclude/math-vector-fortran.h
REM seed -645779280 -531504774 1167025033 -1486463043 -441482314 -679951245 1869632197 771829421 202978711 1746044162 -90330961 524062577 -339515554 -808605065 120514382 912075986 -308270854 -1924215660 612431433 906041879 -1526659213 -480247367 -1776028107 -274519057 2055572228 -1670491162 -723285732 -1601789301 -357976879 -798917347 618302247 577700393 1323095015
REM
CELL 1.54180   50.00000   50.00000   50.00000   90.00000   90.00000   90.00000
LATT -1
SFAC C  
C      1  0.5700790000000  0.5136850000000  0.4819450000000 1.0
C      1  0.4500140000000  0.5137030000000  0.4481600000000 1.0
C      1  0.4807880000000  0.5137200000000  0.5690320000000 1.0
C      1  0.5700730000000  0.4848730000000  0.4819510000000 1.0
C      1  0.4500080000000  0.4848910000000  0.4481660000000 1.0
C      1  0.4807820000000  0.4849080000000  0.5690380000000 1.0
C      1  0.5250120000000  0.4451050000000  0.4836250000000 1.0
C      1  0.4739700000000  0.4451160000000  0.4863570000000 1.0
C      1  0.5018570000000  0.4451190000000  0.5291950000000 1.0
C      1  0.5250340000000  0.5534720000000  0.4836040000000 1.0
C      1  0.4739920000000  0.5534820000000  0.4863370000000 1.0
C      1  0.5018790000000  0.5534850000000  0.5291740000000 1.0
C      1  0.4533790000000  0.5528980000000  0.5301020000000 1.0
C      1  0.5500870000000  0.5528770000000  0.5251420000000 1.0
C      1  0.4974380000000  0.5528720000000  0.4438710000000 1.0
C      1  0.4533580000000  0.4457260000000  0.5301230000000 1.0
C      1  0.5500650000000  0.4457050000000  0.5251630000000 1.0
C      1  0.4974160000000  0.4457000000000  0.4438910000000 1.0
C      1  0.5271220000000  0.4850900000000  0.5109530000000 1.0
C      1  0.4966000000000  0.4850890000000  0.4708610000000 1.0
C      1  0.4771410000000  0.4851020000000  0.5173400000000 1.0
C      1  0.5271280000000  0.5134960000000  0.5109480000000 1.0
C      1  0.4966060000000  0.5134950000000  0.4708560000000 1.0
C      1  0.4771460000000  0.5135070000000  0.5173350000000 1.0
C      1  0.4546400000000  0.5257040000000  0.5304780000000 1.0
C      1  0.5497700000000  0.5256830000000  0.5238660000000 1.0
C      1  0.4964780000000  0.5256790000000  0.4447870000000 1.0
C      1  0.4546290000000  0.4729200000000  0.5304890000000 1.0
C      1  0.5497590000000  0.4728990000000  0.5238760000000 1.0
C      1  0.4964670000000  0.4728950000000  0.4447970000000 1.0
C      1  0.5030250000000  0.4732520000000  0.5527190000000 1.0
C      1  0.5448130000000  0.4732280000000  0.4708480000000 1.0
C      1  0.4530170000000  0.4732480000000  0.4755940000000 1.0
C      1  0.5030360000000  0.5253600000000  0.5527090000000 1.0
C      1  0.5448240000000  0.5253360000000  0.4708380000000 1.0
C      1  0.4530280000000  0.5253550000000  0.4755840000000 1.0
C      1  0.5257070000000  0.4378440000000  0.5127710000000 1.0
C      1  0.4988600000000  0.4378410000000  0.4711830000000 1.0
C      1  0.4762680000000  0.4378550000000  0.5152280000000 1.0
C      1  0.5257320000000  0.5607440000000  0.5127470000000 1.0
C      1  0.4988840000000  0.5607410000000  0.4711600000000 1.0
C      1  0.4762930000000  0.5607540000000  0.5152040000000 1.0
C      1  0.5199580000000  0.4993020000000  0.5512540000000 1.0
C      1  0.5350910000000  0.4992810000000  0.4569130000000 1.0
C      1  0.4458230000000  0.4993060000000  0.4909790000000 1.0
C      1  0.5002950000000  0.5209680000000  0.4997110000000 1.0
C      1  0.5002860000000  0.4776250000000  0.4997200000000 1.0
END
