TITL C-3623285-6872-551 -4.10940143545766e-07 125000 -198.241557768015 0 0 35 (S4) n - 1
REM
REM in /home/nfs/bkarasulu/CARBON/AIRSS/Generating-Clusters/LCBOP/Higher-Symm/SD-CG/FIRE-CG
REM
REM
REM
REM
REM
REM ./C.cell (b20cbc046b6831c77cfcea5457e17084)
REM AIRSS Version 0.9.1 bugfix July 2018 build 013d7b7c2542+ Fri, 06 Jul 2018 19:26:36 +0100
REM compiler GCC version 9.2.1 20190827 (Red Hat 9.2.1-1)
REM options -cpp -mtune=generic -march=x86-64 -g -O0 -fpre-include=/usr/include/finclude/math-vector-fortran.h
REM seed 1253381797 -2072294293 -1720655093 -1420786625 -548230760 2021109138 -1145731966 -354074659 1665792121 -891883748 -1863741887 -2051615405 1646253098 -1227387645 -1390096034 1890801482 2086461504 728943717 -1466972387 -1104326253 -1452712038 -1515183517 1642387134 -252063462 -2022723541 -644671186 -1540462983 401526085 -1423480899 -18414926 704933685 416083126 2066605039
REM
CELL 1.54180   50.00000   50.00000   50.00000   90.00000   90.00000   90.00000
LATT -1
SFAC C  
C      1  0.5386800000000  0.4863710000000  0.5729410000000 1.0
C      1  0.4265690000000  0.5120350000000  0.5390290000000 1.0
C      1  0.4604840000000  0.4863570000000  0.4269220000000 1.0
C      1  0.5725880000000  0.5120540000000  0.4608330000000 1.0
C      1  0.4722360000000  0.4504900000000  0.5305660000000 1.0
C      1  0.4689400000000  0.5479110000000  0.4725790000000 1.0
C      1  0.5269390000000  0.4504970000000  0.4692990000000 1.0
C      1  0.5302070000000  0.5479200000000  0.5272820000000 1.0
C      1  0.4564600000000  0.4669610000000  0.5125070000000 1.0
C      1  0.4870010000000  0.5314400000000  0.4568060000000 1.0
C      1  0.5427100000000  0.4669730000000  0.4873570000000 1.0
C      1  0.5121510000000  0.5314450000000  0.5430560000000 1.0
C      1  0.4855860000000  0.5421340000000  0.5469440000000 1.0
C      1  0.4525740000000  0.4562670000000  0.4859440000000 1.0
C      1  0.5135620000000  0.5421360000000  0.4529180000000 1.0
C      1  0.5466000000000  0.4562810000000  0.5139200000000 1.0
C      1  0.4743970000000  0.5456090000000  0.5004550000000 1.0
C      1  0.4990630000000  0.4527960000000  0.4747560000000 1.0
C      1  0.5247500000000  0.5456160000000  0.4994070000000 1.0
C      1  0.5001110000000  0.4527970000000  0.5251090000000 1.0
C      1  0.4508190000000  0.5149670000000  0.5269890000000 1.0
C      1  0.4725250000000  0.4834310000000  0.4511730000000 1.0
C      1  0.5483370000000  0.5149800000000  0.4728740000000 1.0
C      1  0.5266410000000  0.4834400000000  0.5486910000000 1.0
C      1  0.5131800000000  0.5039990000000  0.5352290000000 1.0
C      1  0.4642840000000  0.4944070000000  0.5135320000000 1.0
C      1  0.4859800000000  0.5039940000000  0.4646340000000 1.0
C      1  0.5348780000000  0.4944170000000  0.4863320000000 1.0
C      1  0.5342320000000  0.5397410000000  0.4730480000000 1.0
C      1  0.5264690000000  0.4586770000000  0.5345900000000 1.0
C      1  0.4649170000000  0.5397320000000  0.5268140000000 1.0
C      1  0.4727030000000  0.4586680000000  0.4652750000000 1.0
C      1  0.4995760000000  0.5305470000000  0.4999310000000 1.0
C      1  0.4995850000000  0.4678620000000  0.4999320000000 1.0
C      1  0.4995800000000  0.4992040000000  0.4999320000000 1.0
END
