TITL C-3623282-6910-810 0.348441573441367 125000 -626.374920006368 0 0 102 (C1) n - 1
REM
REM in /home/nfs/bkarasulu/CARBON/AIRSS/Generating-Clusters/LCBOP/Higher-Symm/SD-CG/FIRE-CG
REM
REM
REM
REM
REM
REM ./C.cell (b20cbc046b6831c77cfcea5457e17084)
REM AIRSS Version 0.9.1 bugfix July 2018 build 013d7b7c2542+ Fri, 06 Jul 2018 19:26:36 +0100
REM compiler GCC version 9.2.1 20190827 (Red Hat 9.2.1-1)
REM options -cpp -mtune=generic -march=x86-64 -g -O0 -fpre-include=/usr/include/finclude/math-vector-fortran.h
REM seed -1687075954 -1368016948 1121535338 -1246428477 -274704848 -6640187 -165272213 761933353 -516269508 -1517026136 -1903330701 637640843 227804105 -262284430 -981105546 -2064200648 1204025914 -428226279 -1262676860 -1153122385 1597756774 -2084366712 -952188092 1514783874 242655117 1200817290 322604554 -1005577319 1140397901 -1126396445 169808003 1857214760 1502529849
REM
CELL 1.54180   50.00000   50.00000   50.00000   90.00000   90.00000   90.00000
LATT -1
SFAC C  
C      1  0.3946760000000  0.4215730000000  0.5041400000000 1.0
C      1  0.5168380000000  0.3948400000000  0.4032500000000 1.0
C      1  0.4244840000000  0.4482680000000  0.4319550000000 1.0
C      1  0.4042430000000  0.6002550000000  0.5186640000000 1.0
C      1  0.6067100000000  0.5874770000000  0.4881840000000 1.0
C      1  0.6085480000000  0.4485650000000  0.5146260000000 1.0
C      1  0.5022060000000  0.6067110000000  0.5670330000000 1.0
C      1  0.5182480000000  0.5800850000000  0.3958690000000 1.0
C      1  0.4785850000000  0.3844850000000  0.5505150000000 1.0
C      1  0.4239880000000  0.5192680000000  0.6098280000000 1.0
C      1  0.5629110000000  0.5059530000000  0.3888080000000 1.0
C      1  0.5897210000000  0.4626320000000  0.6041330000000 1.0
C      1  0.6115620000000  0.4664480000000  0.4943070000000 1.0
C      1  0.5176400000000  0.4210650000000  0.3958280000000 1.0
C      1  0.5781700000000  0.4908140000000  0.4055940000000 1.0
C      1  0.6131150000000  0.5779710000000  0.5129330000000 1.0
C      1  0.3957800000000  0.5968370000000  0.4929530000000 1.0
C      1  0.3924520000000  0.4407030000000  0.5234220000000 1.0
C      1  0.5137300000000  0.5904030000000  0.5855690000000 1.0
C      1  0.4912070000000  0.5788740000000  0.3925490000000 1.0
C      1  0.4548460000000  0.3968530000000  0.5555610000000 1.0
C      1  0.5812550000000  0.4807380000000  0.6226810000000 1.0
C      1  0.4171330000000  0.4661770000000  0.4127850000000 1.0
C      1  0.4315510000000  0.4933580000000  0.6135060000000 1.0
C      1  0.5294240000000  0.5739200000000  0.4199480000000 1.0
C      1  0.4336880000000  0.5330560000000  0.5884560000000 1.0
C      1  0.5840900000000  0.4456660000000  0.5261930000000 1.0
C      1  0.4987340000000  0.3986410000000  0.5389170000000 1.0
C      1  0.5179290000000  0.3880510000000  0.4296160000000 1.0
C      1  0.4978110000000  0.5973140000000  0.5418540000000 1.0
C      1  0.4376350000000  0.4567010000000  0.4558040000000 1.0
C      1  0.5744900000000  0.4573040000000  0.5821830000000 1.0
C      1  0.5375370000000  0.5129270000000  0.3958860000000 1.0
C      1  0.5844210000000  0.5785080000000  0.4753150000000 1.0
C      1  0.4250480000000  0.5855340000000  0.5283540000000 1.0
C      1  0.4132720000000  0.4245120000000  0.4844490000000 1.0
C      1  0.4751210000000  0.5715940000000  0.4133060000000 1.0
C      1  0.5574240000000  0.4935390000000  0.6194020000000 1.0
C      1  0.4097030000000  0.4617890000000  0.5233760000000 1.0
C      1  0.4519270000000  0.4231290000000  0.5491080000000 1.0
C      1  0.5196150000000  0.4406250000000  0.4146840000000 1.0
C      1  0.5214770000000  0.5653280000000  0.5783020000000 1.0
C      1  0.5681320000000  0.4825790000000  0.4295560000000 1.0
C      1  0.4487800000000  0.4818890000000  0.5958260000000 1.0
C      1  0.4232560000000  0.4925710000000  0.4155120000000 1.0
C      1  0.4081240000000  0.5787340000000  0.4767240000000 1.0
C      1  0.5972820000000  0.5594150000000  0.5250920000000 1.0
C      1  0.5900100000000  0.4808480000000  0.4860310000000 1.0
C      1  0.5200440000000  0.5584150000000  0.4694620000000 1.0
C      1  0.4592320000000  0.5360940000000  0.5462400000000 1.0
C      1  0.5355310000000  0.4560980000000  0.5309760000000 1.0
C      1  0.5173650000000  0.4393470000000  0.5170590000000 1.0
C      1  0.5197600000000  0.4074080000000  0.4788960000000 1.0
C      1  0.4883950000000  0.5588400000000  0.5123540000000 1.0
C      1  0.4733040000000  0.4896770000000  0.4694420000000 1.0
C      1  0.5298270000000  0.4679960000000  0.5558610000000 1.0
C      1  0.5005700000000  0.5084950000000  0.4328390000000 1.0
C      1  0.5430180000000  0.5454080000000  0.4783850000000 1.0
C      1  0.4612930000000  0.5468710000000  0.5191800000000 1.0
C      1  0.4647130000000  0.4986150000000  0.4951730000000 1.0
C      1  0.4739800000000  0.5575940000000  0.4641730000000 1.0
C      1  0.5144720000000  0.4969680000000  0.5886180000000 1.0
C      1  0.4554150000000  0.4781330000000  0.5126590000000 1.0
C      1  0.4698310000000  0.4674680000000  0.5347290000000 1.0
C      1  0.5226270000000  0.4519150000000  0.4663850000000 1.0
C      1  0.5366470000000  0.5350820000000  0.5422860000000 1.0
C      1  0.5259900000000  0.4816400000000  0.4643900000000 1.0
C      1  0.4792930000000  0.4829640000000  0.5564520000000 1.0
C      1  0.4370600000000  0.5276020000000  0.4493210000000 1.0
C      1  0.4483720000000  0.5433830000000  0.4714200000000 1.0
C      1  0.5530270000000  0.5302650000000  0.5202740000000 1.0
C      1  0.5419730000000  0.4940690000000  0.4868460000000 1.0
C      1  0.5607670000000  0.4602710000000  0.5188950000000 1.0
C      1  0.5143660000000  0.5659580000000  0.4424150000000 1.0
C      1  0.4513470000000  0.5222830000000  0.5689190000000 1.0
C      1  0.5669320000000  0.5593320000000  0.4862770000000 1.0
C      1  0.4387240000000  0.5662490000000  0.5128730000000 1.0
C      1  0.4296910000000  0.4476780000000  0.4813580000000 1.0
C      1  0.4968760000000  0.4259290000000  0.5310070000000 1.0
C      1  0.5197690000000  0.4069610000000  0.4503770000000 1.0
C      1  0.5029990000000  0.5704830000000  0.5335930000000 1.0
C      1  0.4515490000000  0.4816360000000  0.4529910000000 1.0
C      1  0.5497130000000  0.4697670000000  0.5768660000000 1.0
C      1  0.5256110000000  0.5053240000000  0.4202350000000 1.0
C      1  0.4315620000000  0.4643710000000  0.5051960000000 1.0
C      1  0.4849050000000  0.5649850000000  0.4388890000000 1.0
C      1  0.5403740000000  0.4890390000000  0.5974760000000 1.0
C      1  0.4299180000000  0.5629320000000  0.4851940000000 1.0
C      1  0.5738560000000  0.5490610000000  0.5133620000000 1.0
C      1  0.5637620000000  0.4786700000000  0.4969190000000 1.0
C      1  0.4722220000000  0.4393460000000  0.5374460000000 1.0
C      1  0.5210990000000  0.4356020000000  0.4424420000000 1.0
C      1  0.5196540000000  0.5550900000000  0.5517830000000 1.0
C      1  0.5420440000000  0.4889560000000  0.4383970000000 1.0
C      1  0.4600950000000  0.4951890000000  0.5733240000000 1.0
C      1  0.4379220000000  0.5021770000000  0.4377570000000 1.0
C      1  0.5412110000000  0.5211430000000  0.4948180000000 1.0
C      1  0.4573260000000  0.5258460000000  0.4965090000000 1.0
C      1  0.5204340000000  0.4343910000000  0.4895930000000 1.0
C      1  0.4951970000000  0.5586020000000  0.4847340000000 1.0
C      1  0.5063030000000  0.4833750000000  0.5642250000000 1.0
C      1  0.4985550000000  0.4946340000000  0.4581070000000 1.0
END
