TITL C-3623285-6872-940 5.75259616825257 125000 -660.824950530661 0 0 108 (C1) n - 1
REM
REM in /home/nfs/bkarasulu/CARBON/AIRSS/Generating-Clusters/LCBOP/Higher-Symm/SD-CG/FIRE-CG
REM
REM
REM
REM
REM
REM ./C.cell (b20cbc046b6831c77cfcea5457e17084)
REM AIRSS Version 0.9.1 bugfix July 2018 build 013d7b7c2542+ Fri, 06 Jul 2018 19:26:36 +0100
REM compiler GCC version 9.2.1 20190827 (Red Hat 9.2.1-1)
REM options -cpp -mtune=generic -march=x86-64 -g -O0 -fpre-include=/usr/include/finclude/math-vector-fortran.h
REM seed 1076697519 -1601655461 -1062313887 -2123274886 -1380844667 -260538238 390010555 1146344912 -875805564 366532566 -940177880 851773351 1909424210 1942187107 1169258195 1378933470 178422972 -643799330 2039709764 -211925463 -989646810 -1068595983 -1182218014 -1422772557 -1743796763 -633188715 940880731 -1968833597 851684966 1394541085 -1419561805 1644299428 -1370677659
REM
CELL 1.54180   50.00000   50.00000   50.00000   90.00000   90.00000   90.00000
LATT -1
SFAC C  
C      1  0.4989940000000  0.4673040000000  0.5432010000000 1.0
C      1  0.4999920000000  0.4766460000000  0.4576740000000 1.0
C      1  0.5033930000000  0.5516500000000  0.5060650000000 1.0
C      1  0.5420800000000  0.4654420000000  0.5161720000000 1.0
C      1  0.5409160000000  0.5029200000000  0.4644340000000 1.0
C      1  0.5407660000000  0.5255170000000  0.5262130000000 1.0
C      1  0.4180310000000  0.5511310000000  0.4260370000000 1.0
C      1  0.4196920000000  0.5686940000000  0.5783490000000 1.0
C      1  0.4475520000000  0.3605490000000  0.5096320000000 1.0
C      1  0.4637850000000  0.3815080000000  0.5103290000000 1.0
C      1  0.4438980000000  0.5464060000000  0.4223830000000 1.0
C      1  0.4439600000000  0.5580660000000  0.5800660000000 1.0
C      1  0.5714460000000  0.5704230000000  0.4692520000000 1.0
C      1  0.5649550000000  0.4983090000000  0.5822320000000 1.0
C      1  0.5729100000000  0.4399300000000  0.4625490000000 1.0
C      1  0.5831880000000  0.5154760000000  0.6252570000000 1.0
C      1  0.5623810000000  0.3953800000000  0.4537580000000 1.0
C      1  0.5685890000000  0.6019390000000  0.4302740000000 1.0
C      1  0.5482810000000  0.4334820000000  0.4770010000000 1.0
C      1  0.5519140000000  0.5511580000000  0.4636320000000 1.0
C      1  0.5396180000000  0.5066570000000  0.5733140000000 1.0
C      1  0.5877980000000  0.5409780000000  0.6151510000000 1.0
C      1  0.5443650000000  0.4048090000000  0.4741620000000 1.0
C      1  0.5408120000000  0.6016250000000  0.4288210000000 1.0
C      1  0.3653510000000  0.5822200000000  0.5028150000000 1.0
C      1  0.3478550000000  0.5445830000000  0.5291000000000 1.0
C      1  0.3749110000000  0.3489270000000  0.4522880000000 1.0
C      1  0.5806430000000  0.4176230000000  0.4467150000000 1.0
C      1  0.5835790000000  0.5859840000000  0.4492090000000 1.0
C      1  0.5719170000000  0.4943200000000  0.6090300000000 1.0
C      1  0.4910980000000  0.4417590000000  0.5359270000000 1.0
C      1  0.4899990000000  0.4974930000000  0.4423540000000 1.0
C      1  0.4913300000000  0.5550020000000  0.5307760000000 1.0
C      1  0.3757980000000  0.5593570000000  0.4559660000000 1.0
C      1  0.3766860000000  0.5768030000000  0.5499640000000 1.0
C      1  0.4065170000000  0.3348440000000  0.4904170000000 1.0
C      1  0.4774780000000  0.4041200000000  0.5083760000000 1.0
C      1  0.4686680000000  0.5383140000000  0.4274730000000 1.0
C      1  0.4667200000000  0.5472300000000  0.5717460000000 1.0
C      1  0.5747340000000  0.4640690000000  0.6479900000000 1.0
C      1  0.6024770000000  0.3880180000000  0.4146570000000 1.0
C      1  0.6254510000000  0.6024690000000  0.4285950000000 1.0
C      1  0.3588450000000  0.4967450000000  0.5448360000000 1.0
C      1  0.3814080000000  0.3931610000000  0.4267400000000 1.0
C      1  0.3946930000000  0.6251700000000  0.4967790000000 1.0
C      1  0.5677220000000  0.5347620000000  0.5307100000000 1.0
C      1  0.5706480000000  0.4655930000000  0.5206030000000 1.0
C      1  0.5631830000000  0.5014090000000  0.4464130000000 1.0
C      1  0.4864830000000  0.4539510000000  0.4680510000000 1.0
C      1  0.4924890000000  0.5576670000000  0.4804620000000 1.0
C      1  0.4823800000000  0.4879960000000  0.5536420000000 1.0
C      1  0.4197070000000  0.6287770000000  0.4885620000000 1.0
C      1  0.3792160000000  0.4824720000000  0.5541230000000 1.0
C      1  0.3978060000000  0.4140390000000  0.4262820000000 1.0
C      1  0.3619550000000  0.5687050000000  0.5275250000000 1.0
C      1  0.3872680000000  0.3363240000000  0.4721630000000 1.0
C      1  0.3650120000000  0.5681600000000  0.4785810000000 1.0
C      1  0.5683800000000  0.4692140000000  0.6220350000000 1.0
C      1  0.6000760000000  0.4121710000000  0.4270500000000 1.0
C      1  0.6119680000000  0.5871290000000  0.4465710000000 1.0
C      1  0.4563210000000  0.4843590000000  0.5622650000000 1.0
C      1  0.4625260000000  0.4441720000000  0.4582020000000 1.0
C      1  0.4765400000000  0.5795440000000  0.4747840000000 1.0
C      1  0.4907900000000  0.6025850000000  0.4130180000000 1.0
C      1  0.5933770000000  0.5850210000000  0.5870760000000 1.0
C      1  0.5259280000000  0.3679770000000  0.5078480000000 1.0
C      1  0.4042090000000  0.4770290000000  0.5611880000000 1.0
C      1  0.4183800000000  0.4293040000000  0.4331950000000 1.0
C      1  0.4434090000000  0.6197980000000  0.4806450000000 1.0
C      1  0.5908870000000  0.5636690000000  0.6018240000000 1.0
C      1  0.5314900000000  0.3875920000000  0.4915920000000 1.0
C      1  0.5151240000000  0.6016620000000  0.4223260000000 1.0
C      1  0.5244910000000  0.4782520000000  0.5348130000000 1.0
C      1  0.5260120000000  0.4794100000000  0.4702240000000 1.0
C      1  0.5266620000000  0.5344290000000  0.5030920000000 1.0
C      1  0.3728790000000  0.3696950000000  0.4358240000000 1.0
C      1  0.3745820000000  0.6086810000000  0.5023320000000 1.0
C      1  0.3473090000000  0.5188180000000  0.5355930000000 1.0
C      1  0.5849010000000  0.4856520000000  0.4545670000000 1.0
C      1  0.5765220000000  0.5585030000000  0.5188320000000 1.0
C      1  0.5817630000000  0.4714400000000  0.5457580000000 1.0
C      1  0.5019170000000  0.4428910000000  0.4898300000000 1.0
C      1  0.5042220000000  0.5392860000000  0.4613050000000 1.0
C      1  0.4967420000000  0.5130060000000  0.5525170000000 1.0
C      1  0.5320850000000  0.5305290000000  0.4726190000000 1.0
C      1  0.5267860000000  0.5072210000000  0.5460560000000 1.0
C      1  0.5310020000000  0.4551250000000  0.4895530000000 1.0
C      1  0.5864230000000  0.4630150000000  0.4708380000000 1.0
C      1  0.5791130000000  0.5722320000000  0.4961600000000 1.0
C      1  0.5828970000000  0.4953820000000  0.5604060000000 1.0
C      1  0.3944020000000  0.5544590000000  0.4376680000000 1.0
C      1  0.3965280000000  0.5759060000000  0.5675710000000 1.0
C      1  0.4278870000000  0.3438900000000  0.5033200000000 1.0
C      1  0.5892870000000  0.5085170000000  0.6522030000000 1.0
C      1  0.5662630000000  0.3711140000000  0.4399170000000 1.0
C      1  0.5841640000000  0.6177200000000  0.4123380000000 1.0
C      1  0.5881750000000  0.4658320000000  0.4986360000000 1.0
C      1  0.5625060000000  0.5130560000000  0.4217060000000 1.0
C      1  0.5859600000000  0.5189600000000  0.5452020000000 1.0
C      1  0.4402590000000  0.4386010000000  0.4449520000000 1.0
C      1  0.4622580000000  0.6018630000000  0.4754550000000 1.0
C      1  0.4304740000000  0.4788820000000  0.5644000000000 1.0
C      1  0.6113480000000  0.6180410000000  0.4112770000000 1.0
C      1  0.5853190000000  0.4839740000000  0.6632670000000 1.0
C      1  0.5856190000000  0.3675600000000  0.4210630000000 1.0
C      1  0.4905420000000  0.4285110000000  0.5112820000000 1.0
C      1  0.4886330000000  0.5254820000000  0.4421730000000 1.0
C      1  0.4853220000000  0.5387760000000  0.5528080000000 1.0
END
