TITL C-3623282-6910-72 9234.84706509987 125000 -844.172943983042 0 0 138 (C1) n - 1
REM
REM in /home/nfs/bkarasulu/CARBON/AIRSS/Generating-Clusters/LCBOP/Higher-Symm/SD-CG/FIRE-CG
REM
REM
REM
REM
REM
REM ./C.cell (b20cbc046b6831c77cfcea5457e17084)
REM AIRSS Version 0.9.1 bugfix July 2018 build 013d7b7c2542+ Fri, 06 Jul 2018 19:26:36 +0100
REM compiler GCC version 9.2.1 20190827 (Red Hat 9.2.1-1)
REM options -cpp -mtune=generic -march=x86-64 -g -O0 -fpre-include=/usr/include/finclude/math-vector-fortran.h
REM seed 539047427 787007319 -211307557 1196108278 -202819996 -414277127 62259412 -140756943 1135532485 -65051237 -1332651897 1843141624 88125039 -655662293 -643747431 -2051966071 1720176408 -203726887 -954688012 -810674236 1621124304 -1625118359 1431621144 -654257909 1803135806 -1944859287 610969321 -2117746091 -1952241264 1836880440 -87314763 -221506511 1006738196
REM
CELL 1.54180   50.00000   50.00000   50.00000   90.00000   90.00000   90.00000
LATT -1
SFAC C  
C      1  0.4863430000000  0.4678480000000  0.4572720000000 1.0
C      1  0.5357080000000  0.4676270000000  0.4881850000000 1.0
C      1  0.5169270000000  0.4676600000000  0.5490210000000 1.0
C      1  0.4545880000000  0.4681180000000  0.5082260000000 1.0
C      1  0.5163380000000  0.5305430000000  0.4537710000000 1.0
C      1  0.4526040000000  0.5359030000000  0.4870530000000 1.0
C      1  0.4851350000000  0.5406370000000  0.5411710000000 1.0
C      1  0.5380740000000  0.5319530000000  0.5156910000000 1.0
C      1  0.4720980000000  0.4964230000000  0.5504810000000 1.0
C      1  0.4435050000000  0.4964030000000  0.4646710000000 1.0
C      1  0.5430730000000  0.4964340000000  0.4347160000000 1.0
C      1  0.5614150000000  0.4979620000000  0.5437590000000 1.0
C      1  0.5445540000000  0.5029540000000  0.5658510000000 1.0
C      1  0.5590000000000  0.5000780000000  0.4572470000000 1.0
C      1  0.4587290000000  0.5005990000000  0.4383320000000 1.0
C      1  0.4478570000000  0.5064940000000  0.5322790000000 1.0
C      1  0.5096680000000  0.5119940000000  0.4058760000000 1.0
C      1  0.5871720000000  0.5208230000000  0.5113120000000 1.0
C      1  0.4877010000000  0.5233160000000  0.5893450000000 1.0
C      1  0.4058030000000  0.5210180000000  0.4862320000000 1.0
C      1  0.4878150000000  0.4707020000000  0.4088470000000 1.0
C      1  0.4069650000000  0.4861050000000  0.5135620000000 1.0
C      1  0.5117600000000  0.4868830000000  0.5960070000000 1.0
C      1  0.5870820000000  0.4833180000000  0.4891000000000 1.0
C      1  0.4441840000000  0.4407960000000  0.4120260000000 1.0
C      1  0.5910720000000  0.4466520000000  0.4466600000000 1.0
C      1  0.5531140000000  0.4398150000000  0.5916640000000 1.0
C      1  0.4137340000000  0.4404560000000  0.5524500000000 1.0
C      1  0.5530210000000  0.5597450000000  0.4089910000000 1.0
C      1  0.4106280000000  0.5599960000000  0.4451110000000 1.0
C      1  0.4475350000000  0.5594640000000  0.5882380000000 1.0
C      1  0.5907730000000  0.5540030000000  0.5546190000000 1.0
C      1  0.5826590000000  0.4292740000000  0.4657020000000 1.0
C      1  0.5334630000000  0.4229630000000  0.5831050000000 1.0
C      1  0.4209580000000  0.4222020000000  0.5338040000000 1.0
C      1  0.4642260000000  0.4233910000000  0.4181990000000 1.0
C      1  0.4181720000000  0.5782800000000  0.4638340000000 1.0
C      1  0.4659960000000  0.5781700000000  0.5816880000000 1.0
C      1  0.5829140000000  0.5715930000000  0.5353340000000 1.0
C      1  0.5334590000000  0.5768460000000  0.4167680000000 1.0
C      1  0.5780880000000  0.4748720000000  0.5368860000000 1.0
C      1  0.4700560000000  0.4760780000000  0.5725290000000 1.0
C      1  0.4231840000000  0.4736010000000  0.4682770000000 1.0
C      1  0.5352000000000  0.4735340000000  0.4187090000000 1.0
C      1  0.4245350000000  0.5277700000000  0.5318170000000 1.0
C      1  0.5357480000000  0.5266320000000  0.5813550000000 1.0
C      1  0.5764820000000  0.5227750000000  0.4641640000000 1.0
C      1  0.4653250000000  0.5252730000000  0.4240060000000 1.0
C      1  0.5278980000000  0.4309870000000  0.4488120000000 1.0
C      1  0.5515840000000  0.4322870000000  0.5288840000000 1.0
C      1  0.4756290000000  0.4337420000000  0.5444730000000 1.0
C      1  0.4539960000000  0.4306600000000  0.4740040000000 1.0
C      1  0.4750210000000  0.5675150000000  0.4545680000000 1.0
C      1  0.4480990000000  0.5747710000000  0.5272670000000 1.0
C      1  0.5272590000000  0.5694840000000  0.5528630000000 1.0
C      1  0.5503750000000  0.5662190000000  0.4728640000000 1.0
C      1  0.5841800000000  0.5158430000000  0.4087010000000 1.0
C      1  0.5924050000000  0.5088000000000  0.5843050000000 1.0
C      1  0.4223320000000  0.5119940000000  0.5865620000000 1.0
C      1  0.4094260000000  0.5125730000000  0.4192070000000 1.0
C      1  0.4163620000000  0.4871660000000  0.4122700000000 1.0
C      1  0.4150110000000  0.4870110000000  0.5792050000000 1.0
C      1  0.5841260000000  0.4841040000000  0.5924360000000 1.0
C      1  0.5927100000000  0.4913910000000  0.4168420000000 1.0
C      1  0.5947030000000  0.4677810000000  0.4300580000000 1.0
C      1  0.5704580000000  0.4606230000000  0.5946880000000 1.0
C      1  0.4119540000000  0.4625700000000  0.5679860000000 1.0
C      1  0.4281960000000  0.4627530000000  0.4099250000000 1.0
C      1  0.4076690000000  0.5375100000000  0.4299980000000 1.0
C      1  0.4329670000000  0.5366790000000  0.5896690000000 1.0
C      1  0.5941920000000  0.5325970000000  0.5711180000000 1.0
C      1  0.5703340000000  0.5390480000000  0.4063620000000 1.0
C      1  0.4679890000000  0.4484850000000  0.5671860000000 1.0
C      1  0.4316050000000  0.4464420000000  0.4667030000000 1.0
C      1  0.5368870000000  0.4469200000000  0.4274600000000 1.0
C      1  0.5736510000000  0.4469000000000  0.5387460000000 1.0
C      1  0.5352170000000  0.5543560000000  0.5754870000000 1.0
C      1  0.5727220000000  0.5507270000000  0.4650590000000 1.0
C      1  0.4643900000000  0.5516200000000  0.4340360000000 1.0
C      1  0.4281350000000  0.5558270000000  0.5339050000000 1.0
C      1  0.4908400000000  0.5246940000000  0.5176360000000 1.0
C      1  0.4643280000000  0.5159350000000  0.5065950000000 1.0
C      1  0.5074010000000  0.5144690000000  0.4750560000000 1.0
C      1  0.5143910000000  0.5235440000000  0.5020060000000 1.0
C      1  0.5005280000000  0.4814380000000  0.5307260000000 1.0
C      1  0.5104980000000  0.4778840000000  0.5028130000000 1.0
C      1  0.4926180000000  0.4880350000000  0.4788660000000 1.0
C      1  0.4643610000000  0.4908110000000  0.4892610000000 1.0
C      1  0.4027520000000  0.4810310000000  0.4860070000000 1.0
C      1  0.5125310000000  0.4829170000000  0.4026980000000 1.0
C      1  0.5949380000000  0.4806290000000  0.5154520000000 1.0
C      1  0.4838760000000  0.4838010000000  0.5953890000000 1.0
C      1  0.5922220000000  0.5122310000000  0.4853220000000 1.0
C      1  0.4839530000000  0.5226080000000  0.4026520000000 1.0
C      1  0.4043540000000  0.5160860000000  0.5142450000000 1.0
C      1  0.5138610000000  0.5168670000000  0.5975390000000 1.0
C      1  0.5265750000000  0.4810420000000  0.5719320000000 1.0
C      1  0.4333680000000  0.4809310000000  0.5233450000000 1.0
C      1  0.4756370000000  0.4778210000000  0.4332860000000 1.0
C      1  0.5597950000000  0.4799380000000  0.4785810000000 1.0
C      1  0.4806230000000  0.5232420000000  0.5627480000000 1.0
C      1  0.5619110000000  0.5182420000000  0.5234130000000 1.0
C      1  0.5244010000000  0.5178950000000  0.4299270000000 1.0
C      1  0.4307430000000  0.5226840000000  0.4740610000000 1.0
C      1  0.5058030000000  0.3941370000000  0.4720760000000 1.0
C      1  0.5248300000000  0.3992330000000  0.5032270000000 1.0
C      1  0.5003310000000  0.3993860000000  0.5200780000000 1.0
C      1  0.4805000000000  0.3960920000000  0.4972580000000 1.0
C      1  0.5003370000000  0.6023030000000  0.4782990000000 1.0
C      1  0.4750240000000  0.6079710000000  0.5030420000000 1.0
C      1  0.5058170000000  0.6027430000000  0.5230210000000 1.0
C      1  0.5229450000000  0.5989630000000  0.4986570000000 1.0
C      1  0.5690490000000  0.4168580000000  0.4856090000000 1.0
C      1  0.5137520000000  0.4121530000000  0.5675740000000 1.0
C      1  0.4346050000000  0.4097220000000  0.5139810000000 1.0
C      1  0.4863250000000  0.4117550000000  0.4290840000000 1.0
C      1  0.4304650000000  0.5917000000000  0.4840910000000 1.0
C      1  0.4862370000000  0.5906680000000  0.5686620000000 1.0
C      1  0.5690360000000  0.5835850000000  0.5151170000000 1.0
C      1  0.5135920000000  0.5882110000000  0.4314110000000 1.0
C      1  0.5496120000000  0.4137420000000  0.5065950000000 1.0
C      1  0.4954390000000  0.4126120000000  0.5450720000000 1.0
C      1  0.4548090000000  0.4089510000000  0.4935980000000 1.0
C      1  0.5083910000000  0.4088070000000  0.4475260000000 1.0
C      1  0.4488510000000  0.5954690000000  0.5060350000000 1.0
C      1  0.5076320000000  0.5907360000000  0.5494970000000 1.0
C      1  0.5484310000000  0.5852720000000  0.4947510000000 1.0
C      1  0.4950140000000  0.5887170000000  0.4533630000000 1.0
C      1  0.4676770000000  0.4466110000000  0.5205180000000 1.0
C      1  0.4791240000000  0.4430300000000  0.4694710000000 1.0
C      1  0.5268380000000  0.4434600000000  0.4750360000000 1.0
C      1  0.5283570000000  0.4444650000000  0.5386780000000 1.0
C      1  0.5342850000000  0.5561360000000  0.5292850000000 1.0
C      1  0.5270130000000  0.5551170000000  0.4618960000000 1.0
C      1  0.4700550000000  0.5569350000000  0.4802660000000 1.0
C      1  0.4747180000000  0.5638390000000  0.5290720000000 1.0
C      1  0.4850740000000  0.5656920000000  0.5022050000000 1.0
C      1  0.5012870000000  0.4359220000000  0.4852670000000 1.0
END
