TITL C-3623287-7182-520 -7.47260330086085e-07 125000 -971.196601215828 0 0 188 (Th) n - 1
REM
REM in /home/nfs/bkarasulu/CARBON/AIRSS/Generating-Clusters/LCBOP/Higher-Symm/SD-CG/FIRE-CG
REM
REM
REM
REM
REM
REM ./C.cell (b20cbc046b6831c77cfcea5457e17084)
REM AIRSS Version 0.9.1 bugfix July 2018 build 013d7b7c2542+ Fri, 06 Jul 2018 19:26:36 +0100
REM compiler GCC version 9.2.1 20190827 (Red Hat 9.2.1-1)
REM options -cpp -mtune=generic -march=x86-64 -g -O0 -fpre-include=/usr/include/finclude/math-vector-fortran.h
REM seed 630464351 267541494 1720934833 1310912657 884192631 -1062670819 62567941 423583969 -166527750 -727851926 421362949 -1398611897 796977354 1441863826 741898873 -126908934 -22975189 -1860990920 1575039813 850805762 545874441 -1023084375 329562062 -1020740816 -592092119 -1848564098 -1176318527 781913172 -50485081 -1158159144 855134490 403392817 792728074
REM
CELL 1.54180   50.00000   50.00000   50.00000   90.00000   90.00000   90.00000
LATT -1
SFAC C  
C      1  0.5589700000000  0.4753310000000  0.5609810000000 1.0
C      1  0.5611880000000  0.5590100000000  0.4750840000000 1.0
C      1  0.4752910000000  0.5612280000000  0.5587630000000 1.0
C      1  0.4415240000000  0.4753310000000  0.4390990000000 1.0
C      1  0.5589700000000  0.5252430000000  0.4390990000000 1.0
C      1  0.4415240000000  0.5252430000000  0.5609810000000 1.0
C      1  0.4393060000000  0.5590100000000  0.5249960000000 1.0
C      1  0.5611880000000  0.4415640000000  0.5249960000000 1.0
C      1  0.4393060000000  0.4415640000000  0.4750840000000 1.0
C      1  0.5252030000000  0.5612280000000  0.4413170000000 1.0
C      1  0.4752900000000  0.4393460000000  0.4413170000000 1.0
C      1  0.5252030000000  0.4393460000000  0.5587630000000 1.0
C      1  0.5589700000000  0.5252430000000  0.5609810000000 1.0
C      1  0.5611880000000  0.4415640000000  0.4750840000000 1.0
C      1  0.4752900000000  0.4393460000000  0.5587630000000 1.0
C      1  0.4415240000000  0.5252430000000  0.4390990000000 1.0
C      1  0.5589700000000  0.4753300000000  0.4390990000000 1.0
C      1  0.4415240000000  0.4753310000000  0.5609810000000 1.0
C      1  0.4393060000000  0.4415640000000  0.5249960000000 1.0
C      1  0.5611880000000  0.5590100000000  0.5249960000000 1.0
C      1  0.4393060000000  0.5590100000000  0.4750840000000 1.0
C      1  0.5252030000000  0.4393460000000  0.4413170000000 1.0
C      1  0.4752910000000  0.5612280000000  0.4413170000000 1.0
C      1  0.5252030000000  0.5612280000000  0.5587630000000 1.0
C      1  0.5579420000000  0.4850910000000  0.4089160000000 1.0
C      1  0.4091230000000  0.5579820000000  0.4848440000000 1.0
C      1  0.4850510000000  0.4091630000000  0.5577360000000 1.0
C      1  0.4425510000000  0.4850910000000  0.5911640000000 1.0
C      1  0.5579420000000  0.5154820000000  0.5911640000000 1.0
C      1  0.4425510000000  0.5154820000000  0.4089160000000 1.0
C      1  0.5913710000000  0.5579820000000  0.5152360000000 1.0
C      1  0.4091230000000  0.4425910000000  0.5152360000000 1.0
C      1  0.5913700000000  0.4425910000000  0.4848440000000 1.0
C      1  0.5154420000000  0.4091630000000  0.4423440000000 1.0
C      1  0.4850510000000  0.5914100000000  0.4423440000000 1.0
C      1  0.5154420000000  0.5914110000000  0.5577360000000 1.0
C      1  0.5579420000000  0.5154820000000  0.4089160000000 1.0
C      1  0.4091230000000  0.4425910000000  0.4848440000000 1.0
C      1  0.4850510000000  0.5914110000000  0.5577360000000 1.0
C      1  0.4425510000000  0.5154820000000  0.5911640000000 1.0
C      1  0.5579420000000  0.4850910000000  0.5911640000000 1.0
C      1  0.4425510000000  0.4850910000000  0.4089160000000 1.0
C      1  0.5913700000000  0.4425910000000  0.5152360000000 1.0
C      1  0.4091230000000  0.5579820000000  0.5152360000000 1.0
C      1  0.5913710000000  0.5579820000000  0.4848440000000 1.0
C      1  0.5154420000000  0.5914100000000  0.4423440000000 1.0
C      1  0.4850510000000  0.4091630000000  0.4423440000000 1.0
C      1  0.5154420000000  0.4091630000000  0.5577360000000 1.0
C      1  0.5290920000000  0.4860480000000  0.5548190000000 1.0
C      1  0.5550260000000  0.5291320000000  0.4858020000000 1.0
C      1  0.4860080000000  0.5550660000000  0.5288850000000 1.0
C      1  0.4714020000000  0.4860480000000  0.4452610000000 1.0
C      1  0.5290920000000  0.5145250000000  0.4452610000000 1.0
C      1  0.4714020000000  0.5145250000000  0.5548190000000 1.0
C      1  0.4454670000000  0.5291320000000  0.5142780000000 1.0
C      1  0.5550260000000  0.4714420000000  0.5142780000000 1.0
C      1  0.4454670000000  0.4714420000000  0.4858020000000 1.0
C      1  0.5144850000000  0.5550660000000  0.4711950000000 1.0
C      1  0.4860080000000  0.4455070000000  0.4711950000000 1.0
C      1  0.5144850000000  0.4455070000000  0.5288850000000 1.0
C      1  0.5290920000000  0.5145250000000  0.5548190000000 1.0
C      1  0.5550260000000  0.4714420000000  0.4858020000000 1.0
C      1  0.4860080000000  0.4455070000000  0.5288850000000 1.0
C      1  0.4714020000000  0.5145250000000  0.4452610000000 1.0
C      1  0.5290920000000  0.4860480000000  0.4452610000000 1.0
C      1  0.4714020000000  0.4860480000000  0.5548190000000 1.0
C      1  0.4454670000000  0.4714420000000  0.5142780000000 1.0
C      1  0.5550260000000  0.5291320000000  0.5142780000000 1.0
C      1  0.4454670000000  0.5291320000000  0.4858020000000 1.0
C      1  0.5144850000000  0.4455070000000  0.4711950000000 1.0
C      1  0.4860080000000  0.5550660000000  0.4711950000000 1.0
C      1  0.5144850000000  0.5550660000000  0.5288850000000 1.0
C      1  0.5462860000000  0.3805980000000  0.4860470000000 1.0
C      1  0.4862530000000  0.5463260000000  0.3803510000000 1.0
C      1  0.3805580000000  0.4862930000000  0.5460800000000 1.0
C      1  0.4542070000000  0.3805980000000  0.5140330000000 1.0
C      1  0.5462870000000  0.6199760000000  0.5140330000000 1.0
C      1  0.4542070000000  0.6199760000000  0.4860470000000 1.0
C      1  0.5142400000000  0.5463260000000  0.6197290000000 1.0
C      1  0.4862530000000  0.4542470000000  0.6197290000000 1.0
C      1  0.5142400000000  0.4542470000000  0.3803510000000 1.0
C      1  0.6199360000000  0.4862930000000  0.4540000000000 1.0
C      1  0.3805580000000  0.5142800000000  0.4540000000000 1.0
C      1  0.6199360000000  0.5142800000000  0.5460800000000 1.0
C      1  0.5462870000000  0.6199760000000  0.4860470000000 1.0
C      1  0.4862530000000  0.4542470000000  0.3803510000000 1.0
C      1  0.3805580000000  0.5142800000000  0.5460800000000 1.0
C      1  0.4542070000000  0.6199760000000  0.5140330000000 1.0
C      1  0.5462860000000  0.3805980000000  0.5140330000000 1.0
C      1  0.4542070000000  0.3805980000000  0.4860470000000 1.0
C      1  0.5142400000000  0.4542470000000  0.6197290000000 1.0
C      1  0.4862530000000  0.5463260000000  0.6197290000000 1.0
C      1  0.5142400000000  0.5463260000000  0.3803510000000 1.0
C      1  0.6199360000000  0.5142800000000  0.4540000000000 1.0
C      1  0.3805580000000  0.4862930000000  0.4540000000000 1.0
C      1  0.6199360000000  0.4862930000000  0.5460800000000 1.0
C      1  0.3993860000000  0.4721280000000  0.4734440000000 1.0
C      1  0.4736500000000  0.3994260000000  0.4718810000000 1.0
C      1  0.4720880000000  0.4736900000000  0.3991790000000 1.0
C      1  0.6011070000000  0.4721270000000  0.5266360000000 1.0
C      1  0.3993860000000  0.5284460000000  0.5266360000000 1.0
C      1  0.6011070000000  0.5284460000000  0.4734440000000 1.0
C      1  0.5268430000000  0.3994260000000  0.5281990000000 1.0
C      1  0.4736500000000  0.6011470000000  0.5281990000000 1.0
C      1  0.5268430000000  0.6011470000000  0.4718810000000 1.0
C      1  0.5284060000000  0.4736900000000  0.6009010000000 1.0
C      1  0.4720880000000  0.5268830000000  0.6009010000000 1.0
C      1  0.5284060000000  0.5268830000000  0.3991790000000 1.0
C      1  0.3993860000000  0.5284460000000  0.4734440000000 1.0
C      1  0.4736500000000  0.6011470000000  0.4718810000000 1.0
C      1  0.4720880000000  0.5268830000000  0.3991790000000 1.0
C      1  0.6011070000000  0.5284460000000  0.5266360000000 1.0
C      1  0.3993860000000  0.4721280000000  0.5266360000000 1.0
C      1  0.6011070000000  0.4721270000000  0.4734440000000 1.0
C      1  0.5268430000000  0.6011470000000  0.5281990000000 1.0
C      1  0.4736500000000  0.3994260000000  0.5281990000000 1.0
C      1  0.5268430000000  0.3994260000000  0.4718810000000 1.0
C      1  0.5284060000000  0.5268830000000  0.6009010000000 1.0
C      1  0.4720880000000  0.4736900000000  0.6009010000000 1.0
C      1  0.5284060000000  0.4736900000000  0.3991790000000 1.0
C      1  0.4855470000000  0.4654570000000  0.5727160000000 1.0
C      1  0.5729230000000  0.4855870000000  0.4652100000000 1.0
C      1  0.4654170000000  0.5729630000000  0.4853400000000 1.0
C      1  0.5149470000000  0.4654570000000  0.4273640000000 1.0
C      1  0.4855470000000  0.5351170000000  0.4273640000000 1.0
C      1  0.5149470000000  0.5351170000000  0.5727160000000 1.0
C      1  0.4275710000000  0.4855870000000  0.5348700000000 1.0
C      1  0.5729230000000  0.5149870000000  0.5348700000000 1.0
C      1  0.4275710000000  0.5149870000000  0.4652100000000 1.0
C      1  0.5350770000000  0.5729630000000  0.5147400000000 1.0
C      1  0.4654170000000  0.4276110000000  0.5147400000000 1.0
C      1  0.5350770000000  0.4276110000000  0.4853400000000 1.0
C      1  0.4855470000000  0.5351170000000  0.5727160000000 1.0
C      1  0.5729230000000  0.5149870000000  0.4652100000000 1.0
C      1  0.4654170000000  0.4276110000000  0.4853400000000 1.0
C      1  0.5149470000000  0.5351170000000  0.4273640000000 1.0
C      1  0.4855470000000  0.4654570000000  0.4273640000000 1.0
C      1  0.5149470000000  0.4654570000000  0.5727160000000 1.0
C      1  0.4275710000000  0.5149870000000  0.5348700000000 1.0
C      1  0.5729230000000  0.4855870000000  0.5348700000000 1.0
C      1  0.4275710000000  0.4855870000000  0.4652100000000 1.0
C      1  0.5350770000000  0.4276110000000  0.5147400000000 1.0
C      1  0.4654170000000  0.5729630000000  0.5147400000000 1.0
C      1  0.5350770000000  0.5729630000000  0.4853400000000 1.0
C      1  0.4399870000000  0.5645780000000  0.4064640000000 1.0
C      1  0.4066710000000  0.4400270000000  0.5643310000000 1.0
C      1  0.5645380000000  0.4067110000000  0.4397800000000 1.0
C      1  0.5605060000000  0.5645780000000  0.5936160000000 1.0
C      1  0.4399870000000  0.4359950000000  0.5936160000000 1.0
C      1  0.5605060000000  0.4359950000000  0.4064640000000 1.0
C      1  0.5938230000000  0.4400270000000  0.4357490000000 1.0
C      1  0.4066710000000  0.5605460000000  0.4357480000000 1.0
C      1  0.5938230000000  0.5605460000000  0.5643310000000 1.0
C      1  0.4359550000000  0.4067110000000  0.5603000000000 1.0
C      1  0.5645380000000  0.5938630000000  0.5603000000000 1.0
C      1  0.4359550000000  0.5938630000000  0.4397800000000 1.0
C      1  0.4399870000000  0.4359950000000  0.4064640000000 1.0
C      1  0.4066710000000  0.5605460000000  0.5643310000000 1.0
C      1  0.5645380000000  0.5938630000000  0.4397800000000 1.0
C      1  0.5605060000000  0.4359950000000  0.5936160000000 1.0
C      1  0.4399870000000  0.5645780000000  0.5936160000000 1.0
C      1  0.5605060000000  0.5645780000000  0.4064640000000 1.0
C      1  0.5938230000000  0.5605460000000  0.4357480000000 1.0
C      1  0.4066710000000  0.4400270000000  0.4357490000000 1.0
C      1  0.5938230000000  0.4400270000000  0.5643320000000 1.0
C      1  0.4359550000000  0.5938630000000  0.5603000000000 1.0
C      1  0.5645380000000  0.4067110000000  0.5603000000000 1.0
C      1  0.4359550000000  0.4067110000000  0.4397800000000 1.0
C      1  0.3918660000000  0.5146420000000  0.5000400000000 1.0
C      1  0.5002470000000  0.3919060000000  0.5143960000000 1.0
C      1  0.5146020000000  0.5002870000000  0.3916600000000 1.0
C      1  0.6086270000000  0.5146420000000  0.5000400000000 1.0
C      1  0.3918660000000  0.4859310000000  0.5000400000000 1.0
C      1  0.6086270000000  0.4859310000000  0.5000400000000 1.0
C      1  0.5002470000000  0.3919060000000  0.4856840000000 1.0
C      1  0.5002470000000  0.6086670000000  0.4856840000000 1.0
C      1  0.5002470000000  0.6086670000000  0.5143960000000 1.0
C      1  0.4858910000000  0.5002870000000  0.6084200000000 1.0
C      1  0.5146020000000  0.5002870000000  0.6084200000000 1.0
C      1  0.4858910000000  0.5002870000000  0.3916600000000 1.0
C      1  0.4416790000000  0.5588540000000  0.4414720000000 1.0
C      1  0.5588140000000  0.4417190000000  0.4414720000000 1.0
C      1  0.4416790000000  0.4417190000000  0.5586080000000 1.0
C      1  0.5588140000000  0.4417190000000  0.5586080000000 1.0
C      1  0.5588140000000  0.5588540000000  0.4414720000000 1.0
C      1  0.4416790000000  0.5588540000000  0.5586080000000 1.0
C      1  0.5588140000000  0.5588540000000  0.5586080000000 1.0
C      1  0.4416790000000  0.4417190000000  0.4414720000000 1.0
END
