TITL C-3623282-6910-1653 1.38789066735638e-08 125000 -271.750389664278 0 0 50 (D2) n - 1
REM
REM in /home/nfs/bkarasulu/CARBON/AIRSS/Generating-Clusters/LCBOP/Higher-Symm/SD-CG/FIRE-CG
REM
REM
REM
REM
REM
REM ./C.cell (b20cbc046b6831c77cfcea5457e17084)
REM AIRSS Version 0.9.1 bugfix July 2018 build 013d7b7c2542+ Fri, 06 Jul 2018 19:26:36 +0100
REM compiler GCC version 9.2.1 20190827 (Red Hat 9.2.1-1)
REM options -cpp -mtune=generic -march=x86-64 -g -O0 -fpre-include=/usr/include/finclude/math-vector-fortran.h
REM seed 2139535906 -490963501 296878682 -1237702349 -1514130472 -959813360 1936998395 1784825166 -1212499075 -1903702256 -1683290018 -1445223394 2066191919 120824362 1665749019 -758085948 1496937136 1767168201 1046864728 1838239003 -716777208 1902538577 -1274873758 1182057574 -480728020 1316363064 -2104225991 1940822581 1556608840 -600483510 -625008815 232267342 -1242494726
REM
CELL 1.54180   50.00000   50.00000   50.00000   90.00000   90.00000   90.00000
LATT -1
SFAC C  
C      1  0.4385620000000  0.4727610000000  0.4909010000000 1.0
C      1  0.5614380000000  0.5272380000000  0.4909010000000 1.0
C      1  0.4385620000000  0.5272380000000  0.5058110000000 1.0
C      1  0.5614380000000  0.4727620000000  0.5058120000000 1.0
C      1  0.5144320000000  0.4963180000000  0.5294420000000 1.0
C      1  0.4855680000000  0.5036830000000  0.5294420000000 1.0
C      1  0.5144320000000  0.5036830000000  0.4672700000000 1.0
C      1  0.4855680000000  0.4963170000000  0.4672700000000 1.0
C      1  0.5370020000000  0.4576660000000  0.5073060000000 1.0
C      1  0.4629980000000  0.5423340000000  0.5073060000000 1.0
C      1  0.5370010000000  0.5423340000000  0.4894060000000 1.0
C      1  0.4629990000000  0.4576650000000  0.4894060000000 1.0
C      1  0.5519240000000  0.4864580000000  0.5535810000000 1.0
C      1  0.4480760000000  0.5135430000000  0.5535810000000 1.0
C      1  0.5519240000000  0.5135430000000  0.4431310000000 1.0
C      1  0.4480760000000  0.4864570000000  0.4431310000000 1.0
C      1  0.4656900000000  0.5958830000000  0.5120590000000 1.0
C      1  0.5343100000000  0.4041170000000  0.5120600000000 1.0
C      1  0.4656920000000  0.4041170000000  0.4846540000000 1.0
C      1  0.5343080000000  0.5958830000000  0.4846520000000 1.0
C      1  0.5229530000000  0.4882340000000  0.5579130000000 1.0
C      1  0.4770470000000  0.5117670000000  0.5579130000000 1.0
C      1  0.5229530000000  0.5117660000000  0.4387990000000 1.0
C      1  0.4770470000000  0.4882330000000  0.4388000000000 1.0
C      1  0.4636120000000  0.4300020000000  0.4868090000000 1.0
C      1  0.5363880000000  0.5699980000000  0.4868080000000 1.0
C      1  0.4636110000000  0.5699980000000  0.5099030000000 1.0
C      1  0.5363890000000  0.4300020000000  0.5099040000000 1.0
C      1  0.5270020000000  0.4753140000000  0.4661380000000 1.0
C      1  0.4729980000000  0.5246850000000  0.4661380000000 1.0
C      1  0.5270020000000  0.5246860000000  0.5305740000000 1.0
C      1  0.4729990000000  0.4753140000000  0.5305750000000 1.0
C      1  0.5320550000000  0.4527900000000  0.4537500000000 1.0
C      1  0.4679450000000  0.5472090000000  0.4537490000000 1.0
C      1  0.5320550000000  0.5472100000000  0.5429630000000 1.0
C      1  0.4679450000000  0.4527900000000  0.5429630000000 1.0
C      1  0.4869590000000  0.5261510000000  0.5080020000000 1.0
C      1  0.5130410000000  0.4738490000000  0.5080020000000 1.0
C      1  0.4869590000000  0.4738490000000  0.4887110000000 1.0
C      1  0.5130410000000  0.5261510000000  0.4887100000000 1.0
C      1  0.5657510000000  0.4914950000000  0.5279940000000 1.0
C      1  0.4342490000000  0.5085050000000  0.5279940000000 1.0
C      1  0.5657510000000  0.5085060000000  0.4687180000000 1.0
C      1  0.4342490000000  0.4914940000000  0.4687190000000 1.0
C      1  0.4286670000000  0.4823420000000  0.5166030000000 1.0
C      1  0.5713330000000  0.5176580000000  0.5166030000000 1.0
C      1  0.4286670000000  0.5176570000000  0.4801100000000 1.0
C      1  0.5713330000000  0.4823430000000  0.4801100000000 1.0
C      1  0.5000000000000  0.4999990000000  0.4234280000000 1.0
C      1  0.5000000000000  0.5000010000000  0.5732840000000 1.0
END
