TITL C-3623284-6838-983 -3.9560244977619e-07 125000 -40.7382685286859 0 0 8 (C2v) n - 1
REM
REM in /home/nfs/bkarasulu/CARBON/AIRSS/Generating-Clusters/LCBOP/Higher-Symm/SD-CG/FIRE-CG
REM
REM
REM
REM
REM
REM ./C.cell (b20cbc046b6831c77cfcea5457e17084)
REM AIRSS Version 0.9.1 bugfix July 2018 build 013d7b7c2542+ Fri, 06 Jul 2018 19:26:36 +0100
REM compiler GCC version 9.2.1 20190827 (Red Hat 9.2.1-1)
REM options -cpp -mtune=generic -march=x86-64 -g -O0 -fpre-include=/usr/include/finclude/math-vector-fortran.h
REM seed 1459665604 1618867622 2043593084 -1220288496 -1448873421 -2041520650 -1735342450 1325334397 212880951 1201153548 -2060481193 1008589054 744418666 70317498 1574817860 -533169546 1145678949 1749565763 -1161414654 -734255707 -1751955806 1848125785 989969835 1789028714 -1718950067 -56793736 -1677595990 1520856347 -1228708929 -365225348 719343441 -1075731078 1258527769
REM
CELL 1.54180   50.00000   50.00000   50.00000   90.00000   90.00000   90.00000
LATT -1
SFAC C  
C      1  0.5294060000000  0.5276270000000  0.5440040000000 1.0
C      1  0.4961070000000  0.5122020000000  0.4575850000000 1.0
C      1  0.5008890000000  0.4972130000000  0.5096880000000 1.0
C      1  0.4938170000000  0.5193810000000  0.4326280000000 1.0
C      1  0.4984350000000  0.5049050000000  0.4829490000000 1.0
C      1  0.5156400000000  0.5129420000000  0.5274490000000 1.0
C      1  0.4771130000000  0.4519380000000  0.5270290000000 1.0
C      1  0.4885920000000  0.4737910000000  0.5186680000000 1.0
END
