TITL C-3623286-7563-985 -7.6841179294333e-07 125000 -786.203400345699 0 0 126 (C1) n - 1
REM
REM in /home/nfs/bkarasulu/CARBON/AIRSS/Generating-Clusters/LCBOP/Higher-Symm/SD-CG/FIRE-CG
REM
REM
REM
REM
REM
REM ./C.cell (b20cbc046b6831c77cfcea5457e17084)
REM AIRSS Version 0.9.1 bugfix July 2018 build 013d7b7c2542+ Fri, 06 Jul 2018 19:26:36 +0100
REM compiler GCC version 9.2.1 20190827 (Red Hat 9.2.1-1)
REM options -cpp -mtune=generic -march=x86-64 -g -O0 -fpre-include=/usr/include/finclude/math-vector-fortran.h
REM seed -1627549023 -1479856004 744891697 112287878 109667484 -1067620321 1855894926 1752774583 -555310704 1326984293 -1375013751 -186368259 -1571894260 819946893 374462575 1681429685 1356741528 -1418293293 -560790492 -45654276 -1281144044 -2047775005 -1493803052 -1182821313 -1867199819 -366695017 -1253741280 516236907 -321522488 -1362371798 -627981864 -2138159915 1228450180
REM
CELL 1.54180   50.00000   50.00000   50.00000   90.00000   90.00000   90.00000
LATT -1
SFAC C  
C      1  0.5790130000000  0.5154540000000  0.5543520000000 1.0
C      1  0.5521340000000  0.4377390000000  0.5554830000000 1.0
C      1  0.4779870000000  0.4262570000000  0.5532040000000 1.0
C      1  0.4206390000000  0.4857270000000  0.5538670000000 1.0
C      1  0.4489280000000  0.5608140000000  0.5546560000000 1.0
C      1  0.5287390000000  0.5751670000000  0.5547510000000 1.0
C      1  0.5824100000000  0.4877410000000  0.4435200000000 1.0
C      1  0.5512640000000  0.5674690000000  0.4429180000000 1.0
C      1  0.4687450000000  0.5758530000000  0.4441640000000 1.0
C      1  0.4163210000000  0.5115590000000  0.4442520000000 1.0
C      1  0.4469910000000  0.4316680000000  0.4433830000000 1.0
C      1  0.5350660000000  0.4212650000000  0.4434490000000 1.0
C      1  0.5039090000000  0.4709940000000  0.4013250000000 1.0
C      1  0.4771990000000  0.4817550000000  0.4008420000000 1.0
C      1  0.4731820000000  0.5103600000000  0.3998750000000 1.0
C      1  0.4960200000000  0.5281540000000  0.3993230000000 1.0
C      1  0.5227190000000  0.5172630000000  0.4000600000000 1.0
C      1  0.5265510000000  0.4887130000000  0.4003560000000 1.0
C      1  0.5030850000000  0.5285240000000  0.5999140000000 1.0
C      1  0.4772490000000  0.5159650000000  0.5996950000000 1.0
C      1  0.4752020000000  0.4873330000000  0.5992690000000 1.0
C      1  0.4990280000000  0.4712920000000  0.6004310000000 1.0
C      1  0.5248820000000  0.4838330000000  0.6002610000000 1.0
C      1  0.5268900000000  0.5124630000000  0.6003130000000 1.0
C      1  0.5538400000000  0.4583590000000  0.5096410000000 1.0
C      1  0.4950560000000  0.4401360000000  0.5074370000000 1.0
C      1  0.4365700000000  0.4782940000000  0.5059200000000 1.0
C      1  0.4522360000000  0.5375770000000  0.5100090000000 1.0
C      1  0.5090140000000  0.5651290000000  0.5096290000000 1.0
C      1  0.5616990000000  0.5290130000000  0.5089590000000 1.0
C      1  0.5488160000000  0.5404580000000  0.4850750000000 1.0
C      1  0.4920500000000  0.5665900000000  0.4879950000000 1.0
C      1  0.4342640000000  0.5306730000000  0.4871370000000 1.0
C      1  0.4358570000000  0.4576300000000  0.4845340000000 1.0
C      1  0.5098520000000  0.4276280000000  0.4857420000000 1.0
C      1  0.5642330000000  0.4709110000000  0.4874440000000 1.0
C      1  0.5443130000000  0.4426970000000  0.5817710000000 1.0
C      1  0.4748570000000  0.4343320000000  0.5797010000000 1.0
C      1  0.4301770000000  0.4909420000000  0.5795450000000 1.0
C      1  0.4577170000000  0.5567270000000  0.5807670000000 1.0
C      1  0.5288410000000  0.5657590000000  0.5809840000000 1.0
C      1  0.5715600000000  0.5092640000000  0.5804660000000 1.0
C      1  0.5402780000000  0.5599790000000  0.4182500000000 1.0
C      1  0.4685010000000  0.5642130000000  0.4187640000000 1.0
C      1  0.4281660000000  0.5046630000000  0.4198970000000 1.0
C      1  0.4596500000000  0.4393530000000  0.4197430000000 1.0
C      1  0.5327490000000  0.4347070000000  0.4190470000000 1.0
C      1  0.5718130000000  0.4945530000000  0.4186730000000 1.0
C      1  0.4579610000000  0.5872410000000  0.5143750000000 1.0
C      1  0.5555430000000  0.5814220000000  0.5135730000000 1.0
C      1  0.5971270000000  0.4942840000000  0.5138100000000 1.0
C      1  0.5432880000000  0.4106770000000  0.5150820000000 1.0
C      1  0.4471710000000  0.4235830000000  0.5154750000000 1.0
C      1  0.3999250000000  0.5091250000000  0.5151810000000 1.0
C      1  0.4534390000000  0.4122940000000  0.4890150000000 1.0
C      1  0.5564510000000  0.4139350000000  0.4887170000000 1.0
C      1  0.5991240000000  0.5052010000000  0.4865890000000 1.0
C      1  0.5456810000000  0.5898440000000  0.4872450000000 1.0
C      1  0.4459760000000  0.5834920000000  0.4878620000000 1.0
C      1  0.3966170000000  0.4972010000000  0.4883350000000 1.0
C      1  0.3908230000000  0.4686760000000  0.4910670000000 1.0
C      1  0.4183550000000  0.5765500000000  0.4894000000000 1.0
C      1  0.5244520000000  0.6088720000000  0.4885470000000 1.0
C      1  0.6052140000000  0.5330930000000  0.4860380000000 1.0
C      1  0.5834850000000  0.4236280000000  0.4908050000000 1.0
C      1  0.4740980000000  0.3925230000000  0.4904380000000 1.0
C      1  0.3957690000000  0.5372710000000  0.5163250000000 1.0
C      1  0.4194710000000  0.4322480000000  0.5180210000000 1.0
C      1  0.5208550000000  0.3927800000000  0.5155650000000 1.0
C      1  0.6034860000000  0.4662770000000  0.5154580000000 1.0
C      1  0.5826730000000  0.5724740000000  0.5129650000000 1.0
C      1  0.4789040000000  0.6066110000000  0.5150020000000 1.0
C      1  0.4547820000000  0.4649060000000  0.4083140000000 1.0
C      1  0.4473760000000  0.5214940000000  0.4074170000000 1.0
C      1  0.4927340000000  0.5562290000000  0.4062230000000 1.0
C      1  0.5452190000000  0.5342160000000  0.4072860000000 1.0
C      1  0.5526120000000  0.4776630000000  0.4064400000000 1.0
C      1  0.5075780000000  0.4431900000000  0.4089200000000 1.0
C      1  0.4537460000000  0.5314830000000  0.5930140000000 1.0
C      1  0.4503160000000  0.4747690000000  0.5912100000000 1.0
C      1  0.4975580000000  0.4430480000000  0.5942270000000 1.0
C      1  0.5483430000000  0.4683380000000  0.5931440000000 1.0
C      1  0.5520900000000  0.5250810000000  0.5936470000000 1.0
C      1  0.5048450000000  0.5566140000000  0.5929930000000 1.0
C      1  0.5219750000000  0.4292730000000  0.5924250000000 1.0
C      1  0.4509850000000  0.4469170000000  0.5876530000000 1.0
C      1  0.4297960000000  0.5172070000000  0.5896540000000 1.0
C      1  0.4805130000000  0.5703120000000  0.5901170000000 1.0
C      1  0.5518310000000  0.5530460000000  0.5910910000000 1.0
C      1  0.5722230000000  0.4826210000000  0.5894330000000 1.0
C      1  0.5162470000000  0.5714100000000  0.4090640000000 1.0
C      1  0.4461600000000  0.5494330000000  0.4101980000000 1.0
C      1  0.4300680000000  0.4778010000000  0.4118650000000 1.0
C      1  0.4842210000000  0.4280110000000  0.4122330000000 1.0
C      1  0.5542800000000  0.4497360000000  0.4089600000000 1.0
C      1  0.5699900000000  0.5213880000000  0.4105740000000 1.0
C      1  0.5818000000000  0.4876790000000  0.4713210000000 1.0
C      1  0.5339960000000  0.4204560000000  0.4713050000000 1.0
C      1  0.4445740000000  0.4333090000000  0.4710630000000 1.0
C      1  0.4153030000000  0.5135520000000  0.4721500000000 1.0
C      1  0.4689860000000  0.5750070000000  0.4720380000000 1.0
C      1  0.5502540000000  0.5663460000000  0.4709140000000 1.0
C      1  0.5782360000000  0.5125130000000  0.5266560000000 1.0
C      1  0.5311740000000  0.5726500000000  0.5271120000000 1.0
C      1  0.4534330000000  0.5614620000000  0.5271410000000 1.0
C      1  0.4192150000000  0.4904540000000  0.5264790000000 1.0
C      1  0.4737900000000  0.4305490000000  0.5258880000000 1.0
C      1  0.5484870000000  0.4363300000000  0.5279160000000 1.0
C      1  0.4974270000000  0.5125870000000  0.5223430000000 1.0
C      1  0.5134040000000  0.4917140000000  0.5103240000000 1.0
C      1  0.4971700000000  0.4680060000000  0.5051130000000 1.0
C      1  0.4784220000000  0.4785680000000  0.4851940000000 1.0
C      1  0.4602110000000  0.4926280000000  0.5011620000000 1.0
C      1  0.4700190000000  0.5157630000000  0.5146010000000 1.0
C      1  0.5185840000000  0.4794700000000  0.4636750000000 1.0
C      1  0.5272280000000  0.4973450000000  0.4850990000000 1.0
C      1  0.5282520000000  0.5239610000000  0.4753630000000 1.0
C      1  0.5067200000000  0.5299140000000  0.4577790000000 1.0
C      1  0.4872820000000  0.5118970000000  0.4511170000000 1.0
C      1  0.4901250000000  0.4850800000000  0.4602070000000 1.0
C      1  0.4012320000000  0.5608410000000  0.5037410000000 1.0
C      1  0.3988870000000  0.4466210000000  0.5060680000000 1.0
C      1  0.4971140000000  0.3859080000000  0.5037630000000 1.0
C      1  0.5015090000000  0.6147460000000  0.5020810000000 1.0
C      1  0.5995830000000  0.4417170000000  0.5037860000000 1.0
C      1  0.5999470000000  0.5564900000000  0.4990980000000 1.0
END
