TITL C-3623284-6838-818 -2.20169542050848e-07 125000 -262.795083676499 0 0 40 (S4) n - 1
REM
REM in /home/nfs/bkarasulu/CARBON/AIRSS/Generating-Clusters/LCBOP/Higher-Symm/SD-CG/FIRE-CG
REM
REM
REM
REM
REM
REM ./C.cell (b20cbc046b6831c77cfcea5457e17084)
REM AIRSS Version 0.9.1 bugfix July 2018 build 013d7b7c2542+ Fri, 06 Jul 2018 19:26:36 +0100
REM compiler GCC version 9.2.1 20190827 (Red Hat 9.2.1-1)
REM options -cpp -mtune=generic -march=x86-64 -g -O0 -fpre-include=/usr/include/finclude/math-vector-fortran.h
REM seed 1689345300 -933501865 407800658 99570600 1253040123 529133718 462912777 1537098187 -171530928 197358221 1992878508 56087826 -1208867567 2142275893 1259841203 -657128853 -1840432011 1868111582 -228609540 1892759200 1930350500 1669652844 -1111714739 -1458229990 -1476389617 216175012 -1075635299 1870449628 -352756838 -757389387 166981658 1222409601 1532296054
REM
CELL 1.54180   50.00000   50.00000   50.00000   90.00000   90.00000   90.00000
LATT -1
SFAC C  
C      1  0.5043260000000  0.5498660000000  0.4737460000000 1.0
C      1  0.4956770000000  0.5262540000000  0.5498670000000 1.0
C      1  0.5043250000000  0.4501330000000  0.5262540000000 1.0
C      1  0.4956720000000  0.4737460000000  0.4501340000000 1.0
C      1  0.4788540000000  0.4621710000000  0.5325910000000 1.0
C      1  0.5211440000000  0.4674090000000  0.4621700000000 1.0
C      1  0.4788540000000  0.5378300000000  0.4674110000000 1.0
C      1  0.5211480000000  0.5325900000000  0.5378290000000 1.0
C      1  0.4694140000000  0.4703710000000  0.4633050000000 1.0
C      1  0.5305840000000  0.5366960000000  0.4703690000000 1.0
C      1  0.4694180000000  0.5296310000000  0.5366980000000 1.0
C      1  0.5305840000000  0.4633030000000  0.5296290000000 1.0
C      1  0.4941540000000  0.5000140000000  0.5639790000000 1.0
C      1  0.5058470000000  0.4360210000000  0.5000140000000 1.0
C      1  0.4941490000000  0.4999860000000  0.4360210000000 1.0
C      1  0.5058500000000  0.5639790000000  0.4999860000000 1.0
C      1  0.4561120000000  0.5038500000000  0.5365290000000 1.0
C      1  0.5438880000000  0.4634710000000  0.5038470000000 1.0
C      1  0.4561090000000  0.4961530000000  0.4634740000000 1.0
C      1  0.5438900000000  0.5365260000000  0.4961500000000 1.0
C      1  0.4737250000000  0.4845010000000  0.5508110000000 1.0
C      1  0.5262740000000  0.4491900000000  0.4844990000000 1.0
C      1  0.4737230000000  0.5155010000000  0.4491910000000 1.0
C      1  0.5262780000000  0.5508090000000  0.5154990000000 1.0
C      1  0.5186910000000  0.4875430000000  0.5697280000000 1.0
C      1  0.4813080000000  0.4302720000000  0.4875440000000 1.0
C      1  0.5186870000000  0.5124560000000  0.4302700000000 1.0
C      1  0.4813130000000  0.5697300000000  0.5124570000000 1.0
C      1  0.4644850000000  0.5471960000000  0.5149450000000 1.0
C      1  0.5355180000000  0.4850550000000  0.5471940000000 1.0
C      1  0.4644810000000  0.4528060000000  0.4850580000000 1.0
C      1  0.5355160000000  0.5149420000000  0.4528040000000 1.0
C      1  0.5524730000000  0.5116970000000  0.5079600000000 1.0
C      1  0.4475280000000  0.4920390000000  0.5117000000000 1.0
C      1  0.5524720000000  0.4883000000000  0.4920360000000 1.0
C      1  0.4475280000000  0.5079640000000  0.4883030000000 1.0
C      1  0.5407180000000  0.5101710000000  0.5344970000000 1.0
C      1  0.4592820000000  0.4655030000000  0.5101740000000 1.0
C      1  0.5407150000000  0.4898270000000  0.4655000000000 1.0
C      1  0.4592840000000  0.5345000000000  0.4898290000000 1.0
END
