TITL C-3623284-6838-808 -0.0013241611618178 125000 -612.758074376609 0 0 102 (C1) n - 1
REM
REM in /home/nfs/bkarasulu/CARBON/AIRSS/Generating-Clusters/LCBOP/Higher-Symm/SD-CG/FIRE-CG
REM
REM
REM
REM
REM
REM ./C.cell (b20cbc046b6831c77cfcea5457e17084)
REM AIRSS Version 0.9.1 bugfix July 2018 build 013d7b7c2542+ Fri, 06 Jul 2018 19:26:36 +0100
REM compiler GCC version 9.2.1 20190827 (Red Hat 9.2.1-1)
REM options -cpp -mtune=generic -march=x86-64 -g -O0 -fpre-include=/usr/include/finclude/math-vector-fortran.h
REM seed -767452452 -529518715 713488464 -135711430 -1225119249 -622203658 -1968537547 1410579204 1339672484 364276921 1364896077 876962959 -881086344 -1328722510 -385773285 445999347 -234427109 -364182363 257217409 1241788763 1016706419 1489729457 1097711597 2007972278 -1054766714 -1143220025 -476943792 680605060 -832756731 -1448075832 712142057 -315739653 1545417414
REM
CELL 1.54180   50.00000   50.00000   50.00000   90.00000   90.00000   90.00000
LATT -1
SFAC C  
C      1  0.4254900000000  0.5073690000000  0.4520770000000 1.0
C      1  0.4195080000000  0.5478410000000  0.5124210000000 1.0
C      1  0.5737960000000  0.5478680000000  0.5058310000000 1.0
C      1  0.5335130000000  0.5385940000000  0.4283990000000 1.0
C      1  0.4626730000000  0.5937600000000  0.5250470000000 1.0
C      1  0.4887610000000  0.5651730000000  0.4273210000000 1.0
C      1  0.4270810000000  0.5403370000000  0.5391320000000 1.0
C      1  0.4227990000000  0.4545740000000  0.5326700000000 1.0
C      1  0.5675640000000  0.4758330000000  0.5694120000000 1.0
C      1  0.5589300000000  0.5795880000000  0.4423360000000 1.0
C      1  0.5211140000000  0.4400050000000  0.4168570000000 1.0
C      1  0.5764020000000  0.5224440000000  0.5528060000000 1.0
C      1  0.5450940000000  0.5557820000000  0.4483930000000 1.0
C      1  0.4303710000000  0.4318000000000  0.5174110000000 1.0
C      1  0.5429900000000  0.4100220000000  0.5154580000000 1.0
C      1  0.4863390000000  0.5657750000000  0.5615530000000 1.0
C      1  0.5505710000000  0.4366250000000  0.4542550000000 1.0
C      1  0.5810490000000  0.5246740000000  0.5234150000000 1.0
C      1  0.4739590000000  0.4623870000000  0.5851750000000 1.0
C      1  0.4843030000000  0.5129510000000  0.5921260000000 1.0
C      1  0.4730170000000  0.5421420000000  0.5527680000000 1.0
C      1  0.5251040000000  0.4887910000000  0.4210640000000 1.0
C      1  0.4359380000000  0.5457660000000  0.4146180000000 1.0
C      1  0.5738440000000  0.4479660000000  0.5052810000000 1.0
C      1  0.4736430000000  0.5140400000000  0.4612970000000 1.0
C      1  0.5016250000000  0.4233740000000  0.4858050000000 1.0
C      1  0.4699110000000  0.4918550000000  0.5774940000000 1.0
C      1  0.5825300000000  0.5128720000000  0.4739990000000 1.0
C      1  0.5845760000000  0.5014920000000  0.5020630000000 1.0
C      1  0.5223910000000  0.4543640000000  0.5772460000000 1.0
C      1  0.4960410000000  0.4869560000000  0.4267790000000 1.0
C      1  0.5721400000000  0.4773450000000  0.5108890000000 1.0
C      1  0.5206380000000  0.4751970000000  0.5585410000000 1.0
C      1  0.5361870000000  0.5190320000000  0.5843150000000 1.0
C      1  0.4237190000000  0.4867870000000  0.4308630000000 1.0
C      1  0.4776610000000  0.5885010000000  0.5470700000000 1.0
C      1  0.4729740000000  0.5195510000000  0.6165940000000 1.0
C      1  0.5259070000000  0.5211010000000  0.4746430000000 1.0
C      1  0.4500440000000  0.5205200000000  0.4158710000000 1.0
C      1  0.4410690000000  0.4243970000000  0.4934630000000 1.0
C      1  0.5086640000000  0.5487570000000  0.4194580000000 1.0
C      1  0.4509380000000  0.4681800000000  0.4817210000000 1.0
C      1  0.4447620000000  0.4929810000000  0.5585530000000 1.0
C      1  0.4149730000000  0.5269720000000  0.4702500000000 1.0
C      1  0.4765820000000  0.5357390000000  0.5049960000000 1.0
C      1  0.4709640000000  0.4344150000000  0.4509700000000 1.0
C      1  0.5463840000000  0.4844270000000  0.5522900000000 1.0
C      1  0.5564010000000  0.4440960000000  0.4814900000000 1.0
C      1  0.4524560000000  0.5187550000000  0.4449440000000 1.0
C      1  0.5424850000000  0.5107160000000  0.4309790000000 1.0
C      1  0.4842330000000  0.5276140000000  0.5318560000000 1.0
C      1  0.5542570000000  0.5355060000000  0.5671920000000 1.0
C      1  0.4131130000000  0.5017880000000  0.5189960000000 1.0
C      1  0.4105510000000  0.5227120000000  0.4987480000000 1.0
C      1  0.4532390000000  0.4409820000000  0.4737340000000 1.0
C      1  0.5226600000000  0.4272810000000  0.4432470000000 1.0
C      1  0.5489580000000  0.4878850000000  0.5246670000000 1.0
C      1  0.5638180000000  0.4277450000000  0.5255360000000 1.0
C      1  0.4963250000000  0.4439000000000  0.5811960000000 1.0
C      1  0.4935780000000  0.4556860000000  0.5207920000000 1.0
C      1  0.4975090000000  0.4234170000000  0.4575240000000 1.0
C      1  0.4899940000000  0.4920760000000  0.4542930000000 1.0
C      1  0.5598670000000  0.4551020000000  0.4332060000000 1.0
C      1  0.5658160000000  0.5066010000000  0.4503120000000 1.0
C      1  0.4482060000000  0.4505060000000  0.5777780000000 1.0
C      1  0.5103110000000  0.5564300000000  0.5743600000000 1.0
C      1  0.5651620000000  0.4305180000000  0.5540220000000 1.0
C      1  0.5327410000000  0.4540310000000  0.4927950000000 1.0
C      1  0.4289910000000  0.5115880000000  0.5428010000000 1.0
C      1  0.4469900000000  0.5864870000000  0.5041990000000 1.0
C      1  0.5391250000000  0.5460560000000  0.4739880000000 1.0
C      1  0.5215690000000  0.4983650000000  0.5176310000000 1.0
C      1  0.4389090000000  0.5622320000000  0.4393890000000 1.0
C      1  0.5218380000000  0.5503510000000  0.5148520000000 1.0
C      1  0.5873710000000  0.5411290000000  0.4803790000000 1.0
C      1  0.5045600000000  0.4780120000000  0.5344170000000 1.0
C      1  0.5858310000000  0.4980660000000  0.5668910000000 1.0
C      1  0.4668880000000  0.4482330000000  0.4262470000000 1.0
C      1  0.5083840000000  0.5280600000000  0.5855370000000 1.0
C      1  0.4966760000000  0.5563620000000  0.4999260000000 1.0
C      1  0.4857560000000  0.4327450000000  0.5354320000000 1.0
C      1  0.5003750000000  0.4787510000000  0.4768330000000 1.0
C      1  0.5174440000000  0.4988110000000  0.4888020000000 1.0
C      1  0.4710700000000  0.4747310000000  0.4155630000000 1.0
C      1  0.5379000000000  0.4636720000000  0.4160400000000 1.0
C      1  0.4553900000000  0.4906000000000  0.4960080000000 1.0
C      1  0.5382220000000  0.5599450000000  0.5655760000000 1.0
C      1  0.4262430000000  0.5553120000000  0.4654380000000 1.0
C      1  0.5198200000000  0.4073210000000  0.5012670000000 1.0
C      1  0.5824720000000  0.5784500000000  0.4283850000000 1.0
C      1  0.4354160000000  0.4643980000000  0.5564140000000 1.0
C      1  0.5463660000000  0.5540500000000  0.5007900000000 1.0
C      1  0.4896200000000  0.4246510000000  0.5610380000000 1.0
C      1  0.5578810000000  0.4485820000000  0.5746630000000 1.0
C      1  0.4466640000000  0.4913910000000  0.4111110000000 1.0
C      1  0.4301580000000  0.5666000000000  0.4930170000000 1.0
C      1  0.5485640000000  0.6036530000000  0.4503190000000 1.0
C      1  0.5136300000000  0.5253440000000  0.5288150000000 1.0
C      1  0.4655200000000  0.5730650000000  0.4386610000000 1.0
C      1  0.4072360000000  0.4743440000000  0.5193460000000 1.0
C      1  0.5037310000000  0.4530810000000  0.4928180000000 1.0
C      1  0.4671800000000  0.5152980000000  0.4887420000000 1.0
END
