TITL C-3623289-7120-1847 81999.3304527765 125000 -1047.55948305046 0 0 174 (C1) n - 1
REM
REM in /home/nfs/bkarasulu/CARBON/AIRSS/Generating-Clusters/LCBOP/Higher-Symm/SD-CG/FIRE-CG
REM
REM
REM
REM
REM
REM ./C.cell (b20cbc046b6831c77cfcea5457e17084)
REM AIRSS Version 0.9.1 bugfix July 2018 build 013d7b7c2542+ Fri, 06 Jul 2018 19:26:36 +0100
REM compiler GCC version 9.2.1 20190827 (Red Hat 9.2.1-1)
REM options -cpp -mtune=generic -march=x86-64 -g -O0 -fpre-include=/usr/include/finclude/math-vector-fortran.h
REM seed 1015549154 2079887000 -52191851 -1897617429 1563490908 121092115 -1883394227 1804505573 170660025 593326868 -516563451 1106866893 962417794 777004082 1038599501 -1101448723 103583890 -439241648 1677693618 1873973417 1761160879 86135248 1919249986 -532001297 1308572428 -536373227 764322878 -2117566929 590754563 678644977 -1982180419 -898252647 -1256000551
REM
CELL 1.54180   50.00000   50.00000   50.00000   90.00000   90.00000   90.00000
LATT -1
SFAC C  
C      1  0.4846370000000  0.4393480000000  0.4498910000000 1.0
C      1  0.5377340000000  0.4346400000000  0.5109270000000 1.0
C      1  0.4760040000000  0.4251120000000  0.5208940000000 1.0
C      1  0.4176850000000  0.4397470000000  0.5146580000000 1.0
C      1  0.5354630000000  0.4365940000000  0.4108580000000 1.0
C      1  0.5582440000000  0.4461790000000  0.5638390000000 1.0
C      1  0.4637610000000  0.5425620000000  0.5545640000000 1.0
C      1  0.4636840000000  0.5302460000000  0.4421610000000 1.0
C      1  0.5612890000000  0.5314240000000  0.4994090000000 1.0
C      1  0.4968390000000  0.5615630000000  0.4313910000000 1.0
C      1  0.5567690000000  0.5650910000000  0.5348370000000 1.0
C      1  0.4261730000000  0.5698350000000  0.5382870000000 1.0
C      1  0.5847710000000  0.4546130000000  0.5508070000000 1.0
C      1  0.4104170000000  0.4396240000000  0.5441130000000 1.0
C      1  0.5136620000000  0.4435040000000  0.3921760000000 1.0
C      1  0.5344600000000  0.5423750000000  0.4047470000000 1.0
C      1  0.5582770000000  0.5463200000000  0.5818230000000 1.0
C      1  0.3934900000000  0.5446330000000  0.5164930000000 1.0
C      1  0.5600180000000  0.4490260000000  0.4630060000000 1.0
C      1  0.4953980000000  0.4404060000000  0.5676560000000 1.0
C      1  0.4503140000000  0.4563260000000  0.4728560000000 1.0
C      1  0.4227840000000  0.4527020000000  0.4313430000000 1.0
C      1  0.6093140000000  0.4511900000000  0.4595960000000 1.0
C      1  0.4841880000000  0.4554380000000  0.6130160000000 1.0
C      1  0.6061100000000  0.5333210000000  0.4594470000000 1.0
C      1  0.4833270000000  0.5436390000000  0.6192660000000 1.0
C      1  0.4111120000000  0.5344750000000  0.4325320000000 1.0
C      1  0.5726410000000  0.5466350000000  0.5207310000000 1.0
C      1  0.4377800000000  0.5532540000000  0.5575790000000 1.0
C      1  0.4750290000000  0.5473780000000  0.4233430000000 1.0
C      1  0.5326440000000  0.5078000000000  0.4390370000000 1.0
C      1  0.5202190000000  0.5045760000000  0.5685610000000 1.0
C      1  0.4239360000000  0.5134700000000  0.4984500000000 1.0
C      1  0.5039380000000  0.5260470000000  0.5353100000000 1.0
C      1  0.4759650000000  0.5453560000000  0.5044430000000 1.0
C      1  0.5332810000000  0.5290660000000  0.5010890000000 1.0
C      1  0.5283300000000  0.4547190000000  0.6036930000000 1.0
C      1  0.4030420000000  0.4548250000000  0.4701370000000 1.0
C      1  0.5822470000000  0.4554410000000  0.4235740000000 1.0
C      1  0.4555710000000  0.4179270000000  0.5429110000000 1.0
C      1  0.4807930000000  0.4268910000000  0.4228690000000 1.0
C      1  0.5664670000000  0.4326370000000  0.5132910000000 1.0
C      1  0.3771440000000  0.4755120000000  0.5335060000000 1.0
C      1  0.5396860000000  0.4807780000000  0.3731050000000 1.0
C      1  0.5924250000000  0.4856520000000  0.5889530000000 1.0
C      1  0.5664340000000  0.4827920000000  0.5997800000000 1.0
C      1  0.3822680000000  0.4765010000000  0.5056930000000 1.0
C      1  0.5572500000000  0.4809330000000  0.3951050000000 1.0
C      1  0.5098530000000  0.5235300000000  0.4001310000000 1.0
C      1  0.5704970000000  0.5253650000000  0.5637880000000 1.0
C      1  0.4081980000000  0.5239740000000  0.5429940000000 1.0
C      1  0.4260500000000  0.5219520000000  0.4101680000000 1.0
C      1  0.6097130000000  0.5187490000000  0.4864700000000 1.0
C      1  0.4556780000000  0.5395690000000  0.6121950000000 1.0
C      1  0.5582490000000  0.5707570000000  0.5640310000000 1.0
C      1  0.4054450000000  0.5711440000000  0.5174370000000 1.0
C      1  0.5211950000000  0.5680190000000  0.4146540000000 1.0
C      1  0.4483790000000  0.4793940000000  0.4004460000000 1.0
C      1  0.5884770000000  0.4763350000000  0.5055880000000 1.0
C      1  0.4582190000000  0.4924660000000  0.5829150000000 1.0
C      1  0.5523630000000  0.5041220000000  0.4597950000000 1.0
C      1  0.4976900000000  0.5187900000000  0.5817720000000 1.0
C      1  0.4444150000000  0.5104860000000  0.4796160000000 1.0
C      1  0.5339800000000  0.5599380000000  0.4554070000000 1.0
C      1  0.5134120000000  0.5529010000000  0.5433040000000 1.0
C      1  0.4555750000000  0.5644190000000  0.5028330000000 1.0
C      1  0.4570230000000  0.4999910000000  0.5319080000000 1.0
C      1  0.4896360000000  0.4845460000000  0.4284790000000 1.0
C      1  0.5455260000000  0.4994710000000  0.5312450000000 1.0
C      1  0.4314590000000  0.4137890000000  0.5027790000000 1.0
C      1  0.5316560000000  0.4190270000000  0.4343700000000 1.0
C      1  0.5469610000000  0.4163800000000  0.5550250000000 1.0
C      1  0.5124710000000  0.5024570000000  0.4199030000000 1.0
C      1  0.5480170000000  0.5083260000000  0.5582050000000 1.0
C      1  0.4278920000000  0.5102040000000  0.5270020000000 1.0
C      1  0.5223000000000  0.4823080000000  0.6157460000000 1.0
C      1  0.3939240000000  0.4806620000000  0.4572860000000 1.0
C      1  0.5917210000000  0.4841080000000  0.4292760000000 1.0
C      1  0.5494760000000  0.5978290000000  0.5668260000000 1.0
C      1  0.4160410000000  0.5953060000000  0.5003020000000 1.0
C      1  0.5360000000000  0.5818500000000  0.4349170000000 1.0
C      1  0.5182170000000  0.4712790000000  0.4684350000000 1.0
C      1  0.5136150000000  0.4789460000000  0.5565950000000 1.0
C      1  0.4576580000000  0.4784800000000  0.5107910000000 1.0
C      1  0.5913250000000  0.5320390000000  0.5362880000000 1.0
C      1  0.4197840000000  0.5342030000000  0.5692340000000 1.0
C      1  0.4769670000000  0.5350720000000  0.3977220000000 1.0
C      1  0.5029560000000  0.4414450000000  0.5953860000000 1.0
C      1  0.4282010000000  0.4473970000000  0.4585760000000 1.0
C      1  0.5842820000000  0.4428390000000  0.4493460000000 1.0
C      1  0.5546200000000  0.4564130000000  0.5924450000000 1.0
C      1  0.3973590000000  0.4529400000000  0.4973750000000 1.0
C      1  0.5586430000000  0.4542970000000  0.4079570000000 1.0
C      1  0.5120110000000  0.5424520000000  0.6163400000000 1.0
C      1  0.4008560000000  0.5354780000000  0.4584650000000 1.0
C      1  0.5901940000000  0.5374390000000  0.4355760000000 1.0
C      1  0.5503000000000  0.3961990000000  0.5356230000000 1.0
C      1  0.4349260000000  0.3886350000000  0.5145670000000 1.0
C      1  0.5110500000000  0.3984440000000  0.4416580000000 1.0
C      1  0.3976870000000  0.5239140000000  0.4886360000000 1.0
C      1  0.5669260000000  0.5293000000000  0.4152960000000 1.0
C      1  0.5396400000000  0.5322720000000  0.6049850000000 1.0
C      1  0.4750140000000  0.4702960000000  0.4058140000000 1.0
C      1  0.5660600000000  0.4908760000000  0.5151270000000 1.0
C      1  0.4644940000000  0.4835960000000  0.5568490000000 1.0
C      1  0.4929700000000  0.4831960000000  0.6160220000000 1.0
C      1  0.4086920000000  0.4788690000000  0.4297560000000 1.0
C      1  0.6066420000000  0.4803980000000  0.4567650000000 1.0
C      1  0.6115330000000  0.5257860000000  0.5155250000000 1.0
C      1  0.4321770000000  0.5326330000000  0.5970800000000 1.0
C      1  0.4483290000000  0.5306050000000  0.3922710000000 1.0
C      1  0.4433290000000  0.6068590000000  0.4887050000000 1.0
C      1  0.5431190000000  0.6029530000000  0.4533970000000 1.0
C      1  0.5273460000000  0.6078210000000  0.5519260000000 1.0
C      1  0.4753310000000  0.6007930000000  0.4540640000000 1.0
C      1  0.5624330000000  0.6022650000000  0.4961040000000 1.0
C      1  0.4820900000000  0.6104230000000  0.5450210000000 1.0
C      1  0.5250980000000  0.3914480000000  0.5199290000000 1.0
C      1  0.4221900000000  0.3659720000000  0.5064270000000 1.0
C      1  0.5067460000000  0.4022180000000  0.4725070000000 1.0
C      1  0.4823920000000  0.3822340000000  0.5379060000000 1.0
C      1  0.4650110000000  0.3958720000000  0.4527040000000 1.0
C      1  0.5581110000000  0.3939740000000  0.4893260000000 1.0
C      1  0.4488210000000  0.5805550000000  0.5248610000000 1.0
C      1  0.5055240000000  0.5562630000000  0.4588270000000 1.0
C      1  0.5300550000000  0.5659030000000  0.5251240000000 1.0
C      1  0.3838960000000  0.4960480000000  0.4826850000000 1.0
C      1  0.5732760000000  0.5001630000000  0.4105110000000 1.0
C      1  0.5448180000000  0.5015040000000  0.6101560000000 1.0
C      1  0.5166820000000  0.4296940000000  0.5418890000000 1.0
C      1  0.4632090000000  0.4291920000000  0.4937810000000 1.0
C      1  0.5423700000000  0.4273120000000  0.4606790000000 1.0
C      1  0.4935920000000  0.6140200000000  0.4722880000000 1.0
C      1  0.5367340000000  0.6151260000000  0.4997280000000 1.0
C      1  0.4930340000000  0.6214940000000  0.5208880000000 1.0
C      1  0.6031500000000  0.4904900000000  0.4836120000000 1.0
C      1  0.4808420000000  0.5011680000000  0.5978100000000 1.0
C      1  0.4249820000000  0.4933360000000  0.4109890000000 1.0
C      1  0.4510850000000  0.5899390000000  0.4651650000000 1.0
C      1  0.5650460000000  0.5880720000000  0.4708170000000 1.0
C      1  0.5014090000000  0.5956720000000  0.5606230000000 1.0
C      1  0.5008800000000  0.5668660000000  0.5645730000000 1.0
C      1  0.4477250000000  0.5626770000000  0.4747780000000 1.0
C      1  0.5607650000000  0.5586710000000  0.4649820000000 1.0
C      1  0.5006220000000  0.4068830000000  0.5297560000000 1.0
C      1  0.4786870000000  0.4163070000000  0.4722860000000 1.0
C      1  0.5322840000000  0.4103800000000  0.4848850000000 1.0
C      1  0.4538070000000  0.3888000000000  0.5368420000000 1.0
C      1  0.4837910000000  0.3986540000000  0.4293720000000 1.0
C      1  0.5698520000000  0.4029000000000  0.5144610000000 1.0
C      1  0.5216770000000  0.5547070000000  0.5005740000000 1.0
C      1  0.4566700000000  0.6017300000000  0.5410540000000 1.0
C      1  0.4976810000000  0.5528180000000  0.4863650000000 1.0
C      1  0.5223390000000  0.6186550000000  0.5240780000000 1.0
C      1  0.4770320000000  0.6191290000000  0.4967060000000 1.0
C      1  0.5228140000000  0.6143460000000  0.4730480000000 1.0
C      1  0.4743540000000  0.5267150000000  0.5294060000000 1.0
C      1  0.4702730000000  0.5035500000000  0.4393380000000 1.0
C      1  0.5226190000000  0.5115230000000  0.5195890000000 1.0
C      1  0.5209790000000  0.4611190000000  0.3709480000000 1.0
C      1  0.6006950000000  0.4717060000000  0.5670560000000 1.0
C      1  0.3894380000000  0.4577310000000  0.5503240000000 1.0
C      1  0.4867240000000  0.4443490000000  0.4017350000000 1.0
C      1  0.5856580000000  0.4517450000000  0.5217860000000 1.0
C      1  0.4338400000000  0.4295050000000  0.5570580000000 1.0
C      1  0.4498930000000  0.5354030000000  0.4654120000000 1.0
C      1  0.5646730000000  0.5298370000000  0.4712360000000 1.0
C      1  0.4845410000000  0.5449900000000  0.5746580000000 1.0
C      1  0.5470060000000  0.4752150000000  0.4673360000000 1.0
C      1  0.4877220000000  0.4667060000000  0.5573220000000 1.0
C      1  0.4558410000000  0.4836950000000  0.4825810000000 1.0
C      1  0.4430970000000  0.4561910000000  0.5158090000000 1.0
C      1  0.4973320000000  0.4648690000000  0.4505110000000 1.0
C      1  0.5333370000000  0.4608270000000  0.5506140000000 1.0
END
