TITL C-3623289-7120-54 15.3608316021576 125000 -1220.82873805081 0 0 197 (C1) n - 1
REM
REM in /home/nfs/bkarasulu/CARBON/AIRSS/Generating-Clusters/LCBOP/Higher-Symm/SD-CG/FIRE-CG
REM
REM
REM
REM
REM
REM ./C.cell (b20cbc046b6831c77cfcea5457e17084)
REM AIRSS Version 0.9.1 bugfix July 2018 build 013d7b7c2542+ Fri, 06 Jul 2018 19:26:36 +0100
REM compiler GCC version 9.2.1 20190827 (Red Hat 9.2.1-1)
REM options -cpp -mtune=generic -march=x86-64 -g -O0 -fpre-include=/usr/include/finclude/math-vector-fortran.h
REM seed -248410797 719515746 -1347583353 -394400387 967084173 -1805636847 2088042124 -259940230 -318909799 187761146 -1239087230 536699239 1251996492 -1000051814 908359021 -2066669785 1362892104 631705293 487391805 -1462331723 667309887 -1546285921 -1633904276 -151314159 -562681985 2052976667 -785652191 -2083457530 -518334211 876332741 481248587 -576555925 -1854238925
REM
CELL 1.54180   50.00000   50.00000   50.00000   90.00000   90.00000   90.00000
LATT -1
SFAC C  
C      1  0.5134940000000  0.4934510000000  0.4716570000000 1.0
C      1  0.4696590000000  0.4899610000000  0.5357500000000 1.0
C      1  0.5050260000000  0.3886120000000  0.4381380000000 1.0
C      1  0.5013240000000  0.3862030000000  0.5518560000000 1.0
C      1  0.5192290000000  0.5730010000000  0.4430290000000 1.0
C      1  0.4914000000000  0.5489970000000  0.5522650000000 1.0
C      1  0.5214800000000  0.6015550000000  0.4407700000000 1.0
C      1  0.4865110000000  0.6105670000000  0.5518630000000 1.0
C      1  0.4687320000000  0.4321000000000  0.5468130000000 1.0
C      1  0.5398210000000  0.4333980000000  0.4481300000000 1.0
C      1  0.5474680000000  0.5655490000000  0.5964070000000 1.0
C      1  0.4628970000000  0.5503060000000  0.4215990000000 1.0
C      1  0.5006040000000  0.4723720000000  0.4007880000000 1.0
C      1  0.4917250000000  0.4762740000000  0.6027200000000 1.0
C      1  0.5974250000000  0.5117230000000  0.5825850000000 1.0
C      1  0.4034960000000  0.5130280000000  0.4275410000000 1.0
C      1  0.4434050000000  0.5184540000000  0.4866630000000 1.0
C      1  0.5481650000000  0.5030880000000  0.5117520000000 1.0
C      1  0.4911300000000  0.5874010000000  0.4039520000000 1.0
C      1  0.5043830000000  0.5855000000000  0.5950350000000 1.0
C      1  0.4475160000000  0.5275580000000  0.5135510000000 1.0
C      1  0.5476790000000  0.5201180000000  0.4889170000000 1.0
C      1  0.5256190000000  0.5112190000000  0.3847650000000 1.0
C      1  0.4578330000000  0.5219240000000  0.6176450000000 1.0
C      1  0.5068470000000  0.5441480000000  0.4794300000000 1.0
C      1  0.5010200000000  0.5481680000000  0.5058570000000 1.0
C      1  0.5057050000000  0.4666910000000  0.4278900000000 1.0
C      1  0.4880950000000  0.4695450000000  0.5757060000000 1.0
C      1  0.4885070000000  0.5410720000000  0.3829880000000 1.0
C      1  0.5095100000000  0.5380240000000  0.6125610000000 1.0
C      1  0.6097340000000  0.5232990000000  0.4782310000000 1.0
C      1  0.3780930000000  0.5389350000000  0.5410390000000 1.0
C      1  0.5640230000000  0.5958960000000  0.4639390000000 1.0
C      1  0.4426920000000  0.5970580000000  0.5361090000000 1.0
C      1  0.5396290000000  0.5651680000000  0.5274390000000 1.0
C      1  0.4549370000000  0.5623530000000  0.4716020000000 1.0
C      1  0.5201470000000  0.5636300000000  0.6042660000000 1.0
C      1  0.4814640000000  0.5603720000000  0.4023120000000 1.0
C      1  0.5864710000000  0.4433480000000  0.4374000000000 1.0
C      1  0.4131430000000  0.4462890000000  0.5512490000000 1.0
C      1  0.5719420000000  0.5132000000000  0.5943710000000 1.0
C      1  0.4243990000000  0.5164480000000  0.4069880000000 1.0
C      1  0.6133770000000  0.4607550000000  0.5869450000000 1.0
C      1  0.3887640000000  0.4616200000000  0.4210240000000 1.0
C      1  0.5397570000000  0.5508900000000  0.5516000000000 1.0
C      1  0.4539040000000  0.5346960000000  0.4658810000000 1.0
C      1  0.4604800000000  0.4116250000000  0.4311570000000 1.0
C      1  0.5472170000000  0.4118630000000  0.5595930000000 1.0
C      1  0.5758160000000  0.4088550000000  0.5593300000000 1.0
C      1  0.4327220000000  0.4128080000000  0.4381530000000 1.0
C      1  0.5715780000000  0.3982360000000  0.6277890000000 1.0
C      1  0.4207450000000  0.3834940000000  0.3779680000000 1.0
C      1  0.5491190000000  0.5050160000000  0.3997110000000 1.0
C      1  0.4370250000000  0.5096480000000  0.6053860000000 1.0
C      1  0.4165080000000  0.5794610000000  0.4963240000000 1.0
C      1  0.5833210000000  0.5801340000000  0.5107490000000 1.0
C      1  0.4403730000000  0.4743070000000  0.5722150000000 1.0
C      1  0.5468900000000  0.4783230000000  0.4398640000000 1.0
C      1  0.4407430000000  0.4227910000000  0.5530200000000 1.0
C      1  0.5651710000000  0.4230550000000  0.4386290000000 1.0
C      1  0.4429930000000  0.4561510000000  0.5213960000000 1.0
C      1  0.5567030000000  0.4663470000000  0.4849620000000 1.0
C      1  0.5358290000000  0.6128080000000  0.5163940000000 1.0
C      1  0.4719930000000  0.6058820000000  0.4740470000000 1.0
C      1  0.4913990000000  0.4888040000000  0.5554560000000 1.0
C      1  0.4953410000000  0.4857680000000  0.4478560000000 1.0
C      1  0.5964850000000  0.5031240000000  0.5200520000000 1.0
C      1  0.3990350000000  0.5024330000000  0.4926900000000 1.0
C      1  0.5221280000000  0.4969770000000  0.5208090000000 1.0
C      1  0.4770310000000  0.4825490000000  0.5072300000000 1.0
C      1  0.6079710000000  0.4992550000000  0.4938810000000 1.0
C      1  0.3909080000000  0.4844280000000  0.5153100000000 1.0
C      1  0.4799430000000  0.4203180000000  0.3867430000000 1.0
C      1  0.5233810000000  0.4334620000000  0.5942570000000 1.0
C      1  0.5263400000000  0.4374150000000  0.5170930000000 1.0
C      1  0.4552660000000  0.4658680000000  0.4974210000000 1.0
C      1  0.5281790000000  0.4251870000000  0.4726330000000 1.0
C      1  0.4783720000000  0.4252160000000  0.5200620000000 1.0
C      1  0.5338600000000  0.5535300000000  0.4295790000000 1.0
C      1  0.4700860000000  0.5470800000000  0.5704980000000 1.0
C      1  0.4475100000000  0.6155670000000  0.4627600000000 1.0
C      1  0.5614600000000  0.6170680000000  0.5294820000000 1.0
C      1  0.5285440000000  0.3947440000000  0.5442010000000 1.0
C      1  0.4795830000000  0.3977340000000  0.4481120000000 1.0
C      1  0.3993540000000  0.5594310000000  0.4454840000000 1.0
C      1  0.6039840000000  0.5580880000000  0.5583490000000 1.0
C      1  0.4556900000000  0.5546970000000  0.5158920000000 1.0
C      1  0.5618110000000  0.5432030000000  0.4905060000000 1.0
C      1  0.5318730000000  0.4244540000000  0.3732940000000 1.0
C      1  0.4830600000000  0.4079430000000  0.6049420000000 1.0
C      1  0.4867910000000  0.6132390000000  0.4973590000000 1.0
C      1  0.5212870000000  0.6160940000000  0.4912480000000 1.0
C      1  0.4649030000000  0.4046040000000  0.3690160000000 1.0
C      1  0.5343190000000  0.4298700000000  0.6197350000000 1.0
C      1  0.4010470000000  0.5752180000000  0.5193130000000 1.0
C      1  0.5999970000000  0.5724720000000  0.4886600000000 1.0
C      1  0.6143810000000  0.5481000000000  0.4944280000000 1.0
C      1  0.3805460000000  0.5552030000000  0.5180250000000 1.0
C      1  0.4113520000000  0.4128100000000  0.4190890000000 1.0
C      1  0.5915190000000  0.4114080000000  0.5831840000000 1.0
C      1  0.4434580000000  0.3892700000000  0.3651180000000 1.0
C      1  0.5508460000000  0.4141590000000  0.6336670000000 1.0
C      1  0.6112920000000  0.4873580000000  0.5858850000000 1.0
C      1  0.3907640000000  0.4876810000000  0.4263140000000 1.0
C      1  0.5309410000000  0.4555680000000  0.4331550000000 1.0
C      1  0.4838680000000  0.4419980000000  0.5693530000000 1.0
C      1  0.4649120000000  0.5276340000000  0.4407810000000 1.0
C      1  0.5164340000000  0.5341040000000  0.5546860000000 1.0
C      1  0.5862820000000  0.5755510000000  0.4632070000000 1.0
C      1  0.4183500000000  0.5793180000000  0.5423100000000 1.0
C      1  0.4574970000000  0.4849140000000  0.4179140000000 1.0
C      1  0.5382260000000  0.4896880000000  0.5683090000000 1.0
C      1  0.4011840000000  0.4797290000000  0.5431570000000 1.0
C      1  0.5963280000000  0.4696180000000  0.4384750000000 1.0
C      1  0.5250440000000  0.5888600000000  0.5274290000000 1.0
C      1  0.4767240000000  0.5788740000000  0.4656640000000 1.0
C      1  0.4394360000000  0.5660150000000  0.4224630000000 1.0
C      1  0.5576200000000  0.5639360000000  0.5702310000000 1.0
C      1  0.5709380000000  0.4918790000000  0.5248990000000 1.0
C      1  0.4252120000000  0.4973650000000  0.4825240000000 1.0
C      1  0.5006980000000  0.5652300000000  0.4620930000000 1.0
C      1  0.4828660000000  0.5554910000000  0.5254840000000 1.0
C      1  0.5163740000000  0.5373050000000  0.3767030000000 1.0
C      1  0.4819180000000  0.5341830000000  0.6199330000000 1.0
C      1  0.5072270000000  0.4234820000000  0.3817390000000 1.0
C      1  0.4963530000000  0.4257270000000  0.5890950000000 1.0
C      1  0.5876450000000  0.4196020000000  0.5362730000000 1.0
C      1  0.4269360000000  0.4253760000000  0.4622970000000 1.0
C      1  0.4537100000000  0.5140610000000  0.5367070000000 1.0
C      1  0.5236440000000  0.5220400000000  0.4699250000000 1.0
C      1  0.4425800000000  0.5695900000000  0.4954960000000 1.0
C      1  0.5604520000000  0.5629960000000  0.5091990000000 1.0
C      1  0.4992190000000  0.4402030000000  0.5083920000000 1.0
C      1  0.5025600000000  0.4376210000000  0.4795260000000 1.0
C      1  0.6072760000000  0.4347870000000  0.5859450000000 1.0
C      1  0.3953140000000  0.4359810000000  0.4177010000000 1.0
C      1  0.3910030000000  0.4476700000000  0.4841810000000 1.0
C      1  0.6045230000000  0.4519950000000  0.5049300000000 1.0
C      1  0.4474160000000  0.3944370000000  0.5577940000000 1.0
C      1  0.5571000000000  0.3965720000000  0.4302010000000 1.0
C      1  0.4576360000000  0.4570610000000  0.4132480000000 1.0
C      1  0.5495850000000  0.4635860000000  0.5601020000000 1.0
C      1  0.5365450000000  0.6087750000000  0.4651420000000 1.0
C      1  0.4701030000000  0.6077640000000  0.5286140000000 1.0
C      1  0.4488520000000  0.4704420000000  0.5454200000000 1.0
C      1  0.5409580000000  0.4800180000000  0.4677540000000 1.0
C      1  0.4061190000000  0.5040340000000  0.5626090000000 1.0
C      1  0.5886210000000  0.4990480000000  0.4363520000000 1.0
C      1  0.4268540000000  0.6031020000000  0.4498210000000 1.0
C      1  0.5800410000000  0.5951030000000  0.5351580000000 1.0
C      1  0.5694430000000  0.4659380000000  0.5380910000000 1.0
C      1  0.4345340000000  0.4709780000000  0.4790270000000 1.0
C      1  0.5869390000000  0.3957500000000  0.6059660000000 1.0
C      1  0.4087650000000  0.3925090000000  0.4000730000000 1.0
C      1  0.5974050000000  0.5247120000000  0.4515590000000 1.0
C      1  0.4000800000000  0.5333480000000  0.5585260000000 1.0
C      1  0.6138080000000  0.4721420000000  0.4895760000000 1.0
C      1  0.3787460000000  0.4611650000000  0.5039810000000 1.0
C      1  0.5808710000000  0.5577620000000  0.4178870000000 1.0
C      1  0.4293870000000  0.5657160000000  0.5871350000000 1.0
C      1  0.5314130000000  0.3865790000000  0.4316170000000 1.0
C      1  0.4738040000000  0.3843150000000  0.5558310000000 1.0
C      1  0.5000650000000  0.4961970000000  0.3863970000000 1.0
C      1  0.5085890000000  0.4905180000000  0.6178520000000 1.0
C      1  0.4959720000000  0.6022120000000  0.5756480000000 1.0
C      1  0.5052280000000  0.6066680000000  0.4176650000000 1.0
C      1  0.4194710000000  0.5780130000000  0.4381390000000 1.0
C      1  0.5816720000000  0.5760510000000  0.5582160000000 1.0
C      1  0.4673470000000  0.4302830000000  0.4104020000000 1.0
C      1  0.5396500000000  0.4376180000000  0.5710090000000 1.0
C      1  0.5547170000000  0.5592690000000  0.4118330000000 1.0
C      1  0.4564840000000  0.5648760000000  0.5875040000000 1.0
C      1  0.4693250000000  0.4048940000000  0.5016590000000 1.0
C      1  0.5381780000000  0.4163500000000  0.4994760000000 1.0
C      1  0.5171320000000  0.5031530000000  0.5501210000000 1.0
C      1  0.4722060000000  0.4995980000000  0.4383910000000 1.0
C      1  0.4731100000000  0.3959720000000  0.4761960000000 1.0
C      1  0.5364680000000  0.3930100000000  0.5161200000000 1.0
C      1  0.3864200000000  0.5237200000000  0.4772200000000 1.0
C      1  0.6102240000000  0.5213310000000  0.5359130000000 1.0
C      1  0.4534560000000  0.5263450000000  0.5615210000000 1.0
C      1  0.5318940000000  0.5286060000000  0.4422160000000 1.0
C      1  0.4255690000000  0.4960270000000  0.5832710000000 1.0
C      1  0.5618110000000  0.4965260000000  0.4239640000000 1.0
C      1  0.5451780000000  0.5056260000000  0.5916170000000 1.0
C      1  0.4502110000000  0.5053690000000  0.3983200000000 1.0
C      1  0.5904000000000  0.5529490000000  0.4440700000000 1.0
C      1  0.4146640000000  0.5592890000000  0.5638270000000 1.0
C      1  0.3737990000000  0.5435420000000  0.4931870000000 1.0
C      1  0.6187080000000  0.5444260000000  0.5227180000000 1.0
C      1  0.3954920000000  0.5311970000000  0.4497030000000 1.0
C      1  0.6047500000000  0.5303480000000  0.5627440000000 1.0
C      1  0.5239310000000  0.5128910000000  0.6095830000000 1.0
C      1  0.4755470000000  0.5142980000000  0.3850140000000 1.0
C      1  0.4171310000000  0.4487200000000  0.4736020000000 1.0
C      1  0.5871940000000  0.4458260000000  0.5264700000000 1.0
C      1  0.5031860000000  0.4898360000000  0.4998820000000 1.0
END
