TITL C-3623287-7182-39 0.0133825316103561 125000 -230.493225912896 0 0 40 (C1) n - 1
REM
REM in /home/nfs/bkarasulu/CARBON/AIRSS/Generating-Clusters/LCBOP/Higher-Symm/SD-CG/FIRE-CG
REM
REM
REM
REM
REM
REM ./C.cell (b20cbc046b6831c77cfcea5457e17084)
REM AIRSS Version 0.9.1 bugfix July 2018 build 013d7b7c2542+ Fri, 06 Jul 2018 19:26:36 +0100
REM compiler GCC version 9.2.1 20190827 (Red Hat 9.2.1-1)
REM options -cpp -mtune=generic -march=x86-64 -g -O0 -fpre-include=/usr/include/finclude/math-vector-fortran.h
REM seed 431196253 272521556 -290329466 1309917196 169729568 1418895996 1624136327 555886695 -129573595 1079067256 1658093986 1055834392 -207770273 790050346 1387873083 1972768935 -1651130461 -429100558 1786384392 1461661876 1475934629 -1334315828 465758718 -1710988780 -649503611 -993032395 924288964 79439564 1456196214 220111500 -665455526 92576891 1265110857
REM
CELL 1.54180   50.00000   50.00000   50.00000   90.00000   90.00000   90.00000
LATT -1
SFAC C  
C      1  0.5168610000000  0.4428970000000  0.4417190000000 1.0
C      1  0.4745310000000  0.4873010000000  0.5434900000000 1.0
C      1  0.4833400000000  0.5956980000000  0.4275710000000 1.0
C      1  0.5322430000000  0.5953740000000  0.5935870000000 1.0
C      1  0.4961000000000  0.4495670000000  0.4831640000000 1.0
C      1  0.4841550000000  0.4616350000000  0.5057370000000 1.0
C      1  0.5225590000000  0.5380920000000  0.5454510000000 1.0
C      1  0.5066080000000  0.5336020000000  0.4600100000000 1.0
C      1  0.4508400000000  0.4762810000000  0.5349670000000 1.0
C      1  0.5074290000000  0.4184100000000  0.4501040000000 1.0
C      1  0.4772100000000  0.4016470000000  0.4861900000000 1.0
C      1  0.4366130000000  0.4404190000000  0.5038600000000 1.0
C      1  0.3798250000000  0.3946850000000  0.5039360000000 1.0
C      1  0.4041870000000  0.4037310000000  0.5019680000000 1.0
C      1  0.4520350000000  0.3970010000000  0.4937260000000 1.0
C      1  0.4301440000000  0.4134250000000  0.4999110000000 1.0
C      1  0.5255760000000  0.4872120000000  0.4636690000000 1.0
C      1  0.5221470000000  0.4904160000000  0.5303710000000 1.0
C      1  0.5063970000000  0.5558350000000  0.4413950000000 1.0
C      1  0.5287510000000  0.5541970000000  0.5687650000000 1.0
C      1  0.5191340000000  0.5099940000000  0.4488850000000 1.0
C      1  0.5260390000000  0.5097900000000  0.5502850000000 1.0
C      1  0.5226460000000  0.5963900000000  0.5464930000000 1.0
C      1  0.5047540000000  0.5943190000000  0.4705030000000 1.0
C      1  0.5375580000000  0.5002590000000  0.4029750000000 1.0
C      1  0.5398650000000  0.4841650000000  0.5913930000000 1.0
C      1  0.5279760000000  0.5821480000000  0.5700470000000 1.0
C      1  0.4980450000000  0.5821000000000  0.4462060000000 1.0
C      1  0.5183870000000  0.5442110000000  0.4176520000000 1.0
C      1  0.5359390000000  0.5341200000000  0.5884380000000 1.0
C      1  0.4552700000000  0.4590880000000  0.5122950000000 1.0
C      1  0.4938780000000  0.4209930000000  0.4754330000000 1.0
C      1  0.5168980000000  0.6021040000000  0.5212350000000 1.0
C      1  0.5108860000000  0.6009850000000  0.4954230000000 1.0
C      1  0.5344920000000  0.5071130000000  0.5779970000000 1.0
C      1  0.5261450000000  0.5165670000000  0.4213840000000 1.0
C      1  0.5421450000000  0.4871440000000  0.5111080000000 1.0
C      1  0.5442180000000  0.4888100000000  0.4845760000000 1.0
C      1  0.4965680000000  0.4792640000000  0.5263810000000 1.0
C      1  0.5116060000000  0.4630130000000  0.4617030000000 1.0
END
