TITL C-3623287-7182-875 14898.972975584 125000 -1182.45027174156 0 0 191 (C1) n - 1
REM
REM in /home/nfs/bkarasulu/CARBON/AIRSS/Generating-Clusters/LCBOP/Higher-Symm/SD-CG/FIRE-CG
REM
REM
REM
REM
REM
REM ./C.cell (b20cbc046b6831c77cfcea5457e17084)
REM AIRSS Version 0.9.1 bugfix July 2018 build 013d7b7c2542+ Fri, 06 Jul 2018 19:26:36 +0100
REM compiler GCC version 9.2.1 20190827 (Red Hat 9.2.1-1)
REM options -cpp -mtune=generic -march=x86-64 -g -O0 -fpre-include=/usr/include/finclude/math-vector-fortran.h
REM seed -357117604 -983947917 -1121907508 283181074 1335582866 2068473321 918466710 -1657791048 -372719697 313555042 1596882769 1031239340 -605196919 1089891318 1668159309 -1116382311 1951913266 232722908 -807942817 -750591625 -1556153702 1624697926 450483384 791349523 1906832430 741445590 -1307392300 183591449 1231638573 513112068 -1419995511 457418837 -704076206
REM
CELL 1.54180   50.00000   50.00000   50.00000   90.00000   90.00000   90.00000
LATT -1
SFAC C  
C      1  0.5344250000000  0.5567740000000  0.4141220000000 1.0
C      1  0.5260940000000  0.4867190000000  0.5672720000000 1.0
C      1  0.4507390000000  0.3887700000000  0.5136270000000 1.0
C      1  0.4643260000000  0.4612580000000  0.5102660000000 1.0
C      1  0.5671920000000  0.4258000000000  0.5477940000000 1.0
C      1  0.4375700000000  0.4422850000000  0.5584420000000 1.0
C      1  0.4253460000000  0.5887840000000  0.4905620000000 1.0
C      1  0.4448120000000  0.4975270000000  0.5873980000000 1.0
C      1  0.4491260000000  0.5634590000000  0.4057270000000 1.0
C      1  0.4323190000000  0.6066310000000  0.3980770000000 1.0
C      1  0.5276590000000  0.5713430000000  0.5976860000000 1.0
C      1  0.4027590000000  0.5415250000000  0.4557110000000 1.0
C      1  0.4394020000000  0.4620320000000  0.4694580000000 1.0
C      1  0.4735360000000  0.5981390000000  0.4553020000000 1.0
C      1  0.4457910000000  0.4162080000000  0.5193660000000 1.0
C      1  0.4442600000000  0.4806460000000  0.5154160000000 1.0
C      1  0.5693100000000  0.5450830000000  0.5802540000000 1.0
C      1  0.6130360000000  0.4713710000000  0.5420780000000 1.0
C      1  0.4086650000000  0.4296280000000  0.4639480000000 1.0
C      1  0.4479220000000  0.4869030000000  0.3717600000000 1.0
C      1  0.5978980000000  0.5387420000000  0.5863500000000 1.0
C      1  0.4677370000000  0.5059950000000  0.6045160000000 1.0
C      1  0.6173090000000  0.5437710000000  0.5349050000000 1.0
C      1  0.4518730000000  0.5061860000000  0.5018710000000 1.0
C      1  0.4228920000000  0.5613360000000  0.4504000000000 1.0
C      1  0.4866680000000  0.5720680000000  0.5734400000000 1.0
C      1  0.3958650000000  0.5231450000000  0.5331250000000 1.0
C      1  0.5059770000000  0.5456120000000  0.5286050000000 1.0
C      1  0.4658160000000  0.5046120000000  0.3807470000000 1.0
C      1  0.5472100000000  0.5160660000000  0.4406270000000 1.0
C      1  0.6048300000000  0.5622150000000  0.5175180000000 1.0
C      1  0.5395250000000  0.4204350000000  0.5566480000000 1.0
C      1  0.4693700000000  0.5629620000000  0.5958870000000 1.0
C      1  0.5613120000000  0.5577060000000  0.4275140000000 1.0
C      1  0.4386780000000  0.6154400000000  0.4228890000000 1.0
C      1  0.4866280000000  0.4362440000000  0.6023310000000 1.0
C      1  0.5158120000000  0.4553070000000  0.5345130000000 1.0
C      1  0.5964090000000  0.5742640000000  0.4544480000000 1.0
C      1  0.3840670000000  0.4463810000000  0.4649150000000 1.0
C      1  0.5098560000000  0.5876010000000  0.5798390000000 1.0
C      1  0.5723840000000  0.5299370000000  0.4362480000000 1.0
C      1  0.4614930000000  0.5208230000000  0.5286080000000 1.0
C      1  0.4915790000000  0.5528280000000  0.5523430000000 1.0
C      1  0.5539670000000  0.5975950000000  0.4610190000000 1.0
C      1  0.5705400000000  0.4180150000000  0.5191500000000 1.0
C      1  0.4975810000000  0.4268480000000  0.3517210000000 1.0
C      1  0.5544730000000  0.3943500000000  0.5117000000000 1.0
C      1  0.6140240000000  0.5025400000000  0.5008690000000 1.0
C      1  0.3983940000000  0.4934550000000  0.5254760000000 1.0
C      1  0.5096630000000  0.4099210000000  0.5183040000000 1.0
C      1  0.4618140000000  0.4508850000000  0.4571920000000 1.0
C      1  0.4398550000000  0.5025100000000  0.4398650000000 1.0
C      1  0.5202370000000  0.4275890000000  0.5374730000000 1.0
C      1  0.4118880000000  0.5654040000000  0.3769900000000 1.0
C      1  0.5174410000000  0.5458900000000  0.6058380000000 1.0
C      1  0.5509360000000  0.4215900000000  0.4554510000000 1.0
C      1  0.5318380000000  0.5118720000000  0.5765400000000 1.0
C      1  0.4112110000000  0.4469740000000  0.5121870000000 1.0
C      1  0.4377550000000  0.4309660000000  0.5844410000000 1.0
C      1  0.5424640000000  0.5678370000000  0.5133810000000 1.0
C      1  0.3919590000000  0.4698250000000  0.5093720000000 1.0
C      1  0.4328890000000  0.5798270000000  0.3891460000000 1.0
C      1  0.4522460000000  0.6066080000000  0.5274050000000 1.0
C      1  0.3852800000000  0.4724640000000  0.4808250000000 1.0
C      1  0.4146230000000  0.4625920000000  0.4010780000000 1.0
C      1  0.5065520000000  0.4717760000000  0.5549760000000 1.0
C      1  0.6074280000000  0.5142410000000  0.5743300000000 1.0
C      1  0.5926470000000  0.4891350000000  0.5832030000000 1.0
C      1  0.5678000000000  0.5215680000000  0.5352800000000 1.0
C      1  0.5203270000000  0.4123650000000  0.3923280000000 1.0
C      1  0.4444690000000  0.5913690000000  0.5481770000000 1.0
C      1  0.4109570000000  0.5248440000000  0.5591450000000 1.0
C      1  0.5270880000000  0.3804030000000  0.4581820000000 1.0
C      1  0.5378030000000  0.4007130000000  0.4417990000000 1.0
C      1  0.4795830000000  0.4804770000000  0.5548910000000 1.0
C      1  0.4861110000000  0.4518120000000  0.4155940000000 1.0
C      1  0.5278550000000  0.5327500000000  0.3986220000000 1.0
C      1  0.4261980000000  0.4324720000000  0.5331820000000 1.0
C      1  0.5438030000000  0.4690580000000  0.3736270000000 1.0
C      1  0.5679570000000  0.4961640000000  0.5290470000000 1.0
C      1  0.5514000000000  0.4369450000000  0.4791150000000 1.0
C      1  0.5024660000000  0.4593360000000  0.4382610000000 1.0
C      1  0.4504830000000  0.5480240000000  0.5276930000000 1.0
C      1  0.5262670000000  0.4732000000000  0.4429160000000 1.0
C      1  0.5409520000000  0.4927840000000  0.4564650000000 1.0
C      1  0.5307580000000  0.4580270000000  0.6124930000000 1.0
C      1  0.5174740000000  0.4692650000000  0.5081820000000 1.0
C      1  0.6117000000000  0.6154600000000  0.5228150000000 1.0
C      1  0.4425120000000  0.5558530000000  0.4306550000000 1.0
C      1  0.6033880000000  0.4602820000000  0.4141340000000 1.0
C      1  0.5745550000000  0.4359750000000  0.4961100000000 1.0
C      1  0.4007980000000  0.5423100000000  0.3857420000000 1.0
C      1  0.5936380000000  0.5251520000000  0.4576670000000 1.0
C      1  0.5259110000000  0.6015050000000  0.5589330000000 1.0
C      1  0.4253510000000  0.4867540000000  0.5372910000000 1.0
C      1  0.5107820000000  0.5281630000000  0.5837860000000 1.0
C      1  0.4585420000000  0.3828810000000  0.4859020000000 1.0
C      1  0.5407890000000  0.5043750000000  0.4840120000000 1.0
C      1  0.5129770000000  0.5653080000000  0.5091870000000 1.0
C      1  0.4906220000000  0.5690940000000  0.4907110000000 1.0
C      1  0.5544300000000  0.5714050000000  0.5862140000000 1.0
C      1  0.5721910000000  0.4368630000000  0.5946610000000 1.0
C      1  0.4293530000000  0.5256900000000  0.4936990000000 1.0
C      1  0.4275180000000  0.5007610000000  0.5639700000000 1.0
C      1  0.6178600000000  0.4961160000000  0.5287420000000 1.0
C      1  0.3950720000000  0.5489330000000  0.5180550000000 1.0
C      1  0.5873800000000  0.5540400000000  0.4962530000000 1.0
C      1  0.5002980000000  0.4561760000000  0.3910020000000 1.0
C      1  0.6026150000000  0.5010080000000  0.4741170000000 1.0
C      1  0.4890050000000  0.4507860000000  0.4613670000000 1.0
C      1  0.5970910000000  0.4657980000000  0.5653480000000 1.0
C      1  0.6177830000000  0.5182400000000  0.5471520000000 1.0
C      1  0.4455230000000  0.5500780000000  0.4988080000000 1.0
C      1  0.5197710000000  0.4784130000000  0.3856750000000 1.0
C      1  0.5320440000000  0.6162410000000  0.5073270000000 1.0
C      1  0.5434860000000  0.4841810000000  0.6167440000000 1.0
C      1  0.5007900000000  0.4600550000000  0.6108350000000 1.0
C      1  0.4608570000000  0.3746290000000  0.5360260000000 1.0
C      1  0.4943160000000  0.5886020000000  0.4374180000000 1.0
C      1  0.5644630000000  0.4707130000000  0.5270210000000 1.0
C      1  0.4922920000000  0.4889180000000  0.6147700000000 1.0
C      1  0.5315050000000  0.4027790000000  0.4145730000000 1.0
C      1  0.5031330000000  0.4363590000000  0.4800290000000 1.0
C      1  0.4726790000000  0.5463880000000  0.4853530000000 1.0
C      1  0.4908110000000  0.4222270000000  0.5010760000000 1.0
C      1  0.5584250000000  0.5522590000000  0.4958370000000 1.0
C      1  0.4683980000000  0.5355880000000  0.6060580000000 1.0
C      1  0.4665340000000  0.4329470000000  0.5103570000000 1.0
C      1  0.5990910000000  0.5508910000000  0.4704570000000 1.0
C      1  0.4566770000000  0.4370620000000  0.4337190000000 1.0
C      1  0.5295420000000  0.4199420000000  0.5834470000000 1.0
C      1  0.5322400000000  0.5372180000000  0.4557240000000 1.0
C      1  0.4395470000000  0.5637480000000  0.5486130000000 1.0
C      1  0.5821740000000  0.4413090000000  0.5680680000000 1.0
C      1  0.4284600000000  0.4702540000000  0.3794960000000 1.0
C      1  0.4747430000000  0.3790480000000  0.5586510000000 1.0
C      1  0.5191760000000  0.5013570000000  0.6248170000000 1.0
C      1  0.4656140000000  0.5104510000000  0.4501160000000 1.0
C      1  0.5677800000000  0.4947410000000  0.6003880000000 1.0
C      1  0.4590770000000  0.4612770000000  0.5565600000000 1.0
C      1  0.4314010000000  0.4152890000000  0.4483480000000 1.0
C      1  0.5215570000000  0.5067730000000  0.3922080000000 1.0
C      1  0.4894250000000  0.5273550000000  0.5657540000000 1.0
C      1  0.4514050000000  0.5991200000000  0.5003090000000 1.0
C      1  0.4459570000000  0.6034970000000  0.4474220000000 1.0
C      1  0.4715470000000  0.5166010000000  0.4780960000000 1.0
C      1  0.4436580000000  0.3935190000000  0.4633940000000 1.0
C      1  0.4266900000000  0.5134670000000  0.4168110000000 1.0
C      1  0.5948720000000  0.4531440000000  0.4861350000000 1.0
C      1  0.4056740000000  0.5719770000000  0.5059040000000 1.0
C      1  0.5233720000000  0.6145820000000  0.5333920000000 1.0
C      1  0.5264820000000  0.3901960000000  0.5060330000000 1.0
C      1  0.4753650000000  0.5085020000000  0.5503390000000 1.0
C      1  0.4779420000000  0.5153870000000  0.4020120000000 1.0
C      1  0.4027400000000  0.5270840000000  0.4093890000000 1.0
C      1  0.4121270000000  0.4665510000000  0.4274070000000 1.0
C      1  0.4234640000000  0.4808040000000  0.4520900000000 1.0
C      1  0.5509440000000  0.5869000000000  0.5608600000000 1.0
C      1  0.4079320000000  0.5208790000000  0.4753070000000 1.0
C      1  0.3877850000000  0.5346650000000  0.4324380000000 1.0
C      1  0.5150350000000  0.5188510000000  0.5221420000000 1.0
C      1  0.5059990000000  0.4314540000000  0.3772560000000 1.0
C      1  0.5138900000000  0.3776440000000  0.4829930000000 1.0
C      1  0.5701170000000  0.5799800000000  0.4445590000000 1.0
C      1  0.5659740000000  0.5449970000000  0.5493390000000 1.0
C      1  0.4262770000000  0.5869980000000  0.4619170000000 1.0
C      1  0.5692950000000  0.4619380000000  0.3757390000000 1.0
C      1  0.6099380000000  0.5895400000000  0.5207900000000 1.0
C      1  0.5206430000000  0.5296940000000  0.6288770000000 1.0
C      1  0.6003330000000  0.4732520000000  0.4662800000000 1.0
C      1  0.5133590000000  0.5747320000000  0.4234940000000 1.0
C      1  0.4583950000000  0.4329130000000  0.6020700000000 1.0
C      1  0.5549200000000  0.5693300000000  0.5390950000000 1.0
C      1  0.4854970000000  0.3734950000000  0.4825720000000 1.0
C      1  0.4755910000000  0.5930730000000  0.4839480000000 1.0
C      1  0.5563930000000  0.5186140000000  0.5877560000000 1.0
C      1  0.4882470000000  0.4735050000000  0.5024750000000 1.0
C      1  0.6056270000000  0.4656340000000  0.4399820000000 1.0
C      1  0.5909530000000  0.4587080000000  0.3907510000000 1.0
C      1  0.5435090000000  0.5333340000000  0.4817390000000 1.0
C      1  0.5017650000000  0.4152920000000  0.5887190000000 1.0
C      1  0.5447100000000  0.4360860000000  0.6013400000000 1.0
C      1  0.4542680000000  0.5819830000000  0.6089860000000 1.0
C      1  0.4884590000000  0.3934280000000  0.5766360000000 1.0
C      1  0.4013770000000  0.4933600000000  0.4685700000000 1.0
C      1  0.4236900000000  0.4437100000000  0.4854020000000 1.0
C      1  0.5277070000000  0.4490540000000  0.4880670000000 1.0
C      1  0.4214500000000  0.5502830000000  0.5654390000000 1.0
C      1  0.4827420000000  0.5164640000000  0.4285260000000 1.0
C      1  0.5427680000000  0.6096140000000  0.4829440000000 1.0
C      1  0.5264920000000  0.4972980000000  0.5069790000000 1.0
END
