TITL C-3623284-6838-498 79335.5663715131 125000 -867.544710320383 0 0 142 (C1) n - 1
REM
REM in /home/nfs/bkarasulu/CARBON/AIRSS/Generating-Clusters/LCBOP/Higher-Symm/SD-CG/FIRE-CG
REM
REM
REM
REM
REM
REM ./C.cell (b20cbc046b6831c77cfcea5457e17084)
REM AIRSS Version 0.9.1 bugfix July 2018 build 013d7b7c2542+ Fri, 06 Jul 2018 19:26:36 +0100
REM compiler GCC version 9.2.1 20190827 (Red Hat 9.2.1-1)
REM options -cpp -mtune=generic -march=x86-64 -g -O0 -fpre-include=/usr/include/finclude/math-vector-fortran.h
REM seed 1876644914 1911424892 660173104 1883167895 -794339084 1188472032 -1045736180 1961004702 -168156905 125432845 -1372226091 1691958196 -1779532375 1872800195 1855521463 1229850245 1698695814 -671044356 446012026 -1565695917 -674688909 298748269 -1840800024 -1220327896 -2082921439 -825453522 1801431896 919217827 -881697798 2008279591 -1256513164 -1118790015 283583160
REM
CELL 1.54180   50.00000   50.00000   50.00000   90.00000   90.00000   90.00000
LATT -1
SFAC C  
C      1  0.5152200000000  0.4399990000000  0.4879810000000 1.0
C      1  0.5476680000000  0.5103870000000  0.5087330000000 1.0
C      1  0.4915460000000  0.5581090000000  0.4853670000000 1.0
C      1  0.4402190000000  0.4876140000000  0.5127020000000 1.0
C      1  0.4603600000000  0.4131240000000  0.5556920000000 1.0
C      1  0.5778680000000  0.4439360000000  0.4353190000000 1.0
C      1  0.5516970000000  0.5826330000000  0.5682560000000 1.0
C      1  0.4180390000000  0.5566540000000  0.4486790000000 1.0
C      1  0.5022460000000  0.4845770000000  0.5028440000000 1.0
C      1  0.4999680000000  0.5107060000000  0.4952660000000 1.0
C      1  0.4756170000000  0.5214920000000  0.5020140000000 1.0
C      1  0.4822630000000  0.4663670000000  0.4952390000000 1.0
C      1  0.5476820000000  0.4838220000000  0.5193890000000 1.0
C      1  0.5140180000000  0.5494710000000  0.4717400000000 1.0
C      1  0.4383500000000  0.5147380000000  0.5240320000000 1.0
C      1  0.4979940000000  0.4249610000000  0.4711000000000 1.0
C      1  0.4998550000000  0.4393520000000  0.4089620000000 1.0
C      1  0.5592810000000  0.5032800000000  0.5861090000000 1.0
C      1  0.5049460000000  0.5600830000000  0.4037560000000 1.0
C      1  0.4373980000000  0.4975620000000  0.5862790000000 1.0
C      1  0.5191590000000  0.4763360000000  0.5926420000000 1.0
C      1  0.5292280000000  0.5161550000000  0.4010220000000 1.0
C      1  0.4804220000000  0.5246840000000  0.5921090000000 1.0
C      1  0.4774690000000  0.4828990000000  0.4028900000000 1.0
C      1  0.5745990000000  0.5778910000000  0.5544890000000 1.0
C      1  0.4197400000000  0.5666680000000  0.4755710000000 1.0
C      1  0.4329840000000  0.4188440000000  0.5491990000000 1.0
C      1  0.5712570000000  0.4205350000000  0.4480260000000 1.0
C      1  0.4565240000000  0.5300150000000  0.4816480000000 1.0
C      1  0.4672520000000  0.4488240000000  0.5150920000000 1.0
C      1  0.5555840000000  0.4621450000000  0.4773050000000 1.0
C      1  0.5411510000000  0.5571770000000  0.5209580000000 1.0
C      1  0.4096800000000  0.5526680000000  0.4984140000000 1.0
C      1  0.4620760000000  0.4077410000000  0.4910760000000 1.0
C      1  0.5956200000000  0.4740270000000  0.5142840000000 1.0
C      1  0.5376000000000  0.5883050000000  0.4846910000000 1.0
C      1  0.5740700000000  0.4962430000000  0.4257600000000 1.0
C      1  0.5004390000000  0.5764460000000  0.5723930000000 1.0
C      1  0.4345650000000  0.5093010000000  0.4274120000000 1.0
C      1  0.5031590000000  0.4277790000000  0.5766790000000 1.0
C      1  0.5579760000000  0.5455550000000  0.4363270000000 1.0
C      1  0.4483250000000  0.5611970000000  0.5679560000000 1.0
C      1  0.4451910000000  0.4530620000000  0.4390160000000 1.0
C      1  0.5487800000000  0.4455770000000  0.5610910000000 1.0
C      1  0.5114740000000  0.5977970000000  0.5260600000000 1.0
C      1  0.4079670000000  0.5062130000000  0.4696160000000 1.0
C      1  0.4855140000000  0.4068630000000  0.5360140000000 1.0
C      1  0.5905000000000  0.4978380000000  0.4729790000000 1.0
C      1  0.4430110000000  0.5861180000000  0.5518400000000 1.0
C      1  0.4260030000000  0.4501150000000  0.4626990000000 1.0
C      1  0.5509630000000  0.4246730000000  0.5394410000000 1.0
C      1  0.5756540000000  0.5481280000000  0.4611490000000 1.0
C      1  0.4074360000000  0.4515790000000  0.5153320000000 1.0
C      1  0.5437240000000  0.3998460000000  0.4908500000000 1.0
C      1  0.5932440000000  0.5474040000000  0.5137460000000 1.0
C      1  0.4581040000000  0.5967560000000  0.4965210000000 1.0
C      1  0.4939980000000  0.5589180000000  0.5132820000000 1.0
C      1  0.4457950000000  0.4869250000000  0.4837700000000 1.0
C      1  0.5148830000000  0.4453040000000  0.5173620000000 1.0
C      1  0.5438350000000  0.5097670000000  0.4802150000000 1.0
C      1  0.5382520000000  0.5682280000000  0.4366640000000 1.0
C      1  0.4277400000000  0.5397770000000  0.5665860000000 1.0
C      1  0.4636340000000  0.4291130000000  0.4397510000000 1.0
C      1  0.5692750000000  0.4665560000000  0.5566280000000 1.0
C      1  0.5167790000000  0.5690810000000  0.5253070000000 1.0
C      1  0.4361440000000  0.5120380000000  0.4751010000000 1.0
C      1  0.4903620000000  0.4357300000000  0.5278260000000 1.0
C      1  0.5626960000000  0.4892380000000  0.4729390000000 1.0
C      1  0.4858830000000  0.3944680000000  0.5061210000000 1.0
C      1  0.6008100000000  0.4986120000000  0.5000570000000 1.0
C      1  0.5136750000000  0.6033120000000  0.4959790000000 1.0
C      1  0.3941550000000  0.4946760000000  0.4927870000000 1.0
C      1  0.5227860000000  0.5428200000000  0.3895130000000 1.0
C      1  0.4541200000000  0.5154920000000  0.6012100000000 1.0
C      1  0.4837550000000  0.4565240000000  0.3930140000000 1.0
C      1  0.5450650000000  0.4851270000000  0.6026720000000 1.0
C      1  0.4865830000000  0.5854640000000  0.4452670000000 1.0
C      1  0.4035430000000  0.4951560000000  0.5457190000000 1.0
C      1  0.5083760000000  0.4068200000000  0.4531330000000 1.0
C      1  0.5930600000000  0.5099760000000  0.5483560000000 1.0
C      1  0.5986420000000  0.5198730000000  0.5204590000000 1.0
C      1  0.4874710000000  0.6011900000000  0.4777730000000 1.0
C      1  0.3979890000000  0.4800560000000  0.5187500000000 1.0
C      1  0.5161750000000  0.3900000000000  0.4885460000000 1.0
C      1  0.4995630000000  0.5994840000000  0.5529340000000 1.0
C      1  0.4086420000000  0.5039660000000  0.4408430000000 1.0
C      1  0.5070560000000  0.4049170000000  0.5579820000000 1.0
C      1  0.5954300000000  0.5016310000000  0.4449750000000 1.0
C      1  0.5283060000000  0.5708240000000  0.5800530000000 1.0
C      1  0.4392190000000  0.5445080000000  0.4333480000000 1.0
C      1  0.4734520000000  0.4288390000000  0.5783370000000 1.0
C      1  0.5682670000000  0.4676420000000  0.4215600000000 1.0
C      1  0.4910960000000  0.5205140000000  0.4258740000000 1.0
C      1  0.4645900000000  0.4793090000000  0.5530710000000 1.0
C      1  0.5138710000000  0.4646320000000  0.4475780000000 1.0
C      1  0.5296370000000  0.5183500000000  0.5510000000000 1.0
C      1  0.4644380000000  0.5599980000000  0.4313440000000 1.0
C      1  0.4586960000000  0.4501820000000  0.5896790000000 1.0
C      1  0.5436200000000  0.4622680000000  0.4090190000000 1.0
C      1  0.5338100000000  0.5455690000000  0.5909210000000 1.0
C      1  0.4835390000000  0.5457540000000  0.4166350000000 1.0
C      1  0.4517770000000  0.4746150000000  0.5777250000000 1.0
C      1  0.5201680000000  0.4543960000000  0.4217720000000 1.0
C      1  0.5419340000000  0.5233910000000  0.5761570000000 1.0
C      1  0.5781150000000  0.5561000000000  0.4895140000000 1.0
C      1  0.4551990000000  0.5884560000000  0.5254350000000 1.0
C      1  0.4236890000000  0.4427400000000  0.4915000000000 1.0
C      1  0.5545640000000  0.4196640000000  0.5107150000000 1.0
C      1  0.5589250000000  0.4033790000000  0.4655380000000 1.0
C      1  0.5904730000000  0.5654820000000  0.5363270000000 1.0
C      1  0.4457750000000  0.5769210000000  0.4801740000000 1.0
C      1  0.4132960000000  0.4342900000000  0.5380860000000 1.0
C      1  0.5308500000000  0.5702740000000  0.4638170000000 1.0
C      1  0.4195420000000  0.5349320000000  0.5165460000000 1.0
C      1  0.4697000000000  0.4205540000000  0.4667530000000 1.0
C      1  0.5712380000000  0.4712160000000  0.5284330000000 1.0
C      1  0.4668210000000  0.5193960000000  0.5289340000000 1.0
C      1  0.4697170000000  0.4759910000000  0.4720680000000 1.0
C      1  0.5196090000000  0.4748940000000  0.5243170000000 1.0
C      1  0.5165500000000  0.5202050000000  0.4716600000000 1.0
C      1  0.4648910000000  0.5560010000000  0.4761260000000 1.0
C      1  0.4526810000000  0.4689990000000  0.5300000000000 1.0
C      1  0.5293650000000  0.4565440000000  0.4697630000000 1.0
C      1  0.5418090000000  0.5299430000000  0.5276850000000 1.0
C      1  0.4195650000000  0.5109800000000  0.5668750000000 1.0
C      1  0.4883970000000  0.4193000000000  0.4254040000000 1.0
C      1  0.5779640000000  0.4926680000000  0.5673360000000 1.0
C      1  0.5143260000000  0.5781810000000  0.4237540000000 1.0
C      1  0.4915000000000  0.4820530000000  0.4534280000000 1.0
C      1  0.5104230000000  0.4966680000000  0.5456860000000 1.0
C      1  0.4989590000000  0.5093470000000  0.4500450000000 1.0
C      1  0.4814870000000  0.5014070000000  0.5465100000000 1.0
C      1  0.5227030000000  0.4498520000000  0.5775330000000 1.0
C      1  0.5539450000000  0.5184520000000  0.4202590000000 1.0
C      1  0.4777930000000  0.5548190000000  0.5780450000000 1.0
C      1  0.4518250000000  0.4833580000000  0.4217310000000 1.0
C      1  0.4706420000000  0.5643500000000  0.5260970000000 1.0
C      1  0.4476110000000  0.4295190000000  0.5030140000000 1.0
C      1  0.5659750000000  0.4419640000000  0.4950970000000 1.0
C      1  0.5555940000000  0.5712550000000  0.5005290000000 1.0
C      1  0.5009060000000  0.5029110000000  0.4047470000000 1.0
C      1  0.4995300000000  0.5001560000000  0.5931720000000 1.0
END
