TITL C-3623285-6872-1985 119.518626169715 125000 -1095.76238910647 0 0 177 (C1) n - 1
REM
REM in /home/nfs/bkarasulu/CARBON/AIRSS/Generating-Clusters/LCBOP/Higher-Symm/SD-CG/FIRE-CG
REM
REM
REM
REM
REM
REM ./C.cell (b20cbc046b6831c77cfcea5457e17084)
REM AIRSS Version 0.9.1 bugfix July 2018 build 013d7b7c2542+ Fri, 06 Jul 2018 19:26:36 +0100
REM compiler GCC version 9.2.1 20190827 (Red Hat 9.2.1-1)
REM options -cpp -mtune=generic -march=x86-64 -g -O0 -fpre-include=/usr/include/finclude/math-vector-fortran.h
REM seed 821047746 944349922 40364048 -522719123 -1662755086 -511149964 747529204 -48733159 86357808 -1741748508 553453622 -974246795 1003864020 -1467121265 2038829173 -1084674224 1856492301 856754446 1070933058 1956075947 -312842222 -524533420 425646952 471313863 238201651 1552496520 -1253739853 -1510614787 -316643421 -251286782 -1039620038 1294289476 1049776282
REM
CELL 1.54180   50.00000   50.00000   50.00000   90.00000   90.00000   90.00000
LATT -1
SFAC C  
C      1  0.4791930000000  0.5715010000000  0.4115450000000 1.0
C      1  0.5546260000000  0.3879330000000  0.4861720000000 1.0
C      1  0.4914980000000  0.5283100000000  0.4308980000000 1.0
C      1  0.5926480000000  0.5875670000000  0.4955080000000 1.0
C      1  0.4746860000000  0.4879120000000  0.4495200000000 1.0
C      1  0.4004690000000  0.5592560000000  0.4727840000000 1.0
C      1  0.5223860000000  0.6082070000000  0.5214010000000 1.0
C      1  0.5424270000000  0.5258810000000  0.5619400000000 1.0
C      1  0.4847920000000  0.5134940000000  0.4538420000000 1.0
C      1  0.5474350000000  0.5269160000000  0.6207570000000 1.0
C      1  0.4270900000000  0.5676420000000  0.5891290000000 1.0
C      1  0.4617440000000  0.6203740000000  0.4809040000000 1.0
C      1  0.5747430000000  0.5251640000000  0.4031360000000 1.0
C      1  0.5594680000000  0.4745050000000  0.4923010000000 1.0
C      1  0.4735500000000  0.4315810000000  0.5909870000000 1.0
C      1  0.5214310000000  0.4293050000000  0.5179300000000 1.0
C      1  0.5089500000000  0.6167450000000  0.4602550000000 1.0
C      1  0.5829750000000  0.5322670000000  0.5024310000000 1.0
C      1  0.5008680000000  0.5448320000000  0.4893910000000 1.0
C      1  0.4687940000000  0.5783590000000  0.5031540000000 1.0
C      1  0.6281560000000  0.4734300000000  0.5042140000000 1.0
C      1  0.4987600000000  0.4349030000000  0.4185520000000 1.0
C      1  0.5178440000000  0.5423970000000  0.5124460000000 1.0
C      1  0.3840510000000  0.5028630000000  0.4938360000000 1.0
C      1  0.4887910000000  0.4437570000000  0.4616010000000 1.0
C      1  0.5459570000000  0.4228040000000  0.5308770000000 1.0
C      1  0.5931450000000  0.4679830000000  0.5571920000000 1.0
C      1  0.5076300000000  0.5303420000000  0.3854360000000 1.0
C      1  0.4744280000000  0.5044210000000  0.5003730000000 1.0
C      1  0.5345190000000  0.4649450000000  0.4844440000000 1.0
C      1  0.4411880000000  0.4773930000000  0.4794030000000 1.0
C      1  0.4708990000000  0.5663500000000  0.5285450000000 1.0
C      1  0.4941990000000  0.4755560000000  0.5987750000000 1.0
C      1  0.4571980000000  0.4909050000000  0.5535240000000 1.0
C      1  0.5891750000000  0.4608680000000  0.4358990000000 1.0
C      1  0.5737040000000  0.4102870000000  0.4897880000000 1.0
C      1  0.5162690000000  0.5039190000000  0.3877530000000 1.0
C      1  0.4789140000000  0.4067340000000  0.5766820000000 1.0
C      1  0.4144260000000  0.4539790000000  0.5404700000000 1.0
C      1  0.6218820000000  0.4486480000000  0.5165410000000 1.0
C      1  0.3891760000000  0.5229310000000  0.5362880000000 1.0
C      1  0.4225270000000  0.5931800000000  0.4978090000000 1.0
C      1  0.4810710000000  0.5455770000000  0.6135640000000 1.0
C      1  0.4506330000000  0.4292220000000  0.5472870000000 1.0
C      1  0.4117270000000  0.5743070000000  0.5186400000000 1.0
C      1  0.5280180000000  0.5614890000000  0.5316370000000 1.0
C      1  0.5523030000000  0.5754160000000  0.4461000000000 1.0
C      1  0.5350190000000  0.4159230000000  0.5757560000000 1.0
C      1  0.4938100000000  0.5537650000000  0.3922740000000 1.0
C      1  0.4878900000000  0.3833400000000  0.5057190000000 1.0
C      1  0.4309560000000  0.4028450000000  0.5027110000000 1.0
C      1  0.5159300000000  0.5303790000000  0.5790560000000 1.0
C      1  0.6069240000000  0.4832150000000  0.4323960000000 1.0
C      1  0.4913420000000  0.5192070000000  0.4802470000000 1.0
C      1  0.5732390000000  0.5574760000000  0.4405770000000 1.0
C      1  0.5465370000000  0.3781490000000  0.5380490000000 1.0
C      1  0.5659250000000  0.5106200000000  0.5769580000000 1.0
C      1  0.6068420000000  0.4879430000000  0.4930760000000 1.0
C      1  0.5727910000000  0.5014760000000  0.3909440000000 1.0
C      1  0.4733460000000  0.3833160000000  0.5294650000000 1.0
C      1  0.3947740000000  0.5541120000000  0.5014820000000 1.0
C      1  0.4091040000000  0.4420120000000  0.4639030000000 1.0
C      1  0.4787200000000  0.4308750000000  0.4842250000000 1.0
C      1  0.4276840000000  0.4820240000000  0.4315630000000 1.0
C      1  0.6156660000000  0.5079490000000  0.4384280000000 1.0
C      1  0.6170630000000  0.4282140000000  0.4969860000000 1.0
C      1  0.5137060000000  0.5856890000000  0.5373580000000 1.0
C      1  0.4686280000000  0.4754920000000  0.3876520000000 1.0
C      1  0.5212070000000  0.4792140000000  0.4636880000000 1.0
C      1  0.4852940000000  0.4998220000000  0.5541330000000 1.0
C      1  0.5235370000000  0.5321780000000  0.6065920000000 1.0
C      1  0.4499480000000  0.4795940000000  0.5296440000000 1.0
C      1  0.5389760000000  0.5245460000000  0.4369020000000 1.0
C      1  0.4876280000000  0.5270570000000  0.5684010000000 1.0
C      1  0.5329090000000  0.3926040000000  0.4674690000000 1.0
C      1  0.5242620000000  0.5713270000000  0.4422130000000 1.0
C      1  0.5895970000000  0.4507160000000  0.4632670000000 1.0
C      1  0.4361580000000  0.5255600000000  0.5245640000000 1.0
C      1  0.4631640000000  0.5576690000000  0.4614720000000 1.0
C      1  0.6088840000000  0.4522020000000  0.5417670000000 1.0
C      1  0.5911030000000  0.5795840000000  0.5693870000000 1.0
C      1  0.5438880000000  0.4034920000000  0.5518800000000 1.0
C      1  0.5481640000000  0.5528080000000  0.5500500000000 1.0
C      1  0.4258180000000  0.4319650000000  0.4449050000000 1.0
C      1  0.4601770000000  0.5614100000000  0.4320470000000 1.0
C      1  0.5689400000000  0.4224920000000  0.5154210000000 1.0
C      1  0.5203370000000  0.4498350000000  0.4055130000000 1.0
C      1  0.5499090000000  0.3734200000000  0.5110230000000 1.0
C      1  0.5252420000000  0.4654830000000  0.5643820000000 1.0
C      1  0.5712220000000  0.4845440000000  0.5635860000000 1.0
C      1  0.6021510000000  0.5142210000000  0.5004160000000 1.0
C      1  0.4842520000000  0.4023200000000  0.4855080000000 1.0
C      1  0.4405530000000  0.5256240000000  0.6119050000000 1.0
C      1  0.4588440000000  0.5380680000000  0.5674570000000 1.0
C      1  0.5083650000000  0.5954840000000  0.4412630000000 1.0
C      1  0.4469640000000  0.6384960000000  0.4669040000000 1.0
C      1  0.5068550000000  0.4282780000000  0.4457760000000 1.0
C      1  0.4457460000000  0.5388180000000  0.4206920000000 1.0
C      1  0.4486800000000  0.5485090000000  0.5398610000000 1.0
C      1  0.4706060000000  0.4482400000000  0.5047120000000 1.0
C      1  0.4489270000000  0.4762340000000  0.5985560000000 1.0
C      1  0.5016620000000  0.6219980000000  0.5077020000000 1.0
C      1  0.4680930000000  0.5184090000000  0.6173220000000 1.0
C      1  0.5468880000000  0.4386730000000  0.4138530000000 1.0
C      1  0.4820010000000  0.5650970000000  0.4819420000000 1.0
C      1  0.4502040000000  0.4189240000000  0.4351860000000 1.0
C      1  0.4079920000000  0.4797890000000  0.5293270000000 1.0
C      1  0.5681070000000  0.4578380000000  0.4163910000000 1.0
C      1  0.4978530000000  0.4461970000000  0.5977390000000 1.0
C      1  0.5637410000000  0.5345290000000  0.4269440000000 1.0
C      1  0.5580010000000  0.4793120000000  0.3991110000000 1.0
C      1  0.4278000000000  0.5714430000000  0.5430760000000 1.0
C      1  0.4827330000000  0.3887560000000  0.4595240000000 1.0
C      1  0.4875370000000  0.3994870000000  0.5499870000000 1.0
C      1  0.6143580000000  0.5335070000000  0.4468150000000 1.0
C      1  0.5265900000000  0.4378700000000  0.4900370000000 1.0
C      1  0.5502660000000  0.5311840000000  0.6474740000000 1.0
C      1  0.4556430000000  0.3958430000000  0.4521100000000 1.0
C      1  0.4945630000000  0.4704240000000  0.4579100000000 1.0
C      1  0.3961110000000  0.4771700000000  0.5018890000000 1.0
C      1  0.5027070000000  0.4824250000000  0.5716690000000 1.0
C      1  0.5098710000000  0.3782200000000  0.4560290000000 1.0
C      1  0.5613430000000  0.5436090000000  0.4936090000000 1.0
C      1  0.4405810000000  0.4917750000000  0.5761160000000 1.0
C      1  0.4723870000000  0.4896020000000  0.6109600000000 1.0
C      1  0.4901390000000  0.6211920000000  0.4816710000000 1.0
C      1  0.4704060000000  0.5835280000000  0.5729680000000 1.0
C      1  0.4146680000000  0.4323680000000  0.5116440000000 1.0
C      1  0.4502780000000  0.5991070000000  0.4961380000000 1.0
C      1  0.4679040000000  0.5017480000000  0.3935080000000 1.0
C      1  0.5486770000000  0.6126730000000  0.5092790000000 1.0
C      1  0.5334300000000  0.6304450000000  0.4643930000000 1.0
C      1  0.4975900000000  0.4232210000000  0.5342580000000 1.0
C      1  0.4338690000000  0.4469840000000  0.5617400000000 1.0
C      1  0.4369830000000  0.3945800000000  0.4755700000000 1.0
C      1  0.6120960000000  0.5911220000000  0.5796660000000 1.0
C      1  0.4380890000000  0.5414260000000  0.5888170000000 1.0
C      1  0.5681010000000  0.5167100000000  0.6043020000000 1.0
C      1  0.4034340000000  0.4502080000000  0.4907350000000 1.0
C      1  0.4866370000000  0.5809870000000  0.5480940000000 1.0
C      1  0.4121080000000  0.5051080000000  0.4282140000000 1.0
C      1  0.4305190000000  0.4629000000000  0.4110900000000 1.0
C      1  0.3833750000000  0.5287510000000  0.5087420000000 1.0
C      1  0.4687990000000  0.4332340000000  0.4157380000000 1.0
C      1  0.5952240000000  0.4256010000000  0.4777180000000 1.0
C      1  0.5987540000000  0.5563620000000  0.4531480000000 1.0
C      1  0.5346170000000  0.4997920000000  0.4496700000000 1.0
C      1  0.4137830000000  0.5081830000000  0.5355630000000 1.0
C      1  0.4683860000000  0.5224400000000  0.4124070000000 1.0
C      1  0.4796170000000  0.5690020000000  0.5978560000000 1.0
C      1  0.4447010000000  0.3889440000000  0.5250230000000 1.0
C      1  0.4927180000000  0.5037700000000  0.5250610000000 1.0
C      1  0.5854550000000  0.4724520000000  0.4822820000000 1.0
C      1  0.5222240000000  0.4408460000000  0.5809810000000 1.0
C      1  0.4486410000000  0.4488540000000  0.5880550000000 1.0
C      1  0.5481210000000  0.6305880000000  0.4869920000000 1.0
C      1  0.5725090000000  0.5976540000000  0.5102210000000 1.0
C      1  0.4728160000000  0.4374730000000  0.5305990000000 1.0
C      1  0.4602340000000  0.4763050000000  0.5022510000000 1.0
C      1  0.5184940000000  0.5150170000000  0.5217540000000 1.0
C      1  0.4471880000000  0.4821160000000  0.4524590000000 1.0
C      1  0.5454710000000  0.4795770000000  0.5504600000000 1.0
C      1  0.4392820000000  0.5840250000000  0.5683690000000 1.0
C      1  0.4433740000000  0.5391310000000  0.4744520000000 1.0
C      1  0.5700420000000  0.5677620000000  0.5585000000000 1.0
C      1  0.4212070000000  0.5311110000000  0.4335360000000 1.0
C      1  0.5372370000000  0.5055060000000  0.5400150000000 1.0
C      1  0.4182610000000  0.5409340000000  0.4603400000000 1.0
C      1  0.5264370000000  0.4205570000000  0.4657640000000 1.0
C      1  0.4085380000000  0.5870570000000  0.4732280000000 1.0
C      1  0.4386420000000  0.4036190000000  0.5481970000000 1.0
C      1  0.6030860000000  0.5742130000000  0.4746340000000 1.0
C      1  0.5165830000000  0.5431380000000  0.4350250000000 1.0
C      1  0.4911140000000  0.5959280000000  0.4190850000000 1.0
C      1  0.4556330000000  0.4543490000000  0.4009120000000 1.0
C      1  0.4486850000000  0.5228520000000  0.4987000000000 1.0
C      1  0.5282270000000  0.4782740000000  0.3956140000000 1.0
END
