TITL C-3623287-7182-815 -0.00320535308158164 125000 -458.410011318301 0 0 77 (C1) n - 1
REM
REM in /home/nfs/bkarasulu/CARBON/AIRSS/Generating-Clusters/LCBOP/Higher-Symm/SD-CG/FIRE-CG
REM
REM
REM
REM
REM
REM ./C.cell (b20cbc046b6831c77cfcea5457e17084)
REM AIRSS Version 0.9.1 bugfix July 2018 build 013d7b7c2542+ Fri, 06 Jul 2018 19:26:36 +0100
REM compiler GCC version 9.2.1 20190827 (Red Hat 9.2.1-1)
REM options -cpp -mtune=generic -march=x86-64 -g -O0 -fpre-include=/usr/include/finclude/math-vector-fortran.h
REM seed -521270264 1870989944 -454670252 2070696310 744782464 -1077321722 -480510207 -246388901 -1259351859 -997885124 -2121947522 -1590744534 215243426 -326085475 -661938895 -1202704497 -860860391 -1927699130 -944761566 1239470008 255637801 1430905800 -934715830 1692022028 -1830182456 -254503317 -1643179569 -162617236 27343181 57957192 -1202184798 -91031057 -1388562527
REM
CELL 1.54180   50.00000   50.00000   50.00000   90.00000   90.00000   90.00000
LATT -1
SFAC C  
C      1  0.4619270000000  0.4591120000000  0.5328780000000 1.0
C      1  0.4571380000000  0.4601050000000  0.5607150000000 1.0
C      1  0.6063050000000  0.4572300000000  0.5109790000000 1.0
C      1  0.4813160000000  0.4820100000000  0.4256020000000 1.0
C      1  0.5213330000000  0.5423220000000  0.4501770000000 1.0
C      1  0.5471190000000  0.5211140000000  0.5205850000000 1.0
C      1  0.4580310000000  0.4788920000000  0.4469630000000 1.0
C      1  0.4882310000000  0.5308340000000  0.4932270000000 1.0
C      1  0.5432690000000  0.6192750000000  0.3919500000000 1.0
C      1  0.4797530000000  0.5704360000000  0.5564190000000 1.0
C      1  0.4721320000000  0.5077510000000  0.4946710000000 1.0
C      1  0.4659020000000  0.5456040000000  0.5568250000000 1.0
C      1  0.5412270000000  0.5299120000000  0.4673150000000 1.0
C      1  0.4460500000000  0.5590280000000  0.5096270000000 1.0
C      1  0.5360730000000  0.4413420000000  0.5456190000000 1.0
C      1  0.4547780000000  0.5055880000000  0.5161680000000 1.0
C      1  0.5623520000000  0.4811480000000  0.5438160000000 1.0
C      1  0.5445660000000  0.4479680000000  0.4329770000000 1.0
C      1  0.4986920000000  0.4840720000000  0.4659580000000 1.0
C      1  0.4504500000000  0.4511280000000  0.4422230000000 1.0
C      1  0.5407700000000  0.5389480000000  0.5432130000000 1.0
C      1  0.5000370000000  0.4986220000000  0.4403630000000 1.0
C      1  0.5668770000000  0.4473880000000  0.4484690000000 1.0
C      1  0.4880560000000  0.5822830000000  0.5318250000000 1.0
C      1  0.4968460000000  0.5273520000000  0.4410650000000 1.0
C      1  0.4878300000000  0.4637990000000  0.5198280000000 1.0
C      1  0.5070650000000  0.4007040000000  0.4878230000000 1.0
C      1  0.4694960000000  0.4376220000000  0.4271020000000 1.0
C      1  0.4990300000000  0.4192150000000  0.5087370000000 1.0
C      1  0.5316120000000  0.4101180000000  0.4787510000000 1.0
C      1  0.5042130000000  0.5104460000000  0.5682920000000 1.0
C      1  0.4331480000000  0.4936520000000  0.5823810000000 1.0
C      1  0.5791650000000  0.4944200000000  0.5606730000000 1.0
C      1  0.4691250000000  0.5791010000000  0.5082270000000 1.0
C      1  0.5117500000000  0.5407560000000  0.5041380000000 1.0
C      1  0.4412630000000  0.5397780000000  0.4567330000000 1.0
C      1  0.5359840000000  0.6038280000000  0.4116460000000 1.0
C      1  0.4791760000000  0.5506080000000  0.4749290000000 1.0
C      1  0.5060250000000  0.4594810000000  0.4775770000000 1.0
C      1  0.5205710000000  0.5714040000000  0.4523420000000 1.0
C      1  0.4702570000000  0.5393630000000  0.4504860000000 1.0
C      1  0.5513000000000  0.5262320000000  0.4924580000000 1.0
C      1  0.5305530000000  0.4607070000000  0.4924780000000 1.0
C      1  0.5196360000000  0.4489250000000  0.4222400000000 1.0
C      1  0.4309890000000  0.4685670000000  0.5706980000000 1.0
C      1  0.4607000000000  0.5020300000000  0.5823830000000 1.0
C      1  0.5195400000000  0.4581080000000  0.5629910000000 1.0
C      1  0.4272730000000  0.5029000000000  0.5130060000000 1.0
C      1  0.4821980000000  0.5780280000000  0.4821880000000 1.0
C      1  0.5032920000000  0.4807390000000  0.5702590000000 1.0
C      1  0.5824010000000  0.4440290000000  0.5212580000000 1.0
C      1  0.5828450000000  0.4451890000000  0.4718690000000 1.0
C      1  0.5706020000000  0.4339760000000  0.4964210000000 1.0
C      1  0.5254310000000  0.4259100000000  0.5230240000000 1.0
C      1  0.4702600000000  0.4896220000000  0.4723640000000 1.0
C      1  0.4183090000000  0.4752400000000  0.5088370000000 1.0
C      1  0.5216190000000  0.4770510000000  0.5159860000000 1.0
C      1  0.5285630000000  0.5881070000000  0.4316370000000 1.0
C      1  0.5211030000000  0.5683680000000  0.5010730000000 1.0
C      1  0.4142830000000  0.5220000000000  0.4946300000000 1.0
C      1  0.5362970000000  0.5672310000000  0.5433180000000 1.0
C      1  0.5168040000000  0.5801720000000  0.5267730000000 1.0
C      1  0.4918180000000  0.4546340000000  0.4193730000000 1.0
C      1  0.4755750000000  0.4762370000000  0.5762590000000 1.0
C      1  0.5108790000000  0.5812420000000  0.4776210000000 1.0
C      1  0.4316770000000  0.5437550000000  0.4857600000000 1.0
C      1  0.5631280000000  0.4527310000000  0.5407480000000 1.0
C      1  0.4769480000000  0.5227140000000  0.5703650000000 1.0
C      1  0.6062470000000  0.4583050000000  0.4830530000000 1.0
C      1  0.5420120000000  0.4326110000000  0.4965940000000 1.0
C      1  0.5424000000000  0.4934890000000  0.5272550000000 1.0
C      1  0.4454500000000  0.5464740000000  0.5363300000000 1.0
C      1  0.3940240000000  0.5053430000000  0.4822740000000 1.0
C      1  0.3964970000000  0.4787470000000  0.4902220000000 1.0
C      1  0.4378950000000  0.4566690000000  0.5169660000000 1.0
C      1  0.5273050000000  0.5254790000000  0.5642130000000 1.0
C      1  0.4892060000000  0.4446790000000  0.4977820000000 1.0
END
