TITL C-3623289-7120-75 -4987.09058008221 125000 -1196.43195089363 0 0 194 (D2) n - 1
REM
REM in /home/nfs/bkarasulu/CARBON/AIRSS/Generating-Clusters/LCBOP/Higher-Symm/SD-CG/FIRE-CG
REM
REM
REM
REM
REM
REM ./C.cell (b20cbc046b6831c77cfcea5457e17084)
REM AIRSS Version 0.9.1 bugfix July 2018 build 013d7b7c2542+ Fri, 06 Jul 2018 19:26:36 +0100
REM compiler GCC version 9.2.1 20190827 (Red Hat 9.2.1-1)
REM options -cpp -mtune=generic -march=x86-64 -g -O0 -fpre-include=/usr/include/finclude/math-vector-fortran.h
REM seed -1607964246 494803650 -1476386732 -619476897 10280575 1318593220 1481586146 -779577467 -154841670 878550113 -1484832758 61432818 -1362435977 1268394326 2069947412 -408882342 73328638 -542812595 -62566549 1090161648 -608823467 -58609914 -1894183450 -1910675844 1697293378 1448598767 -1467965652 -659383878 -1761140169 1232045415 -1765350533 1607853868 994956585
REM
CELL 1.54180   50.00000   50.00000   50.00000   90.00000   90.00000   90.00000
LATT -1
SFAC C  
C      1  0.5090860000000  0.4499490000000  0.5317570000000 1.0
C      1  0.4909160000000  0.5500520000000  0.5317550000000 1.0
C      1  0.4909150000000  0.4499480000000  0.4691610000000 1.0
C      1  0.5090840000000  0.5500500000000  0.4691580000000 1.0
C      1  0.4495710000000  0.5094240000000  0.5321840000000 1.0
C      1  0.5504310000000  0.4905780000000  0.5321820000000 1.0
C      1  0.4495690000000  0.4905760000000  0.4687340000000 1.0
C      1  0.5504290000000  0.5094220000000  0.4687310000000 1.0
C      1  0.4684840000000  0.5104030000000  0.5102310000000 1.0
C      1  0.5315160000000  0.4895970000000  0.5102290000000 1.0
C      1  0.5315160000000  0.5104030000000  0.4906840000000 1.0
C      1  0.4684840000000  0.4895970000000  0.4906870000000 1.0
C      1  0.5104810000000  0.4691040000000  0.5101540000000 1.0
C      1  0.4895200000000  0.5308960000000  0.5101530000000 1.0
C      1  0.5104800000000  0.5308960000000  0.4907600000000 1.0
C      1  0.4895200000000  0.4691030000000  0.4907630000000 1.0
C      1  0.3905990000000  0.5648820000000  0.4617340000000 1.0
C      1  0.6093990000000  0.4351160000000  0.4617310000000 1.0
C      1  0.6094010000000  0.5648850000000  0.5391780000000 1.0
C      1  0.3906010000000  0.4351170000000  0.5391870000000 1.0
C      1  0.5652180000000  0.3913610000000  0.4650790000000 1.0
C      1  0.4347800000000  0.6086370000000  0.4650780000000 1.0
C      1  0.5652190000000  0.6086400000000  0.5358320000000 1.0
C      1  0.4347830000000  0.3913620000000  0.5358410000000 1.0
C      1  0.4050920000000  0.5466840000000  0.4434670000000 1.0
C      1  0.5949050000000  0.4533130000000  0.4434640000000 1.0
C      1  0.5949070000000  0.5466880000000  0.5574460000000 1.0
C      1  0.4050960000000  0.4533150000000  0.5574540000000 1.0
C      1  0.5461240000000  0.4047310000000  0.4470700000000 1.0
C      1  0.4538740000000  0.5952660000000  0.4470680000000 1.0
C      1  0.5461260000000  0.5952690000000  0.5538430000000 1.0
C      1  0.4538770000000  0.4047330000000  0.5538500000000 1.0
C      1  0.5723420000000  0.4505740000000  0.4840060000000 1.0
C      1  0.4276570000000  0.5494250000000  0.4840080000000 1.0
C      1  0.4276580000000  0.4505740000000  0.5169110000000 1.0
C      1  0.5723430000000  0.5494260000000  0.5169050000000 1.0
C      1  0.4482690000000  0.5696270000000  0.4853010000000 1.0
C      1  0.5517300000000  0.4303720000000  0.4853010000000 1.0
C      1  0.4482700000000  0.4303720000000  0.5156170000000 1.0
C      1  0.5517310000000  0.5696280000000  0.5156110000000 1.0
C      1  0.5626920000000  0.5377240000000  0.6209040000000 1.0
C      1  0.4373150000000  0.4622820000000  0.6209090000000 1.0
C      1  0.4373080000000  0.5377170000000  0.3800100000000 1.0
C      1  0.5626860000000  0.4622770000000  0.3800080000000 1.0
C      1  0.5324060000000  0.5638740000000  0.6148770000000 1.0
C      1  0.4676000000000  0.4361320000000  0.6148820000000 1.0
C      1  0.5324010000000  0.4361260000000  0.3860360000000 1.0
C      1  0.4675930000000  0.5638680000000  0.3860350000000 1.0
C      1  0.5620600000000  0.4032280000000  0.4919680000000 1.0
C      1  0.4379400000000  0.5967720000000  0.4919670000000 1.0
C      1  0.4379410000000  0.4032280000000  0.5089520000000 1.0
C      1  0.5620600000000  0.5967730000000  0.5089440000000 1.0
C      1  0.4002630000000  0.5598130000000  0.4892090000000 1.0
C      1  0.5997360000000  0.4401860000000  0.4892070000000 1.0
C      1  0.4002640000000  0.4401860000000  0.5117120000000 1.0
C      1  0.5997370000000  0.5598150000000  0.5117030000000 1.0
C      1  0.6115360000000  0.5924840000000  0.5457820000000 1.0
C      1  0.3884670000000  0.4075180000000  0.5457930000000 1.0
C      1  0.3884640000000  0.5924810000000  0.4551280000000 1.0
C      1  0.6115340000000  0.4075170000000  0.4551270000000 1.0
C      1  0.5922560000000  0.6116380000000  0.5441810000000 1.0
C      1  0.4077460000000  0.3883640000000  0.5441920000000 1.0
C      1  0.5922550000000  0.3883620000000  0.4567290000000 1.0
C      1  0.4077430000000  0.6116350000000  0.4567280000000 1.0
C      1  0.4965190000000  0.4664040000000  0.3648990000000 1.0
C      1  0.5034740000000  0.5335900000000  0.3648970000000 1.0
C      1  0.5034810000000  0.4664100000000  0.6360190000000 1.0
C      1  0.4965260000000  0.5335960000000  0.6360170000000 1.0
C      1  0.4649600000000  0.5037560000000  0.3523460000000 1.0
C      1  0.5350330000000  0.4962370000000  0.3523440000000 1.0
C      1  0.4649670000000  0.4962440000000  0.6485710000000 1.0
C      1  0.5350400000000  0.5037640000000  0.6485690000000 1.0
C      1  0.5303400000000  0.4504730000000  0.5496840000000 1.0
C      1  0.4696620000000  0.5495290000000  0.5496830000000 1.0
C      1  0.4696600000000  0.4504710000000  0.4512340000000 1.0
C      1  0.5303370000000  0.5495270000000  0.4512300000000 1.0
C      1  0.4507290000000  0.5309180000000  0.5498780000000 1.0
C      1  0.5492740000000  0.4690840000000  0.5498770000000 1.0
C      1  0.4507260000000  0.4690810000000  0.4510400000000 1.0
C      1  0.5492710000000  0.5309160000000  0.4510350000000 1.0
C      1  0.4315570000000  0.6254260000000  0.5782300000000 1.0
C      1  0.5684480000000  0.3745800000000  0.5782340000000 1.0
C      1  0.5684400000000  0.6254260000000  0.4226800000000 1.0
C      1  0.4315540000000  0.3745730000000  0.4226890000000 1.0
C      1  0.6072930000000  0.4308250000000  0.5840490000000 1.0
C      1  0.3927140000000  0.5691800000000  0.5840520000000 1.0
C      1  0.6072810000000  0.5691770000000  0.4168580000000 1.0
C      1  0.3927110000000  0.4308190000000  0.4168680000000 1.0
C      1  0.4783980000000  0.3921570000000  0.4066190000000 1.0
C      1  0.5215970000000  0.6078380000000  0.4066130000000 1.0
C      1  0.5216030000000  0.3921630000000  0.5943030000000 1.0
C      1  0.4784030000000  0.6078420000000  0.5942980000000 1.0
C      1  0.3987670000000  0.4805930000000  0.4011700000000 1.0
C      1  0.6012270000000  0.5194030000000  0.4011630000000 1.0
C      1  0.3987720000000  0.5194070000000  0.5997510000000 1.0
C      1  0.6012340000000  0.4805990000000  0.5997460000000 1.0
C      1  0.5933460000000  0.4221700000000  0.4062640000000 1.0
C      1  0.4066490000000  0.5778260000000  0.4062650000000 1.0
C      1  0.4066550000000  0.4221740000000  0.5946560000000 1.0
C      1  0.5933500000000  0.5778310000000  0.5946470000000 1.0
C      1  0.4256270000000  0.5967850000000  0.4076110000000 1.0
C      1  0.5743680000000  0.4032100000000  0.4076110000000 1.0
C      1  0.4256320000000  0.4032140000000  0.5933090000000 1.0
C      1  0.5743730000000  0.5967910000000  0.5933000000000 1.0
C      1  0.5431930000000  0.4724380000000  0.3634160000000 1.0
C      1  0.4568000000000  0.5275550000000  0.3634160000000 1.0
C      1  0.4568070000000  0.4724450000000  0.6375010000000 1.0
C      1  0.5432000000000  0.5275620000000  0.6374980000000 1.0
C      1  0.4791820000000  0.5452910000000  0.3695810000000 1.0
C      1  0.5208110000000  0.4547020000000  0.3695830000000 1.0
C      1  0.4791880000000  0.4547090000000  0.6313350000000 1.0
C      1  0.5208180000000  0.5452980000000  0.6313320000000 1.0
C      1  0.5951010000000  0.4939670000000  0.3970280000000 1.0
C      1  0.4048940000000  0.5060280000000  0.3970330000000 1.0
C      1  0.4048990000000  0.4939710000000  0.6038880000000 1.0
C      1  0.5951070000000  0.5060340000000  0.6038820000000 1.0
C      1  0.4971200000000  0.5988290000000  0.4020010000000 1.0
C      1  0.5028750000000  0.4011660000000  0.4020060000000 1.0
C      1  0.4971250000000  0.4011710000000  0.5989140000000 1.0
C      1  0.5028800000000  0.5988340000000  0.5989090000000 1.0
C      1  0.5735970000000  0.4658640000000  0.4592190000000 1.0
C      1  0.4264010000000  0.5341330000000  0.4592210000000 1.0
C      1  0.4264040000000  0.4658660000000  0.5416980000000 1.0
C      1  0.5735990000000  0.5341360000000  0.5416930000000 1.0
C      1  0.4650160000000  0.5723560000000  0.4615280000000 1.0
C      1  0.5349820000000  0.4276420000000  0.4615300000000 1.0
C      1  0.4650190000000  0.4276440000000  0.5393890000000 1.0
C      1  0.5349840000000  0.5723580000000  0.5393830000000 1.0
C      1  0.5455510000000  0.6162830000000  0.4141880000000 1.0
C      1  0.4544430000000  0.3837140000000  0.4141960000000 1.0
C      1  0.4544470000000  0.6162860000000  0.5867220000000 1.0
C      1  0.5455580000000  0.3837200000000  0.5867260000000 1.0
C      1  0.6046590000000  0.5447070000000  0.4082630000000 1.0
C      1  0.3953350000000  0.4552890000000  0.4082710000000 1.0
C      1  0.6046680000000  0.4552940000000  0.5926450000000 1.0
C      1  0.3953390000000  0.5447110000000  0.5926490000000 1.0
C      1  0.4160960000000  0.4683870000000  0.6038470000000 1.0
C      1  0.5839100000000  0.5316180000000  0.6038410000000 1.0
C      1  0.5839050000000  0.4683830000000  0.3970700000000 1.0
C      1  0.4160900000000  0.5316120000000  0.3970730000000 1.0
C      1  0.4721780000000  0.4136910000000  0.5990330000000 1.0
C      1  0.5278270000000  0.5863140000000  0.5990270000000 1.0
C      1  0.4721720000000  0.5863090000000  0.4018840000000 1.0
C      1  0.5278230000000  0.4136860000000  0.4018870000000 1.0
C      1  0.5485110000000  0.4042390000000  0.4188540000000 1.0
C      1  0.4514850000000  0.5957570000000  0.4188510000000 1.0
C      1  0.4514900000000  0.4042430000000  0.5820670000000 1.0
C      1  0.5485140000000  0.5957610000000  0.5820590000000 1.0
C      1  0.4066560000000  0.5511270000000  0.4154620000000 1.0
C      1  0.5933390000000  0.4488690000000  0.4154600000000 1.0
C      1  0.4066610000000  0.4488730000000  0.5854580000000 1.0
C      1  0.5933430000000  0.5511310000000  0.5854510000000 1.0
C      1  0.4891750000000  0.4700110000000  0.4233100000000 1.0
C      1  0.5108210000000  0.5299850000000  0.4233080000000 1.0
C      1  0.5108260000000  0.4700150000000  0.5776070000000 1.0
C      1  0.4891780000000  0.5299890000000  0.5776060000000 1.0
C      1  0.4701840000000  0.4886870000000  0.4230020000000 1.0
C      1  0.5298120000000  0.5113090000000  0.4230000000000 1.0
C      1  0.4701880000000  0.5113130000000  0.5779150000000 1.0
C      1  0.5298160000000  0.4886910000000  0.5779140000000 1.0
C      1  0.5821920000000  0.5975450000000  0.4890400000000 1.0
C      1  0.4178080000000  0.4024550000000  0.4890490000000 1.0
C      1  0.4178080000000  0.5975450000000  0.5118710000000 1.0
C      1  0.5821930000000  0.4024560000000  0.5118720000000 1.0
C      1  0.6017230000000  0.5784990000000  0.4905230000000 1.0
C      1  0.3982770000000  0.4215010000000  0.4905320000000 1.0
C      1  0.6017240000000  0.4215020000000  0.5103870000000 1.0
C      1  0.3982770000000  0.5784980000000  0.5103890000000 1.0
C      1  0.5152440000000  0.5348920000000  0.5683410000000 1.0
C      1  0.4847590000000  0.4651120000000  0.5683430000000 1.0
C      1  0.4847550000000  0.5348880000000  0.4325730000000 1.0
C      1  0.5152410000000  0.4651080000000  0.4325740000000 1.0
C      1  0.5352390000000  0.5147250000000  0.5688780000000 1.0
C      1  0.4647650000000  0.4852790000000  0.5688810000000 1.0
C      1  0.5352350000000  0.4852750000000  0.4320350000000 1.0
C      1  0.4647610000000  0.5147210000000  0.4320370000000 1.0
C      1  0.5544000000000  0.4852020000000  0.4538020000000 1.0
C      1  0.4455980000000  0.5147960000000  0.4538040000000 1.0
C      1  0.4456000000000  0.4852040000000  0.5471150000000 1.0
C      1  0.5544020000000  0.5147980000000  0.5471110000000 1.0
C      1  0.4844460000000  0.5535900000000  0.4548520000000 1.0
C      1  0.5155510000000  0.4464080000000  0.4548540000000 1.0
C      1  0.4844490000000  0.4464100000000  0.5460640000000 1.0
C      1  0.5155530000000  0.5535920000000  0.5460610000000 1.0
C      1  0.4704220000000  0.4582310000000  0.3591950000000 1.0
C      1  0.5295710000000  0.5417620000000  0.3591910000000 1.0
C      1  0.5295780000000  0.4582380000000  0.6417230000000 1.0
C      1  0.4704290000000  0.5417690000000  0.6417220000000 1.0
C      1  0.4538060000000  0.4782180000000  0.3511060000000 1.0
C      1  0.5461870000000  0.5217740000000  0.3511030000000 1.0
C      1  0.4538130000000  0.5217810000000  0.6498110000000 1.0
C      1  0.5461950000000  0.4782260000000  0.6498100000000 1.0
C      1  0.5000040000000  0.5000040000000  0.6431670000000 1.0
C      1  0.4999960000000  0.4999960000000  0.3577490000000 1.0
END
