TITL C-3623283-6828-950 -5.27983173894733e-07 125000 -250.695017176841 0 0 43 (C1) n - 1
REM
REM in /home/nfs/bkarasulu/CARBON/AIRSS/Generating-Clusters/LCBOP/Higher-Symm/SD-CG/FIRE-CG
REM
REM
REM
REM
REM
REM ./C.cell (b20cbc046b6831c77cfcea5457e17084)
REM AIRSS Version 0.9.1 bugfix July 2018 build 013d7b7c2542+ Fri, 06 Jul 2018 19:26:36 +0100
REM compiler GCC version 9.2.1 20190827 (Red Hat 9.2.1-1)
REM options -cpp -mtune=generic -march=x86-64 -g -O0 -fpre-include=/usr/include/finclude/math-vector-fortran.h
REM seed 1626618571 -1135303293 -2012119720 -590319988 -859935725 -1981943897 241098752 -1565291276 188340614 550570481 1275012653 1691461164 -520910142 617735125 -1372144158 170897367 1211167774 -934297780 -1140593901 969754574 28533983 -1783470938 -845434324 2076343680 1417987738 -744786400 1575372313 -1365964972 -35684533 1805560057 -992029696 1014575586 -1555089966
REM
CELL 1.54180   50.00000   50.00000   50.00000   90.00000   90.00000   90.00000
LATT -1
SFAC C  
C      1  0.4765350000000  0.4734750000000  0.5337720000000 1.0
C      1  0.5398700000000  0.5348080000000  0.4852980000000 1.0
C      1  0.5525930000000  0.4847200000000  0.5067750000000 1.0
C      1  0.5195250000000  0.5001490000000  0.5369340000000 1.0
C      1  0.5263790000000  0.5125700000000  0.4733570000000 1.0
C      1  0.5395760000000  0.4866580000000  0.4795000000000 1.0
C      1  0.5209920000000  0.4653710000000  0.4755700000000 1.0
C      1  0.5088480000000  0.4635680000000  0.5019560000000 1.0
C      1  0.5475410000000  0.5323520000000  0.5114560000000 1.0
C      1  0.4970650000000  0.5115520000000  0.4765350000000 1.0
C      1  0.5438060000000  0.5069660000000  0.5237600000000 1.0
C      1  0.4901920000000  0.5106650000000  0.5035360000000 1.0
C      1  0.4971270000000  0.4318520000000  0.5319520000000 1.0
C      1  0.4429360000000  0.5163350000000  0.5230710000000 1.0
C      1  0.4942260000000  0.5283760000000  0.4255070000000 1.0
C      1  0.4738980000000  0.5545390000000  0.5176570000000 1.0
C      1  0.4896590000000  0.5625260000000  0.4647680000000 1.0
C      1  0.4789750000000  0.4422570000000  0.4769740000000 1.0
C      1  0.5430000000000  0.4460800000000  0.5433230000000 1.0
C      1  0.4534570000000  0.4847930000000  0.4793490000000 1.0
C      1  0.5234330000000  0.5672600000000  0.4296350000000 1.0
C      1  0.4873200000000  0.4800510000000  0.4426380000000 1.0
C      1  0.5061550000000  0.4697860000000  0.5683360000000 1.0
C      1  0.4818160000000  0.5194290000000  0.5565230000000 1.0
C      1  0.4876280000000  0.4531460000000  0.5511200000000 1.0
C      1  0.4473610000000  0.5436730000000  0.5159700000000 1.0
C      1  0.5157900000000  0.5446790000000  0.4162360000000 1.0
C      1  0.4875240000000  0.5446500000000  0.5417160000000 1.0
C      1  0.4791130000000  0.5426580000000  0.4462230000000 1.0
C      1  0.4985420000000  0.4571990000000  0.4577160000000 1.0
C      1  0.5247740000000  0.4248700000000  0.5364400000000 1.0
C      1  0.4535910000000  0.4560350000000  0.4779940000000 1.0
C      1  0.5115860000000  0.5763500000000  0.4525490000000 1.0
C      1  0.4756110000000  0.4962670000000  0.4640970000000 1.0
C      1  0.5334500000000  0.4597940000000  0.5669550000000 1.0
C      1  0.4550540000000  0.5103600000000  0.5488270000000 1.0
C      1  0.4408160000000  0.4982410000000  0.5010840000000 1.0
C      1  0.5564230000000  0.4605580000000  0.5222350000000 1.0
C      1  0.4933900000000  0.4997010000000  0.4226210000000 1.0
C      1  0.5039960000000  0.4995860000000  0.5619160000000 1.0
C      1  0.4922160000000  0.4395970000000  0.5036740000000 1.0
C      1  0.4843920000000  0.5637810000000  0.4927620000000 1.0
C      1  0.4988060000000  0.4871020000000  0.5182610000000 1.0
END
