TITL C-3623288-6813-1394 -2.40687299070099e-07 125000 -138.786811939762 0 0 24 (C1) n - 1
REM
REM in /home/nfs/bkarasulu/CARBON/AIRSS/Generating-Clusters/LCBOP/Higher-Symm/SD-CG/FIRE-CG
REM
REM
REM
REM
REM
REM ./C.cell (b20cbc046b6831c77cfcea5457e17084)
REM AIRSS Version 0.9.1 bugfix July 2018 build 013d7b7c2542+ Fri, 06 Jul 2018 19:26:36 +0100
REM compiler GCC version 9.2.1 20190827 (Red Hat 9.2.1-1)
REM options -cpp -mtune=generic -march=x86-64 -g -O0 -fpre-include=/usr/include/finclude/math-vector-fortran.h
REM seed -1402212397 -1115742704 -425467849 1920948411 201195359 -2044496015 2044148933 -133898072 957286926 1667712838 -322063796 -1259043689 -2139020711 1000525584 519816116 -319671507 353792890 1191988818 -814568946 -1239169178 -1360024718 1517566799 1205821862 -889915156 -758321148 1033015102 512504884 242966280 -792111472 -1677733529 1370975482 471842202 269182477
REM
CELL 1.54180   50.00000   50.00000   50.00000   90.00000   90.00000   90.00000
LATT -1
SFAC C  
C      1  0.5163560000000  0.5130920000000  0.4582420000000 1.0
C      1  0.5303140000000  0.5465190000000  0.4972830000000 1.0
C      1  0.5227620000000  0.5149360000000  0.5361000000000 1.0
C      1  0.5452440000000  0.4731310000000  0.5194320000000 1.0
C      1  0.5356800000000  0.4673200000000  0.4695490000000 1.0
C      1  0.5138950000000  0.5350990000000  0.5174640000000 1.0
C      1  0.5458970000000  0.4991910000000  0.5309410000000 1.0
C      1  0.5526330000000  0.4688080000000  0.4923860000000 1.0
C      1  0.5326390000000  0.4904890000000  0.4538290000000 1.0
C      1  0.5273630000000  0.5353680000000  0.4715030000000 1.0
C      1  0.5480460000000  0.5672570000000  0.5025840000000 1.0
C      1  0.5002770000000  0.4992600000000  0.5455160000000 1.0
C      1  0.5231600000000  0.4569720000000  0.5280820000000 1.0
C      1  0.5129740000000  0.4502800000000  0.4717540000000 1.0
C      1  0.4884820000000  0.5086000000000  0.4596880000000 1.0
C      1  0.4850950000000  0.4859800000000  0.5245610000000 1.0
C      1  0.4968190000000  0.4608400000000  0.5169830000000 1.0
C      1  0.4941970000000  0.4492170000000  0.4913150000000 1.0
C      1  0.4687130000000  0.5008260000000  0.4783650000000 1.0
C      1  0.5648320000000  0.5864500000000  0.5079730000000 1.0
C      1  0.4221970000000  0.4779350000000  0.4638540000000 1.0
C      1  0.4860950000000  0.5317920000000  0.5110000000000 1.0
C      1  0.4753470000000  0.5056000000000  0.5055730000000 1.0
C      1  0.4445390000000  0.4894880000000  0.4706730000000 1.0
END
