TITL C-3623287-7182-1283 -31309.4536546951 125000 -606.404765413197 0 0 98 (C1) n - 1
REM
REM in /home/nfs/bkarasulu/CARBON/AIRSS/Generating-Clusters/LCBOP/Higher-Symm/SD-CG/FIRE-CG
REM
REM
REM
REM
REM
REM ./C.cell (b20cbc046b6831c77cfcea5457e17084)
REM AIRSS Version 0.9.1 bugfix July 2018 build 013d7b7c2542+ Fri, 06 Jul 2018 19:26:36 +0100
REM compiler GCC version 9.2.1 20190827 (Red Hat 9.2.1-1)
REM options -cpp -mtune=generic -march=x86-64 -g -O0 -fpre-include=/usr/include/finclude/math-vector-fortran.h
REM seed -383848669 -824958847 1424644006 -901639398 1456109174 -128146419 -1773038347 -530801890 -428824286 -417714732 1064873801 1893135400 113953140 -1875680085 -168822877 928232053 1248268866 1847110186 1591515985 630334490 -1044352343 965471797 2019113036 532329646 -844704361 -593997645 -1719912187 -2127069205 -2118437781 -742913702 -60430808 -157115603 -617450998
REM
CELL 1.54180   50.00000   50.00000   50.00000   90.00000   90.00000   90.00000
LATT -1
SFAC C  
C      1  0.5455650000000  0.4259930000000  0.5045120000000 1.0
C      1  0.5503090000000  0.5752830000000  0.5034690000000 1.0
C      1  0.5601740000000  0.5550270000000  0.5521100000000 1.0
C      1  0.5540630000000  0.4493590000000  0.5504150000000 1.0
C      1  0.5780300000000  0.4637980000000  0.4870840000000 1.0
C      1  0.5790840000000  0.5369330000000  0.4854320000000 1.0
C      1  0.4711010000000  0.5799400000000  0.5079010000000 1.0
C      1  0.4675610000000  0.4153700000000  0.5056080000000 1.0
C      1  0.4705840000000  0.5358970000000  0.5411130000000 1.0
C      1  0.4824850000000  0.4745750000000  0.5311030000000 1.0
C      1  0.4368500000000  0.4886020000000  0.5269990000000 1.0
C      1  0.4179980000000  0.5094200000000  0.5260560000000 1.0
C      1  0.5319880000000  0.4863440000000  0.4834210000000 1.0
C      1  0.5355910000000  0.5153570000000  0.4858650000000 1.0
C      1  0.5493540000000  0.5144520000000  0.4355110000000 1.0
C      1  0.5486650000000  0.4855470000000  0.4349870000000 1.0
C      1  0.4875660000000  0.5988960000000  0.4299460000000 1.0
C      1  0.4912010000000  0.3987620000000  0.4266940000000 1.0
C      1  0.4340060000000  0.4845190000000  0.4598370000000 1.0
C      1  0.4337460000000  0.5140660000000  0.4605440000000 1.0
C      1  0.4506060000000  0.5144180000000  0.4147570000000 1.0
C      1  0.4506990000000  0.4857610000000  0.4142910000000 1.0
C      1  0.5104730000000  0.4811800000000  0.5295410000000 1.0
C      1  0.5190500000000  0.5378930000000  0.5328450000000 1.0
C      1  0.5683120000000  0.5149170000000  0.5810120000000 1.0
C      1  0.5675150000000  0.4881940000000  0.5779420000000 1.0
C      1  0.4409630000000  0.5183480000000  0.5669910000000 1.0
C      1  0.4472610000000  0.4808260000000  0.5696310000000 1.0
C      1  0.5002340000000  0.5283030000000  0.5797100000000 1.0
C      1  0.5012770000000  0.4739290000000  0.5771890000000 1.0
C      1  0.4529320000000  0.5246580000000  0.4413620000000 1.0
C      1  0.4528880000000  0.4746750000000  0.4405690000000 1.0
C      1  0.5042420000000  0.5903690000000  0.4480660000000 1.0
C      1  0.5065680000000  0.4078970000000  0.4456560000000 1.0
C      1  0.4747560000000  0.5145040000000  0.5804070000000 1.0
C      1  0.4748800000000  0.4851890000000  0.5799640000000 1.0
C      1  0.5017640000000  0.4848120000000  0.4471260000000 1.0
C      1  0.5023880000000  0.5148570000000  0.4479240000000 1.0
C      1  0.4940780000000  0.4308160000000  0.5561490000000 1.0
C      1  0.4935100000000  0.5709020000000  0.5610380000000 1.0
C      1  0.5512020000000  0.5323200000000  0.5671310000000 1.0
C      1  0.5488510000000  0.4743660000000  0.5619690000000 1.0
C      1  0.5227740000000  0.5840070000000  0.4950130000000 1.0
C      1  0.5197500000000  0.4141130000000  0.4944740000000 1.0
C      1  0.4778730000000  0.4493460000000  0.5418580000000 1.0
C      1  0.4679290000000  0.5627680000000  0.5518290000000 1.0
C      1  0.4639380000000  0.4931360000000  0.5211100000000 1.0
C      1  0.4728830000000  0.5191690000000  0.5189360000000 1.0
C      1  0.5042860000000  0.4452580000000  0.5783880000000 1.0
C      1  0.5007430000000  0.5565920000000  0.5842040000000 1.0
C      1  0.4325570000000  0.4434250000000  0.5271420000000 1.0
C      1  0.4309160000000  0.5558080000000  0.5253610000000 1.0
C      1  0.5297600000000  0.4732500000000  0.4549310000000 1.0
C      1  0.5309860000000  0.5272770000000  0.4563210000000 1.0
C      1  0.4346440000000  0.4670180000000  0.5459980000000 1.0
C      1  0.4264220000000  0.5312550000000  0.5432090000000 1.0
C      1  0.4896290000000  0.5276200000000  0.4982330000000 1.0
C      1  0.4990460000000  0.4561000000000  0.4920900000000 1.0
C      1  0.5994060000000  0.4679390000000  0.4685780000000 1.0
C      1  0.6010750000000  0.5292280000000  0.4690300000000 1.0
C      1  0.4961480000000  0.4092560000000  0.5113420000000 1.0
C      1  0.5007690000000  0.5804680000000  0.5130740000000 1.0
C      1  0.4335410000000  0.5512510000000  0.4955600000000 1.0
C      1  0.4333030000000  0.4496680000000  0.4966050000000 1.0
C      1  0.4202220000000  0.4698180000000  0.4804100000000 1.0
C      1  0.4215960000000  0.5282310000000  0.4827190000000 1.0
C      1  0.5961730000000  0.4840640000000  0.4453670000000 1.0
C      1  0.5969580000000  0.5134400000000  0.4456540000000 1.0
C      1  0.5391780000000  0.5564700000000  0.4615100000000 1.0
C      1  0.5376490000000  0.4442960000000  0.4619690000000 1.0
C      1  0.4527880000000  0.5754070000000  0.5313550000000 1.0
C      1  0.4474620000000  0.4178640000000  0.5275290000000 1.0
C      1  0.5594210000000  0.5705490000000  0.5299590000000 1.0
C      1  0.5522910000000  0.4309520000000  0.5312240000000 1.0
C      1  0.5643240000000  0.5148530000000  0.4954540000000 1.0
C      1  0.5703360000000  0.4877950000000  0.4998270000000 1.0
C      1  0.3986020000000  0.4856130000000  0.4904520000000 1.0
C      1  0.4059150000000  0.5113670000000  0.5005550000000 1.0
C      1  0.4779700000000  0.4517200000000  0.4745540000000 1.0
C      1  0.4778380000000  0.5426630000000  0.4775220000000 1.0
C      1  0.5093600000000  0.5660380000000  0.5370630000000 1.0
C      1  0.5014320000000  0.4090400000000  0.5398360000000 1.0
C      1  0.5233360000000  0.5205980000000  0.5594800000000 1.0
C      1  0.5222630000000  0.4887600000000  0.5567030000000 1.0
C      1  0.5753960000000  0.5245550000000  0.4298540000000 1.0
C      1  0.5742000000000  0.4743420000000  0.4292990000000 1.0
C      1  0.5582010000000  0.4429760000000  0.4838430000000 1.0
C      1  0.5617460000000  0.5594460000000  0.4812620000000 1.0
C      1  0.5168570000000  0.5278060000000  0.5058920000000 1.0
C      1  0.5176740000000  0.4734200000000  0.5034650000000 1.0
C      1  0.4577020000000  0.4358790000000  0.4863560000000 1.0
C      1  0.4596660000000  0.5622220000000  0.4871760000000 1.0
C      1  0.4489530000000  0.4706660000000  0.3917110000000 1.0
C      1  0.4485740000000  0.5302280000000  0.3926970000000 1.0
C      1  0.5200330000000  0.4213270000000  0.4658190000000 1.0
C      1  0.5202590000000  0.5777290000000  0.4666960000000 1.0
C      1  0.4782470000000  0.4682030000000  0.4513740000000 1.0
C      1  0.4786330000000  0.5304380000000  0.4522530000000 1.0
END
