TITL C-3623284-6838-312 182401.724254617 125000 -529.972023959161 0 0 89 (C1) n - 1
REM
REM in /home/nfs/bkarasulu/CARBON/AIRSS/Generating-Clusters/LCBOP/Higher-Symm/SD-CG/FIRE-CG
REM
REM
REM
REM
REM
REM ./C.cell (b20cbc046b6831c77cfcea5457e17084)
REM AIRSS Version 0.9.1 bugfix July 2018 build 013d7b7c2542+ Fri, 06 Jul 2018 19:26:36 +0100
REM compiler GCC version 9.2.1 20190827 (Red Hat 9.2.1-1)
REM options -cpp -mtune=generic -march=x86-64 -g -O0 -fpre-include=/usr/include/finclude/math-vector-fortran.h
REM seed -259070322 710999384 540507789 1051926040 -908913838 1614327099 1288260618 688847284 461819846 2003650309 -1133637053 210386331 133125222 1393108015 -616578104 -791423227 1310952477 2128616488 -452572511 2143423259 178872793 678215141 -1022309453 -911509886 -149453427 1218989931 1974023281 1670817412 791992429 1384159170 -725854588 -707603324 -1075855429
REM
CELL 1.54180   50.00000   50.00000   50.00000   90.00000   90.00000   90.00000
LATT -1
SFAC C  
C      1  0.4325680000000  0.4503530000000  0.4678650000000 1.0
C      1  0.4913000000000  0.5753780000000  0.4754900000000 1.0
C      1  0.5774490000000  0.4677160000000  0.4738540000000 1.0
C      1  0.4226850000000  0.4277850000000  0.5198930000000 1.0
C      1  0.4777870000000  0.5914740000000  0.5303810000000 1.0
C      1  0.5856660000000  0.4856800000000  0.5320510000000 1.0
C      1  0.4370270000000  0.4702830000000  0.4462900000000 1.0
C      1  0.5067250000000  0.5650160000000  0.4492810000000 1.0
C      1  0.5530960000000  0.4597980000000  0.4473730000000 1.0
C      1  0.4064600000000  0.4118820000000  0.5358150000000 1.0
C      1  0.4676950000000  0.6102540000000  0.5481450000000 1.0
C      1  0.5717580000000  0.4950170000000  0.5576600000000 1.0
C      1  0.5424420000000  0.4878680000000  0.5570240000000 1.0
C      1  0.4536370000000  0.4982570000000  0.5530260000000 1.0
C      1  0.5417650000000  0.5529500000000  0.5421160000000 1.0
C      1  0.5182000000000  0.4528240000000  0.4483070000000 1.0
C      1  0.4369940000000  0.4977960000000  0.4567080000000 1.0
C      1  0.5291380000000  0.5427430000000  0.4485520000000 1.0
C      1  0.4836990000000  0.5065710000000  0.5508960000000 1.0
C      1  0.5288000000000  0.5267460000000  0.5343570000000 1.0
C      1  0.5185050000000  0.5059700000000  0.5553250000000 1.0
C      1  0.4954630000000  0.5099980000000  0.4623970000000 1.0
C      1  0.5200560000000  0.5235430000000  0.4695100000000 1.0
C      1  0.5062300000000  0.4653060000000  0.4737260000000 1.0
C      1  0.5060590000000  0.5274970000000  0.5156260000000 1.0
C      1  0.5228830000000  0.4754610000000  0.5158530000000 1.0
C      1  0.4657230000000  0.4704610000000  0.5173390000000 1.0
C      1  0.5187930000000  0.5422840000000  0.4929600000000 1.0
C      1  0.5311470000000  0.4680380000000  0.4889280000000 1.0
C      1  0.4614800000000  0.4915670000000  0.4956900000000 1.0
C      1  0.4444050000000  0.4175430000000  0.5030460000000 1.0
C      1  0.4616370000000  0.5704020000000  0.5189290000000 1.0
C      1  0.5910970000000  0.5042890000000  0.5090500000000 1.0
C      1  0.4487290000000  0.4267650000000  0.4740760000000 1.0
C      1  0.4664740000000  0.5650500000000  0.4886610000000 1.0
C      1  0.5858100000000  0.4956860000000  0.4795290000000 1.0
C      1  0.5053580000000  0.5891390000000  0.5237090000000 1.0
C      1  0.5696760000000  0.4627410000000  0.5240540000000 1.0
C      1  0.4229180000000  0.4569560000000  0.5208860000000 1.0
C      1  0.5105290000000  0.5861490000000  0.4955920000000 1.0
C      1  0.5720380000000  0.4517020000000  0.4975120000000 1.0
C      1  0.4223430000000  0.4642320000000  0.4919620000000 1.0
C      1  0.4150290000000  0.5395410000000  0.4564690000000 1.0
C      1  0.5750260000000  0.5579860000000  0.4448830000000 1.0
C      1  0.5168650000000  0.4043860000000  0.4457220000000 1.0
C      1  0.4126110000000  0.5254570000000  0.5441250000000 1.0
C      1  0.5828620000000  0.5755550000000  0.5279820000000 1.0
C      1  0.5111530000000  0.3945340000000  0.5286410000000 1.0
C      1  0.4580200000000  0.5470200000000  0.5376380000000 1.0
C      1  0.5748560000000  0.5274320000000  0.5169730000000 1.0
C      1  0.4687210000000  0.4200050000000  0.5188910000000 1.0
C      1  0.4572780000000  0.5387480000000  0.4803810000000 1.0
C      1  0.5659090000000  0.5123630000000  0.4650010000000 1.0
C      1  0.4774130000000  0.4282020000000  0.4644430000000 1.0
C      1  0.5421670000000  0.4685220000000  0.5351640000000 1.0
C      1  0.4438100000000  0.4734580000000  0.5365090000000 1.0
C      1  0.5247070000000  0.5761620000000  0.5410120000000 1.0
C      1  0.5460320000000  0.4414560000000  0.4907680000000 1.0
C      1  0.4310090000000  0.4922960000000  0.4867350000000 1.0
C      1  0.5329560000000  0.5684580000000  0.4913980000000 1.0
C      1  0.5702840000000  0.5510990000000  0.5336690000000 1.0
C      1  0.4853130000000  0.4011810000000  0.5307240000000 1.0
C      1  0.4400600000000  0.5261710000000  0.5501520000000 1.0
C      1  0.5583750000000  0.5354140000000  0.4474800000000 1.0
C      1  0.5008100000000  0.4279540000000  0.4450330000000 1.0
C      1  0.4411410000000  0.5276640000000  0.4578420000000 1.0
C      1  0.5409250000000  0.5037100000000  0.4804570000000 1.0
C      1  0.4896100000000  0.4440640000000  0.4854630000000 1.0
C      1  0.4636510000000  0.5204170000000  0.5018500000000 1.0
C      1  0.5491600000000  0.5166640000000  0.5129570000000 1.0
C      1  0.4788010000000  0.4457910000000  0.5112770000000 1.0
C      1  0.4794610000000  0.5287040000000  0.5266510000000 1.0
C      1  0.4010060000000  0.5160090000000  0.5219220000000 1.0
C      1  0.5743870000000  0.5904050000000  0.5071400000000 1.0
C      1  0.5323440000000  0.4004850000000  0.5134960000000 1.0
C      1  0.3979910000000  0.5294820000000  0.4752920000000 1.0
C      1  0.5710990000000  0.5793240000000  0.4608370000000 1.0
C      1  0.5351750000000  0.4006130000000  0.4653300000000 1.0
C      1  0.3953270000000  0.3981760000000  0.5549900000000 1.0
C      1  0.4591590000000  0.6239610000000  0.5686070000000 1.0
C      1  0.5843710000000  0.5069360000000  0.5785960000000 1.0
C      1  0.4406530000000  0.4639020000000  0.4200300000000 1.0
C      1  0.4997860000000  0.5766060000000  0.4255120000000 1.0
C      1  0.5640480000000  0.4590290000000  0.4229660000000 1.0
C      1  0.5583470000000  0.5809070000000  0.4859030000000 1.0
C      1  0.4081440000000  0.5114800000000  0.4952530000000 1.0
C      1  0.5398050000000  0.4138640000000  0.4899450000000 1.0
C      1  0.5055900000000  0.4971390000000  0.5085610000000 1.0
C      1  0.4891060000000  0.4893010000000  0.4820340000000 1.0
END
