TITL C-3623287-7182-655 4.15690715534641e-07 125000 -31.1856428631264 0 0 6 (D(inf)h) n - 1
REM
REM in /home/nfs/bkarasulu/CARBON/AIRSS/Generating-Clusters/LCBOP/Higher-Symm/SD-CG/FIRE-CG
REM
REM
REM
REM
REM
REM ./C.cell (b20cbc046b6831c77cfcea5457e17084)
REM AIRSS Version 0.9.1 bugfix July 2018 build 013d7b7c2542+ Fri, 06 Jul 2018 19:26:36 +0100
REM compiler GCC version 9.2.1 20190827 (Red Hat 9.2.1-1)
REM options -cpp -mtune=generic -march=x86-64 -g -O0 -fpre-include=/usr/include/finclude/math-vector-fortran.h
REM seed -1569461275 1908089900 1780348357 -1376207953 -498784656 -1152941397 -2091337863 1544394698 550832193 1758513994 1658673753 -152853177 -664717489 162929360 919096119 1844321090 1836457836 -904290120 -1760707684 -1391645875 1936021497 -827246278 -861269172 -900754005 454764522 -90971813 -910738670 -1140325649 1110904016 -145069663 683072287 986307611 1860496430
REM
CELL 1.54180   50.00000   50.00000   50.00000   90.00000   90.00000   90.00000
LATT -1
SFAC C  
C      1  0.4341740000000  0.5005360000000  0.4984400000000 1.0
C      1  0.4867500000000  0.5005360000000  0.4984400000000 1.0
C      1  0.5658260000000  0.5005360000000  0.4984400000000 1.0
C      1  0.4602440000000  0.5005360000000  0.4984400000000 1.0
C      1  0.5132500000000  0.5005360000000  0.4984400000000 1.0
C      1  0.5397560000000  0.5005360000000  0.4984400000000 1.0
END
