TITL C-3623286-7563-1441 -9.95356225838839e-07 125000 -1154.45683278219 0 0 186 (C1) n - 1
REM
REM in /home/nfs/bkarasulu/CARBON/AIRSS/Generating-Clusters/LCBOP/Higher-Symm/SD-CG/FIRE-CG
REM
REM
REM
REM
REM
REM ./C.cell (b20cbc046b6831c77cfcea5457e17084)
REM AIRSS Version 0.9.1 bugfix July 2018 build 013d7b7c2542+ Fri, 06 Jul 2018 19:26:36 +0100
REM compiler GCC version 9.2.1 20190827 (Red Hat 9.2.1-1)
REM options -cpp -mtune=generic -march=x86-64 -g -O0 -fpre-include=/usr/include/finclude/math-vector-fortran.h
REM seed -1878178935 -581355614 -1467291437 -1664727760 1474737505 -438427169 971186660 -228980880 -1429104585 1498592249 -1978604974 721740164 716713220 1663990554 -752636360 -401231942 -1640485991 1415250218 -1303494796 -1321443445 -1044290331 -180006410 -1093887478 -800608504 166115002 127472804 -1287272052 1852802316 -406472765 -590705764 1941233010 -2078217470 -823866897
REM
CELL 1.54180   50.00000   50.00000   50.00000   90.00000   90.00000   90.00000
LATT -1
SFAC C  
C      1  0.5270360000000  0.4067190000000  0.5136500000000 1.0
C      1  0.4763230000000  0.4052100000000  0.5080760000000 1.0
C      1  0.4703480000000  0.4670470000000  0.4874900000000 1.0
C      1  0.5313680000000  0.4710120000000  0.4918870000000 1.0
C      1  0.5658730000000  0.6025930000000  0.5104060000000 1.0
C      1  0.4308020000000  0.5938010000000  0.5161470000000 1.0
C      1  0.4858060000000  0.5411740000000  0.4580310000000 1.0
C      1  0.5120060000000  0.5455250000000  0.4556960000000 1.0
C      1  0.5117430000000  0.5718180000000  0.4912010000000 1.0
C      1  0.4833840000000  0.5724420000000  0.4952070000000 1.0
C      1  0.5117590000000  0.5516980000000  0.4059280000000 1.0
C      1  0.4824240000000  0.5605680000000  0.4090950000000 1.0
C      1  0.5346060000000  0.4253410000000  0.4939650000000 1.0
C      1  0.4819980000000  0.4219600000000  0.4864230000000 1.0
C      1  0.4528150000000  0.4127390000000  0.5703500000000 1.0
C      1  0.5282500000000  0.4400530000000  0.5824140000000 1.0
C      1  0.5525720000000  0.6240760000000  0.5208780000000 1.0
C      1  0.4436350000000  0.6144740000000  0.5309650000000 1.0
C      1  0.4391460000000  0.5442000000000  0.5142430000000 1.0
C      1  0.5644750000000  0.5535120000000  0.5222210000000 1.0
C      1  0.4859760000000  0.4906340000000  0.4794630000000 1.0
C      1  0.5147060000000  0.4930250000000  0.4820220000000 1.0
C      1  0.4456970000000  0.5033650000000  0.4145800000000 1.0
C      1  0.5496040000000  0.5051340000000  0.4149600000000 1.0
C      1  0.5268350000000  0.5023450000000  0.3957410000000 1.0
C      1  0.4457470000000  0.5298400000000  0.4058020000000 1.0
C      1  0.4516520000000  0.5732700000000  0.4505020000000 1.0
C      1  0.5593800000000  0.5584270000000  0.4305210000000 1.0
C      1  0.5962390000000  0.5452560000000  0.4695380000000 1.0
C      1  0.4033590000000  0.5556780000000  0.4744660000000 1.0
C      1  0.4476170000000  0.5418190000000  0.4869760000000 1.0
C      1  0.5505290000000  0.5439750000000  0.4994410000000 1.0
C      1  0.3843940000000  0.5258580000000  0.5196940000000 1.0
C      1  0.6148140000000  0.5238110000000  0.5183460000000 1.0
C      1  0.4635970000000  0.3805990000000  0.4683030000000 1.0
C      1  0.5304920000000  0.3827950000000  0.4708000000000 1.0
C      1  0.5130980000000  0.6348700000000  0.5450090000000 1.0
C      1  0.4850090000000  0.6323100000000  0.5460690000000 1.0
C      1  0.5710050000000  0.4521690000000  0.5183570000000 1.0
C      1  0.4280670000000  0.4499570000000  0.5138550000000 1.0
C      1  0.4590810000000  0.4279820000000  0.5472790000000 1.0
C      1  0.5329320000000  0.4380800000000  0.5533520000000 1.0
C      1  0.4905160000000  0.4512290000000  0.4481350000000 1.0
C      1  0.5183350000000  0.4511450000000  0.4521280000000 1.0
C      1  0.5779680000000  0.4306060000000  0.4579130000000 1.0
C      1  0.4231870000000  0.4315660000000  0.4557060000000 1.0
C      1  0.4014050000000  0.4477750000000  0.4056090000000 1.0
C      1  0.5978250000000  0.4508220000000  0.4076370000000 1.0
C      1  0.5577060000000  0.4532200000000  0.5441000000000 1.0
C      1  0.4386040000000  0.4483990000000  0.5405310000000 1.0
C      1  0.6291130000000  0.5051380000000  0.4388660000000 1.0
C      1  0.3738550000000  0.5059310000000  0.4350420000000 1.0
C      1  0.5673540000000  0.5293370000000  0.5991240000000 1.0
C      1  0.4485440000000  0.5192070000000  0.6071600000000 1.0
C      1  0.5138940000000  0.4855720000000  0.5744130000000 1.0
C      1  0.4854030000000  0.4833560000000  0.5734500000000 1.0
C      1  0.4450890000000  0.4233270000000  0.4116540000000 1.0
C      1  0.5546820000000  0.4264750000000  0.4143240000000 1.0
C      1  0.5325000000000  0.5065920000000  0.5713260000000 1.0
C      1  0.4679040000000  0.5046890000000  0.5665900000000 1.0
C      1  0.5147880000000  0.5273920000000  0.3887610000000 1.0
C      1  0.4635860000000  0.5466430000000  0.3925670000000 1.0
C      1  0.6127040000000  0.4331580000000  0.4237860000000 1.0
C      1  0.3868080000000  0.4315820000000  0.4233970000000 1.0
C      1  0.3903760000000  0.4186140000000  0.5086130000000 1.0
C      1  0.6086880000000  0.4202560000000  0.5177490000000 1.0
C      1  0.4566830000000  0.4200490000000  0.5957860000000 1.0
C      1  0.5298610000000  0.4170350000000  0.5981450000000 1.0
C      1  0.5316310000000  0.5318510000000  0.5540990000000 1.0
C      1  0.4781920000000  0.5302090000000  0.5591010000000 1.0
C      1  0.5960980000000  0.4759770000000  0.4598010000000 1.0
C      1  0.4073720000000  0.4780360000000  0.4567190000000 1.0
C      1  0.4445830000000  0.5023960000000  0.5841180000000 1.0
C      1  0.5558280000000  0.5052930000000  0.5892020000000 1.0
C      1  0.4858500000000  0.4408490000000  0.3885900000000 1.0
C      1  0.5134610000000  0.4463950000000  0.3930530000000 1.0
C      1  0.4908630000000  0.5469570000000  0.5788200000000 1.0
C      1  0.5191190000000  0.5512570000000  0.5747400000000 1.0
C      1  0.5221150000000  0.4655260000000  0.5943600000000 1.0
C      1  0.4758170000000  0.4688780000000  0.5974140000000 1.0
C      1  0.5261000000000  0.4463620000000  0.4788860000000 1.0
C      1  0.4776820000000  0.4446460000000  0.4723370000000 1.0
C      1  0.5881060000000  0.4935040000000  0.5452120000000 1.0
C      1  0.4069970000000  0.4865120000000  0.5433440000000 1.0
C      1  0.3998580000000  0.4442310000000  0.5094190000000 1.0
C      1  0.5992480000000  0.4458160000000  0.5170430000000 1.0
C      1  0.4767980000000  0.5634000000000  0.5213120000000 1.0
C      1  0.5239400000000  0.5508510000000  0.5063280000000 1.0
C      1  0.4634890000000  0.4938560000000  0.4349650000000 1.0
C      1  0.5411510000000  0.4977850000000  0.4412400000000 1.0
C      1  0.5338890000000  0.4703230000000  0.4397130000000 1.0
C      1  0.4776730000000  0.4696800000000  0.4312050000000 1.0
C      1  0.3824040000000  0.4669930000000  0.5080170000000 1.0
C      1  0.6161750000000  0.4687770000000  0.5154110000000 1.0
C      1  0.5271550000000  0.3823110000000  0.4981820000000 1.0
C      1  0.4659600000000  0.3816740000000  0.4956200000000 1.0
C      1  0.4190590000000  0.5122180000000  0.5437480000000 1.0
C      1  0.5828620000000  0.5209750000000  0.5506400000000 1.0
C      1  0.5808570000000  0.5710650000000  0.5741270000000 1.0
C      1  0.4297240000000  0.5580180000000  0.5784390000000 1.0
C      1  0.4646410000000  0.6331810000000  0.5257930000000 1.0
C      1  0.5289980000000  0.6379470000000  0.5217820000000 1.0
C      1  0.5151790000000  0.6200710000000  0.5908810000000 1.0
C      1  0.4883600000000  0.6159160000000  0.5914690000000 1.0
C      1  0.5618790000000  0.4697260000000  0.4953130000000 1.0
C      1  0.4405780000000  0.4681570000000  0.4931890000000 1.0
C      1  0.4401100000000  0.5750530000000  0.5575790000000 1.0
C      1  0.5684950000000  0.5892650000000  0.5556130000000 1.0
C      1  0.4721080000000  0.5798030000000  0.4291410000000 1.0
C      1  0.5327670000000  0.5671890000000  0.4209090000000 1.0
C      1  0.5710120000000  0.4436340000000  0.3989320000000 1.0
C      1  0.4278890000000  0.4397720000000  0.3963760000000 1.0
C      1  0.4923280000000  0.5699670000000  0.6197010000000 1.0
C      1  0.5195390000000  0.5724430000000  0.6171910000000 1.0
C      1  0.5134330000000  0.4746680000000  0.6212370000000 1.0
C      1  0.4856990000000  0.4843930000000  0.6203100000000 1.0
C      1  0.4498850000000  0.6023330000000  0.5580200000000 1.0
C      1  0.5533040000000  0.6126040000000  0.5582300000000 1.0
C      1  0.6090550000000  0.5357290000000  0.4921990000000 1.0
C      1  0.3903240000000  0.5411390000000  0.4947900000000 1.0
C      1  0.4730900000000  0.4198890000000  0.4042610000000 1.0
C      1  0.5267780000000  0.4245280000000  0.4073490000000 1.0
C      1  0.4733960000000  0.5390390000000  0.3670770000000 1.0
C      1  0.4983700000000  0.5284870000000  0.3654640000000 1.0
C      1  0.3940770000000  0.4877650000000  0.4339990000000 1.0
C      1  0.6078410000000  0.4882350000000  0.4374600000000 1.0
C      1  0.4372180000000  0.4980730000000  0.4993360000000 1.0
C      1  0.5690690000000  0.4989340000000  0.4965760000000 1.0
C      1  0.4679080000000  0.4590420000000  0.3764920000000 1.0
C      1  0.5283630000000  0.4719100000000  0.3884450000000 1.0
C      1  0.4684140000000  0.5070630000000  0.6253080000000 1.0
C      1  0.5287500000000  0.4738640000000  0.6437440000000 1.0
C      1  0.4236080000000  0.4674860000000  0.5573570000000 1.0
C      1  0.5731940000000  0.4733480000000  0.5594510000000 1.0
C      1  0.4728420000000  0.6164160000000  0.5680880000000 1.0
C      1  0.5292720000000  0.6238750000000  0.5668010000000 1.0
C      1  0.4666020000000  0.5041440000000  0.4616210000000 1.0
C      1  0.5344400000000  0.5092250000000  0.4668070000000 1.0
C      1  0.4416750000000  0.4633180000000  0.3852920000000 1.0
C      1  0.5576630000000  0.4675280000000  0.3891430000000 1.0
C      1  0.4252740000000  0.4586380000000  0.4673700000000 1.0
C      1  0.5770770000000  0.4573700000000  0.4705670000000 1.0
C      1  0.4038350000000  0.5477710000000  0.5695100000000 1.0
C      1  0.6052720000000  0.5589900000000  0.5631940000000 1.0
C      1  0.5137820000000  0.4202230000000  0.5365270000000 1.0
C      1  0.4831810000000  0.4181900000000  0.5332710000000 1.0
C      1  0.4159090000000  0.4687010000000  0.6054810000000 1.0
C      1  0.5811180000000  0.4669620000000  0.6075760000000 1.0
C      1  0.5632590000000  0.5570470000000  0.5930760000000 1.0
C      1  0.4482880000000  0.5476710000000  0.5997520000000 1.0
C      1  0.4458460000000  0.5151390000000  0.4773670000000 1.0
C      1  0.5540750000000  0.5199950000000  0.4849500000000 1.0
C      1  0.4864350000000  0.5401940000000  0.5341170000000 1.0
C      1  0.5141020000000  0.5368140000000  0.5292850000000 1.0
C      1  0.5297420000000  0.3958440000000  0.6133070000000 1.0
C      1  0.4660610000000  0.4436520000000  0.6036860000000 1.0
C      1  0.4755510000000  0.5577730000000  0.6002730000000 1.0
C      1  0.5352230000000  0.5637470000000  0.5950370000000 1.0
C      1  0.3861260000000  0.4906070000000  0.5227140000000 1.0
C      1  0.6095260000000  0.4944420000000  0.5248510000000 1.0
C      1  0.4038060000000  0.4767090000000  0.4098750000000 1.0
C      1  0.5966180000000  0.4797390000000  0.4129870000000 1.0
C      1  0.3986010000000  0.5326770000000  0.5456840000000 1.0
C      1  0.6068210000000  0.5371690000000  0.5445010000000 1.0
C      1  0.4225710000000  0.5679850000000  0.4576760000000 1.0
C      1  0.5792990000000  0.5524180000000  0.4488110000000 1.0
C      1  0.4360040000000  0.5163820000000  0.5221890000000 1.0
C      1  0.5598640000000  0.5356420000000  0.5443050000000 1.0
C      1  0.5699850000000  0.4805740000000  0.5868220000000 1.0
C      1  0.4288940000000  0.4782630000000  0.5833790000000 1.0
C      1  0.3964040000000  0.4247260000000  0.4478760000000 1.0
C      1  0.6041510000000  0.4240910000000  0.4479610000000 1.0
C      1  0.5140900000000  0.4055730000000  0.4266560000000 1.0
C      1  0.4857660000000  0.4034950000000  0.4254940000000 1.0
C      1  0.5340250000000  0.3993680000000  0.4478480000000 1.0
C      1  0.4646760000000  0.3979800000000  0.4458720000000 1.0
C      1  0.5699360000000  0.5805770000000  0.5277310000000 1.0
C      1  0.4334770000000  0.5677900000000  0.5289700000000 1.0
C      1  0.5201440000000  0.5866810000000  0.4398940000000 1.0
C      1  0.4943070000000  0.5977820000000  0.4343890000000 1.0
C      1  0.5574840000000  0.4172330000000  0.4423930000000 1.0
C      1  0.4425010000000  0.4168350000000  0.4402410000000 1.0
C      1  0.5717290000000  0.4902740000000  0.4031220000000 1.0
C      1  0.4296830000000  0.4851980000000  0.3998350000000 1.0
C      1  0.5206230000000  0.5718770000000  0.4644390000000 1.0
C      1  0.4670760000000  0.5591400000000  0.4733450000000 1.0
END
