TITL C-3623287-7182-279 -1.92479651431733e-06 125000 -1142.64759019534 0 0 181 (C1) n - 1
REM
REM in /home/nfs/bkarasulu/CARBON/AIRSS/Generating-Clusters/LCBOP/Higher-Symm/SD-CG/FIRE-CG
REM
REM
REM
REM
REM
REM ./C.cell (b20cbc046b6831c77cfcea5457e17084)
REM AIRSS Version 0.9.1 bugfix July 2018 build 013d7b7c2542+ Fri, 06 Jul 2018 19:26:36 +0100
REM compiler GCC version 9.2.1 20190827 (Red Hat 9.2.1-1)
REM options -cpp -mtune=generic -march=x86-64 -g -O0 -fpre-include=/usr/include/finclude/math-vector-fortran.h
REM seed -507715147 -493321830 -2137112609 -1914114167 225752982 1977950827 860402140 -870495225 1187097617 -165036654 -926371886 -1985799040 1319135672 -830699838 1455826203 100758286 552205141 1885609382 2090729817 -1486757445 -1677164235 -1713447181 -596987164 1286239722 1854879606 787939943 897527531 266171453 454209604 -1785411139 1424733391 132949118 -289465749
REM
CELL 1.54180   50.00000   50.00000   50.00000   90.00000   90.00000   90.00000
LATT -1
SFAC C  
C      1  0.4791960000000  0.3926180000000  0.4491420000000 1.0
C      1  0.3913790000000  0.4902330000000  0.4537330000000 1.0
C      1  0.4540500000000  0.5985930000000  0.4571330000000 1.0
C      1  0.5874430000000  0.5592500000000  0.4435270000000 1.0
C      1  0.5997870000000  0.4568310000000  0.4499310000000 1.0
C      1  0.4485900000000  0.5501080000000  0.5969380000000 1.0
C      1  0.5301770000000  0.5638980000000  0.5988890000000 1.0
C      1  0.5680920000000  0.4902240000000  0.5991790000000 1.0
C      1  0.5099180000000  0.4326830000000  0.5942300000000 1.0
C      1  0.4372160000000  0.4687020000000  0.5933890000000 1.0
C      1  0.5017570000000  0.4754750000000  0.4053440000000 1.0
C      1  0.4751630000000  0.4890000000000  0.4090750000000 1.0
C      1  0.4781480000000  0.5190970000000  0.4120770000000 1.0
C      1  0.5072500000000  0.5259290000000  0.4110830000000 1.0
C      1  0.5216310000000  0.5002620000000  0.4069530000000 1.0
C      1  0.5026720000000  0.5328980000000  0.3652930000000 1.0
C      1  0.5176310000000  0.5073850000000  0.3605160000000 1.0
C      1  0.4976400000000  0.4848550000000  0.3586370000000 1.0
C      1  0.4698870000000  0.4950460000000  0.3631650000000 1.0
C      1  0.4728630000000  0.5254050000000  0.3666020000000 1.0
C      1  0.5220320000000  0.4945920000000  0.6230990000000 1.0
C      1  0.4996670000000  0.4758890000000  0.6215300000000 1.0
C      1  0.4751000000000  0.4914170000000  0.6212600000000 1.0
C      1  0.4821490000000  0.5196600000000  0.6225420000000 1.0
C      1  0.5113000000000  0.5217490000000  0.6234400000000 1.0
C      1  0.4324590000000  0.4809170000000  0.4275920000000 1.0
C      1  0.4558550000000  0.5552310000000  0.4330270000000 1.0
C      1  0.5406810000000  0.5561080000000  0.4269290000000 1.0
C      1  0.5622000000000  0.4744330000000  0.4161440000000 1.0
C      1  0.5069650000000  0.4264090000000  0.4245530000000 1.0
C      1  0.6115160000000  0.4731440000000  0.5255580000000 1.0
C      1  0.5099370000000  0.3933350000000  0.5154200000000 1.0
C      1  0.3988730000000  0.4611860000000  0.5145590000000 1.0
C      1  0.4301140000000  0.5866270000000  0.5188070000000 1.0
C      1  0.5589920000000  0.5911620000000  0.5183290000000 1.0
C      1  0.3718520000000  0.5349260000000  0.4613640000000 1.0
C      1  0.4906410000000  0.6313310000000  0.4621830000000 1.0
C      1  0.6225050000000  0.5250270000000  0.4536250000000 1.0
C      1  0.5923570000000  0.4067290000000  0.4607350000000 1.0
C      1  0.4301690000000  0.3909900000000  0.4547470000000 1.0
C      1  0.5092710000000  0.5792060000000  0.5872150000000 1.0
C      1  0.5751430000000  0.5149580000000  0.5872380000000 1.0
C      1  0.5358510000000  0.4344130000000  0.5831260000000 1.0
C      1  0.4461660000000  0.4448490000000  0.5807490000000 1.0
C      1  0.4284100000000  0.5345770000000  0.5842200000000 1.0
C      1  0.4071250000000  0.5402450000000  0.5369070000000 1.0
C      1  0.5084640000000  0.6014790000000  0.5393890000000 1.0
C      1  0.5989890000000  0.5236860000000  0.5422080000000 1.0
C      1  0.5541060000000  0.4173050000000  0.5379670000000 1.0
C      1  0.4355560000000  0.4253240000000  0.5333210000000 1.0
C      1  0.5086610000000  0.5804940000000  0.5589610000000 1.0
C      1  0.5769630000000  0.5168310000000  0.5591510000000 1.0
C      1  0.5394830000000  0.4351000000000  0.5551170000000 1.0
C      1  0.4477160000000  0.4429710000000  0.5525530000000 1.0
C      1  0.4275920000000  0.5339380000000  0.5559430000000 1.0
C      1  0.4884140000000  0.4032040000000  0.5584880000000 1.0
C      1  0.4022680000000  0.4819110000000  0.5589440000000 1.0
C      1  0.4516450000000  0.5879880000000  0.5626530000000 1.0
C      1  0.5664170000000  0.5718460000000  0.5628960000000 1.0
C      1  0.5903830000000  0.4581210000000  0.5656460000000 1.0
C      1  0.3983930000000  0.5146480000000  0.5228190000000 1.0
C      1  0.4810810000000  0.6021930000000  0.5259990000000 1.0
C      1  0.5919120000000  0.5492360000000  0.5267430000000 1.0
C      1  0.5776300000000  0.4326970000000  0.5260340000000 1.0
C      1  0.4573120000000  0.4081160000000  0.5204080000000 1.0
C      1  0.4591170000000  0.5712810000000  0.4561300000000 1.0
C      1  0.5603060000000  0.5549700000000  0.4476840000000 1.0
C      1  0.5733080000000  0.4631370000000  0.4414940000000 1.0
C      1  0.4928410000000  0.4168630000000  0.4483160000000 1.0
C      1  0.4188570000000  0.4865430000000  0.4518580000000 1.0
C      1  0.4518880000000  0.5075460000000  0.5172680000000 1.0
C      1  0.4925330000000  0.5493190000000  0.5202010000000 1.0
C      1  0.5463230000000  0.5236290000000  0.5164550000000 1.0
C      1  0.5386920000000  0.4669140000000  0.5121810000000 1.0
C      1  0.4807470000000  0.4551030000000  0.5128260000000 1.0
C      1  0.5755400000000  0.6041800000000  0.5001350000000 1.0
C      1  0.6355130000000  0.4630180000000  0.5164160000000 1.0
C      1  0.5064010000000  0.3713440000000  0.4986140000000 1.0
C      1  0.3752290000000  0.4574710000000  0.5003330000000 1.0
C      1  0.4194380000000  0.6083660000000  0.5051710000000 1.0
C      1  0.4152410000000  0.5585370000000  0.4142640000000 1.0
C      1  0.5224730000000  0.5955440000000  0.4147440000000 1.0
C      1  0.5353840000000  0.4547660000000  0.3760210000000 1.0
C      1  0.5405820000000  0.3896690000000  0.4244580000000 1.0
C      1  0.4226160000000  0.4418980000000  0.4083200000000 1.0
C      1  0.4973530000000  0.5232580000000  0.5144150000000 1.0
C      1  0.5224570000000  0.5124060000000  0.5096910000000 1.0
C      1  0.5194090000000  0.4849170000000  0.5051770000000 1.0
C      1  0.4920310000000  0.4792010000000  0.5071220000000 1.0
C      1  0.4783000000000  0.5029830000000  0.5124230000000 1.0
C      1  0.5570870000000  0.4440590000000  0.5994240000000 1.0
C      1  0.4629930000000  0.4269290000000  0.5952060000000 1.0
C      1  0.4171060000000  0.5118000000000  0.5971840000000 1.0
C      1  0.4842190000000  0.5818790000000  0.6005730000000 1.0
C      1  0.5708320000000  0.5393810000000  0.6011650000000 1.0
C      1  0.5543100000000  0.4745440000000  0.3866210000000 1.0
C      1  0.5249920000000  0.4084020000000  0.4132740000000 1.0
C      1  0.4324770000000  0.4681210000000  0.4010450000000 1.0
C      1  0.4423730000000  0.5528190000000  0.4073210000000 1.0
C      1  0.5276900000000  0.5693540000000  0.4040840000000 1.0
C      1  0.5565710000000  0.5384630000000  0.6262370000000 1.0
C      1  0.5510030000000  0.4561520000000  0.6249160000000 1.0
C      1  0.4728830000000  0.4355060000000  0.6209670000000 1.0
C      1  0.4284450000000  0.5034410000000  0.6223640000000 1.0
C      1  0.4801080000000  0.5677720000000  0.6254280000000 1.0
C      1  0.5610150000000  0.5344120000000  0.4944850000000 1.0
C      1  0.5555040000000  0.4574890000000  0.4909610000000 1.0
C      1  0.4771550000000  0.4379030000000  0.4905670000000 1.0
C      1  0.4346500000000  0.5061260000000  0.4948060000000 1.0
C      1  0.4845370000000  0.5648770000000  0.4980820000000 1.0
C      1  0.4850510000000  0.4009080000000  0.5304080000000 1.0
C      1  0.3991300000000  0.4859600000000  0.5311630000000 1.0
C      1  0.4541620000000  0.5930280000000  0.5349950000000 1.0
C      1  0.5730070000000  0.5711510000000  0.5352730000000 1.0
C      1  0.5934910000000  0.4540730000000  0.5380320000000 1.0
C      1  0.4658000000000  0.4882420000000  0.4599300000000 1.0
C      1  0.4805770000000  0.5289310000000  0.4627030000000 1.0
C      1  0.5239050000000  0.5282160000000  0.4606970000000 1.0
C      1  0.5358420000000  0.4870810000000  0.4542600000000 1.0
C      1  0.5001260000000  0.4625120000000  0.4534350000000 1.0
C      1  0.4910220000000  0.4392330000000  0.4667190000000 1.0
C      1  0.4399380000000  0.4918790000000  0.4717390000000 1.0
C      1  0.4743220000000  0.5542940000000  0.4747750000000 1.0
C      1  0.5488580000000  0.5392380000000  0.4698800000000 1.0
C      1  0.5546890000000  0.4683040000000  0.4645970000000 1.0
C      1  0.4291100000000  0.4278060000000  0.4853030000000 1.0
C      1  0.4081810000000  0.5483000000000  0.4894350000000 1.0
C      1  0.5151770000000  0.6025820000000  0.4914220000000 1.0
C      1  0.6051000000000  0.5136520000000  0.4966560000000 1.0
C      1  0.5554480000000  0.4084390000000  0.4915280000000 1.0
C      1  0.5139240000000  0.6149490000000  0.4651890000000 1.0
C      1  0.6153850000000  0.5046260000000  0.4717330000000 1.0
C      1  0.5667490000000  0.3965360000000  0.4682660000000 1.0
C      1  0.4220900000000  0.4181700000000  0.4585620000000 1.0
C      1  0.3944050000000  0.5522510000000  0.4642120000000 1.0
C      1  0.5383350000000  0.4999060000000  0.3806070000000 1.0
C      1  0.5076380000000  0.4640900000000  0.3770630000000 1.0
C      1  0.4554400000000  0.4814490000000  0.3856850000000 1.0
C      1  0.4602760000000  0.5347880000000  0.3915130000000 1.0
C      1  0.5126800000000  0.5477730000000  0.3890510000000 1.0
C      1  0.5483700000000  0.4849670000000  0.6209110000000 1.0
C      1  0.4988950000000  0.4481160000000  0.6171310000000 1.0
C      1  0.4485950000000  0.4830860000000  0.6169650000000 1.0
C      1  0.4662750000000  0.5427290000000  0.6197770000000 1.0
C      1  0.5284270000000  0.5440410000000  0.6210730000000 1.0
C      1  0.6076680000000  0.5017630000000  0.5233540000000 1.0
C      1  0.5380530000000  0.4033430000000  0.5160790000000 1.0
C      1  0.4181370000000  0.4388320000000  0.5117950000000 1.0
C      1  0.4145500000000  0.5617270000000  0.5160610000000 1.0
C      1  0.5307840000000  0.6001980000000  0.5176730000000 1.0
C      1  0.6112310000000  0.5471640000000  0.4437440000000 1.0
C      1  0.6050350000000  0.4293950000000  0.4537170000000 1.0
C      1  0.4549610000000  0.3813720000000  0.4506120000000 1.0
C      1  0.3719510000000  0.5084430000000  0.4564930000000 1.0
C      1  0.4653270000000  0.6228570000000  0.4584240000000 1.0
C      1  0.5690090000000  0.4337620000000  0.4982950000000 1.0
C      1  0.4563600000000  0.4193180000000  0.4936210000000 1.0
C      1  0.4103140000000  0.5198320000000  0.4969530000000 1.0
C      1  0.4888610000000  0.5924220000000  0.4999540000000 1.0
C      1  0.5885220000000  0.5376430000000  0.4999160000000 1.0
C      1  0.4701360000000  0.4538610000000  0.5389350000000 1.0
C      1  0.4465870000000  0.5176720000000  0.5428800000000 1.0
C      1  0.4997980000000  0.5570570000000  0.5459890000000 1.0
C      1  0.5537100000000  0.5188430000000  0.5432350000000 1.0
C      1  0.5361120000000  0.4583860000000  0.5391460000000 1.0
C      1  0.5414550000000  0.4923510000000  0.4275300000000 1.0
C      1  0.5061820000000  0.4552130000000  0.4264890000000 1.0
C      1  0.4606320000000  0.4819190000000  0.4335240000000 1.0
C      1  0.4692930000000  0.5306060000000  0.4375370000000 1.0
C      1  0.5198330000000  0.5376560000000  0.4350650000000 1.0
C      1  0.4039950000000  0.5616510000000  0.4390070000000 1.0
C      1  0.5239720000000  0.6061510000000  0.4399180000000 1.0
C      1  0.6139490000000  0.4780530000000  0.4621660000000 1.0
C      1  0.5522120000000  0.3840680000000  0.4478840000000 1.0
C      1  0.4177380000000  0.4315210000000  0.4334070000000 1.0
C      1  0.5568610000000  0.5611160000000  0.5867670000000 1.0
C      1  0.5746790000000  0.4642660000000  0.5874770000000 1.0
C      1  0.4878190000000  0.4182150000000  0.5817940000000 1.0
C      1  0.4166130000000  0.4862740000000  0.5822470000000 1.0
C      1  0.4595270000000  0.5750210000000  0.5858520000000 1.0
C      1  0.5015840000000  0.4982500000000  0.4627260000000 1.0
END
