TITL C-3623289-7120-1816 4.40751650932486e-07 125000 -530.930267531371 0 0 89 (C1) n - 1
REM
REM in /home/nfs/bkarasulu/CARBON/AIRSS/Generating-Clusters/LCBOP/Higher-Symm/SD-CG/FIRE-CG
REM
REM
REM
REM
REM
REM ./C.cell (b20cbc046b6831c77cfcea5457e17084)
REM AIRSS Version 0.9.1 bugfix July 2018 build 013d7b7c2542+ Fri, 06 Jul 2018 19:26:36 +0100
REM compiler GCC version 9.2.1 20190827 (Red Hat 9.2.1-1)
REM options -cpp -mtune=generic -march=x86-64 -g -O0 -fpre-include=/usr/include/finclude/math-vector-fortran.h
REM seed 889929065 88647883 572681385 -1125460770 -1045750011 808768674 1383056293 -1851432920 1951343699 289801765 1214532166 -368297999 -1045024846 -807404071 467000590 -618917334 -452567774 -1484820953 772145936 1736028248 -1178674414 -1698012940 -278697483 -1341918814 72048464 1196966544 1092680126 1670701093 -7575478 336038807 -739009735 -1425555558 -801036854
REM
CELL 1.54180   50.00000   50.00000   50.00000   90.00000   90.00000   90.00000
LATT -1
SFAC C  
C      1  0.4882390000000  0.4501400000000  0.4991900000000 1.0
C      1  0.4826240000000  0.4836670000000  0.4560860000000 1.0
C      1  0.4901130000000  0.5315020000000  0.4698000000000 1.0
C      1  0.4872950000000  0.5413640000000  0.5268650000000 1.0
C      1  0.4883900000000  0.4841420000000  0.5471500000000 1.0
C      1  0.5162580000000  0.4481600000000  0.5008990000000 1.0
C      1  0.5141800000000  0.4799980000000  0.4532620000000 1.0
C      1  0.5180190000000  0.5369880000000  0.4686880000000 1.0
C      1  0.5148470000000  0.5410050000000  0.5281780000000 1.0
C      1  0.5158460000000  0.4839360000000  0.5481070000000 1.0
C      1  0.4459550000000  0.5518900000000  0.5059040000000 1.0
C      1  0.4497390000000  0.5120710000000  0.5513000000000 1.0
C      1  0.4479090000000  0.4586110000000  0.5253780000000 1.0
C      1  0.4359960000000  0.4676500000000  0.4721380000000 1.0
C      1  0.4277090000000  0.5212560000000  0.4571440000000 1.0
C      1  0.5550240000000  0.5496860000000  0.5048580000000 1.0
C      1  0.5557000000000  0.5103090000000  0.5489580000000 1.0
C      1  0.5566440000000  0.4555970000000  0.5262800000000 1.0
C      1  0.5569320000000  0.4596360000000  0.4661620000000 1.0
C      1  0.5593030000000  0.5180960000000  0.4540200000000 1.0
C      1  0.4779270000000  0.4703740000000  0.5706660000000 1.0
C      1  0.4794760000000  0.4225580000000  0.4930970000000 1.0
C      1  0.4785140000000  0.4819730000000  0.4239670000000 1.0
C      1  0.4779730000000  0.5571180000000  0.4612860000000 1.0
C      1  0.4767130000000  0.5582420000000  0.5484720000000 1.0
C      1  0.5254770000000  0.4700520000000  0.5717650000000 1.0
C      1  0.5264550000000  0.4213520000000  0.4950890000000 1.0
C      1  0.5254270000000  0.4803720000000  0.4260880000000 1.0
C      1  0.5255800000000  0.5633260000000  0.4594950000000 1.0
C      1  0.5242800000000  0.5590260000000  0.5490940000000 1.0
C      1  0.4852680000000  0.5418380000000  0.5725370000000 1.0
C      1  0.4855590000000  0.4422090000000  0.5629210000000 1.0
C      1  0.4898690000000  0.4206100000000  0.4644360000000 1.0
C      1  0.4885270000000  0.5087310000000  0.4155100000000 1.0
C      1  0.4839880000000  0.5778920000000  0.4826560000000 1.0
C      1  0.5172550000000  0.5422170000000  0.5733540000000 1.0
C      1  0.5178290000000  0.4417020000000  0.5638630000000 1.0
C      1  0.5213080000000  0.4202720000000  0.4652890000000 1.0
C      1  0.5196840000000  0.5081190000000  0.4163770000000 1.0
C      1  0.5158980000000  0.5805720000000  0.4822290000000 1.0
C      1  0.5377590000000  0.4302820000000  0.5431650000000 1.0
C      1  0.5414970000000  0.4374090000000  0.4483880000000 1.0
C      1  0.5399320000000  0.5293170000000  0.4252870000000 1.0
C      1  0.5358400000000  0.5800350000000  0.5055060000000 1.0
C      1  0.5374610000000  0.5187350000000  0.5777000000000 1.0
C      1  0.4665760000000  0.4327320000000  0.5407000000000 1.0
C      1  0.4741130000000  0.4385160000000  0.4469390000000 1.0
C      1  0.4690090000000  0.5298080000000  0.4228880000000 1.0
C      1  0.4625590000000  0.5780370000000  0.5057790000000 1.0
C      1  0.4664310000000  0.5182110000000  0.5761910000000 1.0
C      1  0.5268910000000  0.4104130000000  0.5228830000000 1.0
C      1  0.5306870000000  0.4509240000000  0.4226640000000 1.0
C      1  0.5286890000000  0.5573850000000  0.4304940000000 1.0
C      1  0.5247100000000  0.5844780000000  0.5332760000000 1.0
C      1  0.5265050000000  0.4932520000000  0.5907180000000 1.0
C      1  0.4771820000000  0.4122050000000  0.5210280000000 1.0
C      1  0.4818390000000  0.4514550000000  0.4209960000000 1.0
C      1  0.4792930000000  0.5553240000000  0.4317930000000 1.0
C      1  0.4743710000000  0.5836950000000  0.5333590000000 1.0
C      1  0.4767810000000  0.4933380000000  0.5896080000000 1.0
C      1  0.4238910000000  0.5310940000000  0.5084950000000 1.0
C      1  0.4264070000000  0.5097530000000  0.5325150000000 1.0
C      1  0.4262600000000  0.4802020000000  0.5203670000000 1.0
C      1  0.4224370000000  0.4849870000000  0.4906080000000 1.0
C      1  0.4204360000000  0.5136220000000  0.4838180000000 1.0
C      1  0.5789350000000  0.5256460000000  0.5026470000000 1.0
C      1  0.5778010000000  0.5056910000000  0.5277520000000 1.0
C      1  0.5784570000000  0.4756310000000  0.5163160000000 1.0
C      1  0.5796460000000  0.4772940000000  0.4839290000000 1.0
C      1  0.5807750000000  0.5082190000000  0.4751130000000 1.0
C      1  0.4698480000000  0.4993070000000  0.5343450000000 1.0
C      1  0.4675090000000  0.4664310000000  0.5062980000000 1.0
C      1  0.4616430000000  0.4612670000000  0.4617520000000 1.0
C      1  0.4436960000000  0.5231590000000  0.4352620000000 1.0
C      1  0.4681660000000  0.5339490000000  0.5081610000000 1.0
C      1  0.5345550000000  0.4982640000000  0.5359260000000 1.0
C      1  0.5360790000000  0.4635650000000  0.5102000000000 1.0
C      1  0.5357730000000  0.4767180000000  0.4690710000000 1.0
C      1  0.5384600000000  0.5198130000000  0.4707420000000 1.0
C      1  0.5342520000000  0.5338140000000  0.5113940000000 1.0
C      1  0.4992780000000  0.5983860000000  0.5346340000000 1.0
C      1  0.5012780000000  0.4961140000000  0.6045740000000 1.0
C      1  0.5032190000000  0.5643090000000  0.4187740000000 1.0
C      1  0.5064540000000  0.4413000000000  0.4101830000000 1.0
C      1  0.5013140000000  0.3984970000000  0.5292380000000 1.0
C      1  0.5343690000000  0.4985180000000  0.4998270000000 1.0
C      1  0.4658830000000  0.5051130000000  0.5041670000000 1.0
C      1  0.5073960000000  0.4966980000000  0.4952220000000 1.0
C      1  0.4829220000000  0.5036910000000  0.4799880000000 1.0
END
