TITL C-3623285-6872-1869 -18.3161360115705 125000 -920.906982450707 0 0 151 (C1) n - 1
REM
REM in /home/nfs/bkarasulu/CARBON/AIRSS/Generating-Clusters/LCBOP/Higher-Symm/SD-CG/FIRE-CG
REM
REM
REM
REM
REM
REM ./C.cell (b20cbc046b6831c77cfcea5457e17084)
REM AIRSS Version 0.9.1 bugfix July 2018 build 013d7b7c2542+ Fri, 06 Jul 2018 19:26:36 +0100
REM compiler GCC version 9.2.1 20190827 (Red Hat 9.2.1-1)
REM options -cpp -mtune=generic -march=x86-64 -g -O0 -fpre-include=/usr/include/finclude/math-vector-fortran.h
REM seed -1684697943 1960789708 1465258365 2031964033 240507275 1127889765 376005941 1572603869 -118579638 2112237407 -2089725909 -924517803 1923775592 -204761758 1194115855 1897641822 -227660560 -454986990 -101460269 -1407935096 550985981 -1855153615 2097592353 -1780399787 947881132 -410790978 -1857265624 -1498547843 2007645690 -1647078407 892632539 538535375 913903742
REM
CELL 1.54180   50.00000   50.00000   50.00000   90.00000   90.00000   90.00000
LATT -1
SFAC C  
C      1  0.5085260000000  0.5063540000000  0.6120280000000 1.0
C      1  0.4139140000000  0.5149990000000  0.4376520000000 1.0
C      1  0.5922280000000  0.5065140000000  0.4373530000000 1.0
C      1  0.5436670000000  0.4818980000000  0.5301420000000 1.0
C      1  0.4437640000000  0.5039490000000  0.5179620000000 1.0
C      1  0.5036570000000  0.4784760000000  0.4463220000000 1.0
C      1  0.5161200000000  0.5565560000000  0.5445440000000 1.0
C      1  0.4611570000000  0.5558760000000  0.4869160000000 1.0
C      1  0.5349060000000  0.5530720000000  0.4580790000000 1.0
C      1  0.4094230000000  0.4685830000000  0.5243070000000 1.0
C      1  0.5361630000000  0.4632210000000  0.3916600000000 1.0
C      1  0.5760550000000  0.4628470000000  0.5768210000000 1.0
C      1  0.5943770000000  0.4394580000000  0.4665310000000 1.0
C      1  0.4809570000000  0.4418520000000  0.5901260000000 1.0
C      1  0.4417230000000  0.4455230000000  0.4417770000000 1.0
C      1  0.5109170000000  0.4501090000000  0.3961760000000 1.0
C      1  0.5846680000000  0.4524100000000  0.5521350000000 1.0
C      1  0.4253800000000  0.4568690000000  0.5448400000000 1.0
C      1  0.4881000000000  0.5641900000000  0.5471440000000 1.0
C      1  0.4731320000000  0.5802280000000  0.4774740000000 1.0
C      1  0.5451070000000  0.5704910000000  0.4817200000000 1.0
C      1  0.4678430000000  0.5929930000000  0.5739570000000 1.0
C      1  0.4441940000000  0.6141010000000  0.4596280000000 1.0
C      1  0.5035260000000  0.6739800000000  0.4641700000000 1.0
C      1  0.4748010000000  0.5635230000000  0.5729070000000 1.0
C      1  0.4536630000000  0.5876030000000  0.4563800000000 1.0
C      1  0.5728600000000  0.5596140000000  0.4851020000000 1.0
C      1  0.5251990000000  0.4145690000000  0.4366730000000 1.0
C      1  0.5459080000000  0.4086920000000  0.5516120000000 1.0
C      1  0.4369170000000  0.4128640000000  0.5140890000000 1.0
C      1  0.5192470000000  0.4255990000000  0.4108150000000 1.0
C      1  0.5690710000000  0.4278720000000  0.5452630000000 1.0
C      1  0.4315920000000  0.4286340000000  0.5386820000000 1.0
C      1  0.5985710000000  0.5472510000000  0.5454980000000 1.0
C      1  0.3818410000000  0.5838710000000  0.5477420000000 1.0
C      1  0.5004070000000  0.5627870000000  0.3691590000000 1.0
C      1  0.4853630000000  0.5291130000000  0.5156040000000 1.0
C      1  0.4971970000000  0.5217060000000  0.4727080000000 1.0
C      1  0.5352500000000  0.5305050000000  0.5085140000000 1.0
C      1  0.5217080000000  0.4349920000000  0.5122150000000 1.0
C      1  0.4914300000000  0.4547740000000  0.5423340000000 1.0
C      1  0.4804790000000  0.4500490000000  0.4965620000000 1.0
C      1  0.4098460000000  0.5511570000000  0.4987810000000 1.0
C      1  0.5464070000000  0.5281470000000  0.4155660000000 1.0
C      1  0.5470220000000  0.5333330000000  0.5810260000000 1.0
C      1  0.4808330000000  0.5515620000000  0.4084620000000 1.0
C      1  0.5590950000000  0.5385480000000  0.5209840000000 1.0
C      1  0.4200210000000  0.5614310000000  0.5576370000000 1.0
C      1  0.5501670000000  0.5079560000000  0.5724170000000 1.0
C      1  0.4054360000000  0.5245550000000  0.4975440000000 1.0
C      1  0.5341130000000  0.5043680000000  0.4185360000000 1.0
C      1  0.4686270000000  0.4382660000000  0.4409780000000 1.0
C      1  0.5712910000000  0.4268230000000  0.5159470000000 1.0
C      1  0.4479150000000  0.4181910000000  0.5608940000000 1.0
C      1  0.5284730000000  0.6040940000000  0.5469930000000 1.0
C      1  0.4544300000000  0.6258360000000  0.5306690000000 1.0
C      1  0.5163740000000  0.5982520000000  0.4467630000000 1.0
C      1  0.5141840000000  0.6244040000000  0.4504000000000 1.0
C      1  0.5130820000000  0.6139200000000  0.5668740000000 1.0
C      1  0.4485840000000  0.6356250000000  0.5063060000000 1.0
C      1  0.4276440000000  0.4409920000000  0.4669220000000 1.0
C      1  0.5717500000000  0.4347100000000  0.4481610000000 1.0
C      1  0.5094190000000  0.4334230000000  0.5846170000000 1.0
C      1  0.5397580000000  0.5022660000000  0.4663860000000 1.0
C      1  0.5098740000000  0.5084090000000  0.5480460000000 1.0
C      1  0.4415760000000  0.5073680000000  0.4701140000000 1.0
C      1  0.5027350000000  0.4025100000000  0.4795100000000 1.0
C      1  0.5249450000000  0.3783140000000  0.5151620000000 1.0
C      1  0.4756700000000  0.3784550000000  0.5116640000000 1.0
C      1  0.5503770000000  0.4155620000000  0.4534230000000 1.0
C      1  0.5177160000000  0.4113310000000  0.5653480000000 1.0
C      1  0.4375670000000  0.4183110000000  0.4840740000000 1.0
C      1  0.4031800000000  0.5998070000000  0.5391340000000 1.0
C      1  0.5181750000000  0.5698090000000  0.3896100000000 1.0
C      1  0.5847870000000  0.5712610000000  0.5446590000000 1.0
C      1  0.5287270000000  0.4905870000000  0.4426120000000 1.0
C      1  0.5344610000000  0.4957150000000  0.5524260000000 1.0
C      1  0.4285710000000  0.5084870000000  0.4949240000000 1.0
C      1  0.5534750000000  0.4603300000000  0.5916710000000 1.0
C      1  0.4033650000000  0.4693600000000  0.4977170000000 1.0
C      1  0.5592320000000  0.4622370000000  0.4061790000000 1.0
C      1  0.5014620000000  0.4059470000000  0.4500140000000 1.0
C      1  0.5477830000000  0.3899620000000  0.5277970000000 1.0
C      1  0.4545320000000  0.3909860000000  0.5256370000000 1.0
C      1  0.4236380000000  0.5414920000000  0.4387720000000 1.0
C      1  0.5816400000000  0.5307070000000  0.4480090000000 1.0
C      1  0.4950380000000  0.5298190000000  0.6077080000000 1.0
C      1  0.5163950000000  0.4469110000000  0.5358840000000 1.0
C      1  0.4722160000000  0.4522530000000  0.5235710000000 1.0
C      1  0.5015250000000  0.4301240000000  0.4929050000000 1.0
C      1  0.4583640000000  0.4848780000000  0.5857930000000 1.0
C      1  0.4584480000000  0.4783820000000  0.4085490000000 1.0
C      1  0.6024470000000  0.4833980000000  0.4949360000000 1.0
C      1  0.4658130000000  0.3982920000000  0.5522080000000 1.0
C      1  0.4735090000000  0.4117250000000  0.4470350000000 1.0
C      1  0.5637180000000  0.4021850000000  0.5051860000000 1.0
C      1  0.4436650000000  0.6313590000000  0.4802950000000 1.0
C      1  0.5094410000000  0.6496680000000  0.4568520000000 1.0
C      1  0.4897160000000  0.6102300000000  0.5801030000000 1.0
C      1  0.4953630000000  0.3948660000000  0.5527420000000 1.0
C      1  0.4574090000000  0.4014370000000  0.4696670000000 1.0
C      1  0.5508190000000  0.3994920000000  0.4790750000000 1.0
C      1  0.5838150000000  0.5276940000000  0.5323740000000 1.0
C      1  0.3920900000000  0.5605450000000  0.5590140000000 1.0
C      1  0.4776400000000  0.5516810000000  0.3807010000000 1.0
C      1  0.5254940000000  0.4572890000000  0.5951560000000 1.0
C      1  0.4114960000000  0.4650390000000  0.4708150000000 1.0
C      1  0.5736270000000  0.4586900000000  0.4303230000000 1.0
C      1  0.4784100000000  0.5837610000000  0.5272960000000 1.0
C      1  0.4923230000000  0.5863290000000  0.4998700000000 1.0
C      1  0.5230750000000  0.5816090000000  0.5007990000000 1.0
C      1  0.5597920000000  0.5673050000000  0.5309410000000 1.0
C      1  0.4288490000000  0.5866140000000  0.5451980000000 1.0
C      1  0.5066690000000  0.5630450000000  0.4160030000000 1.0
C      1  0.4999290000000  0.3787020000000  0.5280750000000 1.0
C      1  0.4772100000000  0.3875060000000  0.4854460000000 1.0
C      1  0.5258570000000  0.3867740000000  0.4872620000000 1.0
C      1  0.5916560000000  0.4787800000000  0.4429520000000 1.0
C      1  0.5071110000000  0.4789620000000  0.6045270000000 1.0
C      1  0.4154930000000  0.4852510000000  0.4415510000000 1.0
C      1  0.5523500000000  0.4736130000000  0.5047290000000 1.0
C      1  0.4676400000000  0.5116660000000  0.5290280000000 1.0
C      1  0.4866050000000  0.4951600000000  0.4638210000000 1.0
C      1  0.5260760000000  0.5276520000000  0.4747450000000 1.0
C      1  0.5126150000000  0.5310720000000  0.5277420000000 1.0
C      1  0.4800280000000  0.5358190000000  0.4897320000000 1.0
C      1  0.4346060000000  0.4680140000000  0.4249690000000 1.0
C      1  0.6028510000000  0.4676020000000  0.4686300000000 1.0
C      1  0.4802630000000  0.4698810000000  0.5991120000000 1.0
C      1  0.5713910000000  0.4526270000000  0.5059120000000 1.0
C      1  0.4550900000000  0.4385800000000  0.5783030000000 1.0
C      1  0.4889010000000  0.4573060000000  0.4347050000000 1.0
C      1  0.4625000000000  0.5039800000000  0.4220410000000 1.0
C      1  0.5841290000000  0.5068820000000  0.4889170000000 1.0
C      1  0.4672050000000  0.5107350000000  0.5761460000000 1.0
C      1  0.4850460000000  0.4624530000000  0.4059470000000 1.0
C      1  0.5938200000000  0.4660660000000  0.5190210000000 1.0
C      1  0.4416480000000  0.4647610000000  0.5702900000000 1.0
C      1  0.5305590000000  0.5518270000000  0.5705190000000 1.0
C      1  0.4351000000000  0.5599770000000  0.4966130000000 1.0
C      1  0.5570240000000  0.5418150000000  0.4379750000000 1.0
C      1  0.5845030000000  0.5338130000000  0.4765560000000 1.0
C      1  0.4751920000000  0.5371280000000  0.5877440000000 1.0
C      1  0.4376670000000  0.5652680000000  0.4437900000000 1.0
C      1  0.5324770000000  0.5793940000000  0.5304250000000 1.0
C      1  0.4562460000000  0.5990270000000  0.5438430000000 1.0
C      1  0.5173060000000  0.5707120000000  0.4407540000000 1.0
C      1  0.4616290000000  0.5042780000000  0.4505760000000 1.0
C      1  0.5580410000000  0.4934130000000  0.4854780000000 1.0
C      1  0.4816690000000  0.5054090000000  0.5524010000000 1.0
C      1  0.4799550000000  0.4749560000000  0.4842420000000 1.0
END
