TITL C-3623282-6910-1834 0.0388352202759035 125000 -648.664316388127 0 0 107 (C2) n - 1
REM
REM in /home/nfs/bkarasulu/CARBON/AIRSS/Generating-Clusters/LCBOP/Higher-Symm/SD-CG/FIRE-CG
REM
REM
REM
REM
REM
REM ./C.cell (b20cbc046b6831c77cfcea5457e17084)
REM AIRSS Version 0.9.1 bugfix July 2018 build 013d7b7c2542+ Fri, 06 Jul 2018 19:26:36 +0100
REM compiler GCC version 9.2.1 20190827 (Red Hat 9.2.1-1)
REM options -cpp -mtune=generic -march=x86-64 -g -O0 -fpre-include=/usr/include/finclude/math-vector-fortran.h
REM seed -1956510874 -1373188790 -1854362929 1789224281 -476402392 270134469 803002008 -1287141284 1655295849 641977189 -793623855 -43671199 1726031952 179255669 348869907 -233872292 313656368 -2088928216 -307158128 -317651194 -1874678493 764701839 -313448205 1665891318 -631604093 182857025 -1981446226 670976713 869232079 1249120776 1827972922 -2110858038 1978785501
REM
CELL 1.54180   50.00000   50.00000   50.00000   90.00000   90.00000   90.00000
LATT -1
SFAC C  
C      1  0.5302620000000  0.4869490000000  0.4165820000000 1.0
C      1  0.4695020000000  0.4869600000000  0.5832100000000 1.0
C      1  0.5295690000000  0.5144160000000  0.4173320000000 1.0
C      1  0.4702010000000  0.5144270000000  0.5824580000000 1.0
C      1  0.5498830000000  0.4288660000000  0.5279360000000 1.0
C      1  0.4498680000000  0.4288750000000  0.4718590000000 1.0
C      1  0.5493450000000  0.5712980000000  0.5284110000000 1.0
C      1  0.4504380000000  0.5713080000000  0.4713760000000 1.0
C      1  0.5229960000000  0.4469510000000  0.4726830000000 1.0
C      1  0.4767600000000  0.4469580000000  0.5271110000000 1.0
C      1  0.5235120000000  0.5538970000000  0.4723140000000 1.0
C      1  0.4762670000000  0.5539040000000  0.5274740000000 1.0
C      1  0.4942280000000  0.5551360000000  0.4722630000000 1.0
C      1  0.5055520000000  0.5551370000000  0.5275250000000 1.0
C      1  0.4936860000000  0.4450990000000  0.4716630000000 1.0
C      1  0.5060700000000  0.4450990000000  0.5281310000000 1.0
C      1  0.5580030000000  0.5260620000000  0.5899870000000 1.0
C      1  0.4417700000000  0.5260690000000  0.4098030000000 1.0
C      1  0.5589790000000  0.4723930000000  0.5901540000000 1.0
C      1  0.4407830000000  0.4724000000000  0.4096390000000 1.0
C      1  0.4415100000000  0.4484300000000  0.4223930000000 1.0
C      1  0.5582460000000  0.4484210000000  0.5774010000000 1.0
C      1  0.4430620000000  0.5501380000000  0.4223030000000 1.0
C      1  0.5567170000000  0.5501300000000  0.5774850000000 1.0
C      1  0.4658950000000  0.5969660000000  0.5290040000000 1.0
C      1  0.5338940000000  0.5969560000000  0.4707820000000 1.0
C      1  0.4655350000000  0.4040780000000  0.5292230000000 1.0
C      1  0.5342120000000  0.4040680000000  0.4705730000000 1.0
C      1  0.4389810000000  0.5720390000000  0.5901490000000 1.0
C      1  0.5608020000000  0.5720210000000  0.4096380000000 1.0
C      1  0.4386300000000  0.4291730000000  0.5896730000000 1.0
C      1  0.5611220000000  0.4291540000000  0.4101220000000 1.0
C      1  0.4265350000000  0.4393470000000  0.6114410000000 1.0
C      1  0.5732180000000  0.4393240000000  0.3883540000000 1.0
C      1  0.4268860000000  0.5616420000000  0.6118060000000 1.0
C      1  0.5728950000000  0.5616190000000  0.3879810000000 1.0
C      1  0.5548900000000  0.5669910000000  0.5562260000000 1.0
C      1  0.4448920000000  0.5670000000000  0.4435610000000 1.0
C      1  0.5562150000000  0.4321210000000  0.5557100000000 1.0
C      1  0.4435380000000  0.4321300000000  0.4440850000000 1.0
C      1  0.4510990000000  0.4414870000000  0.5675650000000 1.0
C      1  0.5486560000000  0.4414720000000  0.4322300000000 1.0
C      1  0.4514140000000  0.5600440000000  0.5678820000000 1.0
C      1  0.5483670000000  0.5600290000000  0.4319050000000 1.0
C      1  0.4999870000000  0.5090640000000  0.5269370000000 1.0
C      1  0.4997820000000  0.5090620000000  0.4728540000000 1.0
C      1  0.4981780000000  0.4880790000000  0.5448720000000 1.0
C      1  0.5015860000000  0.4880760000000  0.4549200000000 1.0
C      1  0.5431000000000  0.4597760000000  0.4890640000000 1.0
C      1  0.4566580000000  0.4597860000000  0.5107290000000 1.0
C      1  0.5440300000000  0.5413660000000  0.4885260000000 1.0
C      1  0.4557470000000  0.5413770000000  0.5112630000000 1.0
C      1  0.5488690000000  0.5138120000000  0.4852240000000 1.0
C      1  0.4509020000000  0.5138230000000  0.5145660000000 1.0
C      1  0.5477770000000  0.4873050000000  0.4857720000000 1.0
C      1  0.4519870000000  0.4873160000000  0.5140190000000 1.0
C      1  0.5834970000000  0.5137600000000  0.3691600000000 1.0
C      1  0.4162730000000  0.5137860000000  0.6306300000000 1.0
C      1  0.5836000000000  0.4870840000000  0.3692080000000 1.0
C      1  0.4161640000000  0.4871100000000  0.6305840000000 1.0
C      1  0.5812860000000  0.5383680000000  0.5192660000000 1.0
C      1  0.4184900000000  0.5383850000000  0.4805230000000 1.0
C      1  0.5813300000000  0.4622970000000  0.5188710000000 1.0
C      1  0.4184290000000  0.4623140000000  0.4809230000000 1.0
C      1  0.4636940000000  0.4282470000000  0.5452100000000 1.0
C      1  0.5360570000000  0.4282360000000  0.4545860000000 1.0
C      1  0.4639030000000  0.5730770000000  0.5454140000000 1.0
C      1  0.5358810000000  0.5730670000000  0.4543730000000 1.0
C      1  0.5243930000000  0.4044800000000  0.4966200000000 1.0
C      1  0.4753530000000  0.4044860000000  0.5031770000000 1.0
C      1  0.5243230000000  0.5961130000000  0.4969160000000 1.0
C      1  0.4754650000000  0.5961180000000  0.5028690000000 1.0
C      1  0.4564230000000  0.5144120000000  0.4586850000000 1.0
C      1  0.5433470000000  0.5144040000000  0.5411050000000 1.0
C      1  0.4559980000000  0.4848230000000  0.4577160000000 1.0
C      1  0.5437660000000  0.4848160000000  0.5420760000000 1.0
C      1  0.4764770000000  0.4224740000000  0.4802570000000 1.0
C      1  0.5232730000000  0.4224700000000  0.5195390000000 1.0
C      1  0.4768710000000  0.5779400000000  0.4800820000000 1.0
C      1  0.5229130000000  0.5779360000000  0.5197050000000 1.0
C      1  0.4381810000000  0.4458580000000  0.4924510000000 1.0
C      1  0.5615750000000  0.4458450000000  0.5073430000000 1.0
C      1  0.4380030000000  0.5550830000000  0.4921260000000 1.0
C      1  0.5617760000000  0.5550700000000  0.5076620000000 1.0
C      1  0.4505770000000  0.5308860000000  0.5694740000000 1.0
C      1  0.5491970000000  0.5308710000000  0.4303160000000 1.0
C      1  0.4501210000000  0.4706180000000  0.5696150000000 1.0
C      1  0.5496400000000  0.4706030000000  0.4301780000000 1.0
C      1  0.4191240000000  0.4611830000000  0.6249830000000 1.0
C      1  0.5806340000000  0.4611580000000  0.3748100000000 1.0
C      1  0.4193970000000  0.5397230000000  0.6251680000000 1.0
C      1  0.5803790000000  0.5396980000000  0.3746210000000 1.0
C      1  0.5714930000000  0.4870910000000  0.4390090000000 1.0
C      1  0.4282710000000  0.4871100000000  0.5607830000000 1.0
C      1  0.5713170000000  0.5145740000000  0.4388840000000 1.0
C      1  0.4284540000000  0.5145930000000  0.5609060000000 1.0
C      1  0.4290440000000  0.5229340000000  0.4610870000000 1.0
C      1  0.5707280000000  0.5229210000000  0.5387030000000 1.0
C      1  0.4284980000000  0.4768620000000  0.4605330000000 1.0
C      1  0.5712650000000  0.4768490000000  0.5392590000000 1.0
C      1  0.5184550000000  0.5294560000000  0.5346010000000 1.0
C      1  0.4813190000000  0.5294590000000  0.4651890000000 1.0
C      1  0.5186740000000  0.4686610000000  0.5409770000000 1.0
C      1  0.4810870000000  0.4686630000000  0.4588160000000 1.0
C      1  0.4409110000000  0.4992560000000  0.4059140000000 1.0
C      1  0.5588560000000  0.4992480000000  0.5938770000000 1.0
C      1  0.4998840000000  0.5036660000000  0.4998950000000 1.0
END
