TITL C-3623287-7182-992 0.138610914378327 125000 -126.706850438574 0 0 23 (C1) n - 1
REM
REM in /home/nfs/bkarasulu/CARBON/AIRSS/Generating-Clusters/LCBOP/Higher-Symm/SD-CG/FIRE-CG
REM
REM
REM
REM
REM
REM ./C.cell (b20cbc046b6831c77cfcea5457e17084)
REM AIRSS Version 0.9.1 bugfix July 2018 build 013d7b7c2542+ Fri, 06 Jul 2018 19:26:36 +0100
REM compiler GCC version 9.2.1 20190827 (Red Hat 9.2.1-1)
REM options -cpp -mtune=generic -march=x86-64 -g -O0 -fpre-include=/usr/include/finclude/math-vector-fortran.h
REM seed -2070285709 -248784502 -750232466 564968398 1995166529 -1359282741 -1330035356 -1046767557 -301210497 -1093140574 1983089443 87742012 -385019330 -633887548 -128529956 -1250627124 -1845605164 -1210239633 1708465930 1243047489 441457071 105203240 1914368065 733415710 -2029704015 -1856253884 -428903111 -290457566 1358515279 1876646728 762824381 239821601 1413145709
REM
CELL 1.54180   50.00000   50.00000   50.00000   90.00000   90.00000   90.00000
LATT -1
SFAC C  
C      1  0.4936120000000  0.5076590000000  0.5146910000000 1.0
C      1  0.4758030000000  0.5063910000000  0.4668380000000 1.0
C      1  0.5047070000000  0.4794670000000  0.5182700000000 1.0
C      1  0.5741820000000  0.5803750000000  0.4516480000000 1.0
C      1  0.5103550000000  0.5271660000000  0.5314180000000 1.0
C      1  0.4321040000000  0.4522460000000  0.5140880000000 1.0
C      1  0.5155480000000  0.5331630000000  0.4771780000000 1.0
C      1  0.4706370000000  0.4788310000000  0.4675970000000 1.0
C      1  0.4423920000000  0.4971870000000  0.5316650000000 1.0
C      1  0.5546080000000  0.5646150000000  0.4600790000000 1.0
C      1  0.5167640000000  0.4378440000000  0.4960040000000 1.0
C      1  0.4948580000000  0.5162790000000  0.4856490000000 1.0
C      1  0.4513900000000  0.4451360000000  0.4968000000000 1.0
C      1  0.5934340000000  0.5958750000000  0.4433570000000 1.0
C      1  0.5351130000000  0.4687110000000  0.5623050000000 1.0
C      1  0.4739230000000  0.4582450000000  0.4863630000000 1.0
C      1  0.5350490000000  0.5488650000000  0.4685390000000 1.0
C      1  0.4655090000000  0.5087390000000  0.5251220000000 1.0
C      1  0.4283220000000  0.4746310000000  0.5284370000000 1.0
C      1  0.4629300000000  0.5229710000000  0.4493870000000 1.0
C      1  0.5205270000000  0.4743410000000  0.5409170000000 1.0
C      1  0.4987520000000  0.4580050000000  0.5002880000000 1.0
C      1  0.5494800000000  0.4632590000000  0.5833640000000 1.0
END
