TITL C-3623286-7563-650 -1.52855260363559e-06 125000 -870.565511026004 0 0 135 (D5) n - 1
REM
REM in /home/nfs/bkarasulu/CARBON/AIRSS/Generating-Clusters/LCBOP/Higher-Symm/SD-CG/FIRE-CG
REM
REM
REM
REM
REM
REM ./C.cell (b20cbc046b6831c77cfcea5457e17084)
REM AIRSS Version 0.9.1 bugfix July 2018 build 013d7b7c2542+ Fri, 06 Jul 2018 19:26:36 +0100
REM compiler GCC version 9.2.1 20190827 (Red Hat 9.2.1-1)
REM options -cpp -mtune=generic -march=x86-64 -g -O0 -fpre-include=/usr/include/finclude/math-vector-fortran.h
REM seed 763732416 -1633051465 -642196285 -768509503 899410531 -388227586 846359274 -1647675752 -1364229183 1032370437 559095339 -916104868 870242505 -795935994 538059932 -77837103 1567380987 1150140266 -2062174754 1459677665 -244828798 1005585964 -1820056567 54022255 1779675380 -471035632 564138867 -1845598298 -1956156538 -456223098 -449540535 1027976897 -526406707
REM
CELL 1.54180   50.00000   50.00000   50.00000   90.00000   90.00000   90.00000
LATT -1
SFAC C  
C      1  0.5063500000000  0.5000290000000  0.4578160000000 1.0
C      1  0.5063520000000  0.4598900000000  0.4869370000000 1.0
C      1  0.5063550000000  0.4751820000000  0.5341090000000 1.0
C      1  0.5063560000000  0.5247710000000  0.5341440000000 1.0
C      1  0.5063530000000  0.5401280000000  0.4869920000000 1.0
C      1  0.4942860000000  0.5000360000000  0.5421840000000 1.0
C      1  0.4942840000000  0.4598920000000  0.5130690000000 1.0
C      1  0.4942810000000  0.4751770000000  0.4658940000000 1.0
C      1  0.4942820000000  0.5247660000000  0.4658530000000 1.0
C      1  0.4942850000000  0.5401300000000  0.5130020000000 1.0
C      1  0.4512970000000  0.4766300000000  0.5070650000000 1.0
C      1  0.4512980000000  0.4994950000000  0.5244120000000 1.0
C      1  0.4512980000000  0.5230590000000  0.5080270000000 1.0
C      1  0.4512960000000  0.5147580000000  0.4805530000000 1.0
C      1  0.4512950000000  0.4860630000000  0.4799580000000 1.0
C      1  0.5493390000000  0.4766270000000  0.4929390000000 1.0
C      1  0.5493380000000  0.4994900000000  0.4755880000000 1.0
C      1  0.5493400000000  0.5230560000000  0.4919690000000 1.0
C      1  0.5493410000000  0.5147590000000  0.5194450000000 1.0
C      1  0.5493410000000  0.4860640000000  0.5200440000000 1.0
C      1  0.5814360000000  0.6136890000000  0.4909280000000 1.0
C      1  0.5814280000000  0.5265080000000  0.3890680000000 1.0
C      1  0.5814290000000  0.4026920000000  0.4405040000000 1.0
C      1  0.5814380000000  0.4133510000000  0.5741550000000 1.0
C      1  0.5814420000000  0.5437530000000  0.6053190000000 1.0
C      1  0.4192050000000  0.6136930000000  0.5090550000000 1.0
C      1  0.4192100000000  0.5265270000000  0.6109280000000 1.0
C      1  0.4192040000000  0.4027040000000  0.5595100000000 1.0
C      1  0.4191960000000  0.4133420000000  0.4258580000000 1.0
C      1  0.4191960000000  0.5437400000000  0.3946750000000 1.0
C      1  0.4095280000000  0.5452740000000  0.5259530000000 1.0
C      1  0.4095240000000  0.5386680000000  0.4649670000000 1.0
C      1  0.4095230000000  0.4786260000000  0.4524040000000 1.0
C      1  0.4095260000000  0.4481240000000  0.5056250000000 1.0
C      1  0.4095290000000  0.4893150000000  0.5510810000000 1.0
C      1  0.5911100000000  0.5452670000000  0.4740410000000 1.0
C      1  0.5911140000000  0.5386710000000  0.5350270000000 1.0
C      1  0.5911130000000  0.4786300000000  0.5475990000000 1.0
C      1  0.5911100000000  0.4481200000000  0.4943830000000 1.0
C      1  0.5911070000000  0.4893040000000  0.4489210000000 1.0
C      1  0.5736520000000  0.4909080000000  0.4263910000000 1.0
C      1  0.5736550000000  0.4271880000000  0.4858960000000 1.0
C      1  0.5736610000000  0.4640900000000  0.5648860000000 1.0
C      1  0.5736610000000  0.5506170000000  0.5541990000000 1.0
C      1  0.5736560000000  0.5671920000000  0.4686050000000 1.0
C      1  0.4269840000000  0.4909220000000  0.5736100000000 1.0
C      1  0.4269790000000  0.4271920000000  0.5141150000000 1.0
C      1  0.4269750000000  0.4640820000000  0.4351190000000 1.0
C      1  0.4269770000000  0.5506110000000  0.4457930000000 1.0
C      1  0.4269830000000  0.5671990000000  0.5313850000000 1.0
C      1  0.5565600000000  0.6177180000000  0.5353400000000 1.0
C      1  0.5565500000000  0.5699900000000  0.3989610000000 1.0
C      1  0.5565480000000  0.4255370000000  0.4022090000000 1.0
C      1  0.5565560000000  0.3839880000000  0.5405960000000 1.0
C      1  0.5565630000000  0.5027620000000  0.6228750000000 1.0
C      1  0.4440810000000  0.6177140000000  0.4646420000000 1.0
C      1  0.4440890000000  0.5700070000000  0.6010280000000 1.0
C      1  0.4440860000000  0.4255540000000  0.5978020000000 1.0
C      1  0.4440770000000  0.3839840000000  0.4594210000000 1.0
C      1  0.4440730000000  0.5027460000000  0.3771240000000 1.0
C      1  0.4290140000000  0.4089420000000  0.5834710000000 1.0
C      1  0.4290180000000  0.5512440000000  0.6124000000000 1.0
C      1  0.4290110000000  0.6227300000000  0.4860020000000 1.0
C      1  0.4290030000000  0.5246090000000  0.3789550000000 1.0
C      1  0.4290050000000  0.3924810000000  0.4391940000000 1.0
C      1  0.5716200000000  0.4089270000000  0.4165420000000 1.0
C      1  0.5716200000000  0.5512250000000  0.3875920000000 1.0
C      1  0.5716290000000  0.6227300000000  0.5139800000000 1.0
C      1  0.5716340000000  0.5246250000000  0.6210410000000 1.0
C      1  0.5716290000000  0.3924870000000  0.5608220000000 1.0
C      1  0.4010600000000  0.4749780000000  0.5025990000000 1.0
C      1  0.4010610000000  0.4947350000000  0.5246070000000 1.0
C      1  0.4010610000000  0.5217710000000  0.5126170000000 1.0
C      1  0.4010590000000  0.5187220000000  0.4832000000000 1.0
C      1  0.4010580000000  0.4898030000000  0.4770080000000 1.0
C      1  0.5995760000000  0.4749740000000  0.4974040000000 1.0
C      1  0.5995750000000  0.4947280000000  0.4753940000000 1.0
C      1  0.5995760000000  0.5217660000000  0.4873800000000 1.0
C      1  0.5995780000000  0.5187220000000  0.5167980000000 1.0
C      1  0.5995780000000  0.4898030000000  0.5229930000000 1.0
C      1  0.5824590000000  0.4399030000000  0.5760180000000 1.0
C      1  0.5824610000000  0.5537310000000  0.5806420000000 1.0
C      1  0.5824550000000  0.5933020000000  0.4738140000000 1.0
C      1  0.5824490000000  0.5039320000000  0.4031670000000 1.0
C      1  0.5824520000000  0.4091260000000  0.4663330000000 1.0
C      1  0.4181750000000  0.4398940000000  0.4239910000000 1.0
C      1  0.4181770000000  0.5537210000000  0.4193500000000 1.0
C      1  0.4181840000000  0.5933090000000  0.5261720000000 1.0
C      1  0.4181870000000  0.5039490000000  0.5968320000000 1.0
C      1  0.4181820000000  0.4091330000000  0.5336810000000 1.0
C      1  0.4667550000000  0.5448320000000  0.5165560000000 1.0
C      1  0.4667520000000  0.5295980000000  0.4624800000000 1.0
C      1  0.4667500000000  0.4734610000000  0.4602580000000 1.0
C      1  0.4667540000000  0.4540010000000  0.5129610000000 1.0
C      1  0.4667560000000  0.4981110000000  0.5477550000000 1.0
C      1  0.5338830000000  0.5448290000000  0.4834370000000 1.0
C      1  0.5338860000000  0.5296020000000  0.5375160000000 1.0
C      1  0.5338850000000  0.4734660000000  0.5397460000000 1.0
C      1  0.5338820000000  0.4539980000000  0.4870460000000 1.0
C      1  0.5338800000000  0.4981030000000  0.4522450000000 1.0
C      1  0.4719490000000  0.4692800000000  0.5869900000000 1.0
C      1  0.4719490000000  0.5732380000000  0.5561000000000 1.0
C      1  0.4719420000000  0.5759840000000  0.4476840000000 1.0
C      1  0.4719380000000  0.4737240000000  0.4115700000000 1.0
C      1  0.4719430000000  0.4077760000000  0.4976660000000 1.0
C      1  0.5286870000000  0.4692660000000  0.4130140000000 1.0
C      1  0.5286900000000  0.5732290000000  0.4438890000000 1.0
C      1  0.5286970000000  0.5759910000000  0.5523050000000 1.0
C      1  0.5286980000000  0.4737360000000  0.5884340000000 1.0
C      1  0.5286910000000  0.4077760000000  0.5023480000000 1.0
C      1  0.4595270000000  0.5778570000000  0.5808470000000 1.0
C      1  0.4595190000000  0.6009470000000  0.4509400000000 1.0
C      1  0.4595130000000  0.4845330000000  0.3888350000000 1.0
C      1  0.4595170000000  0.3894950000000  0.4803600000000 1.0
C      1  0.4595260000000  0.4471710000000  0.5990300000000 1.0
C      1  0.5411120000000  0.5778430000000  0.4191410000000 1.0
C      1  0.5411210000000  0.6009530000000  0.5490450000000 1.0
C      1  0.5411230000000  0.4845490000000  0.6111670000000 1.0
C      1  0.5411160000000  0.3894960000000  0.5196560000000 1.0
C      1  0.5411090000000  0.4471550000000  0.4009780000000 1.0
C      1  0.5452080000000  0.4864650000000  0.4291890000000 1.0
C      1  0.5452110000000  0.4284740000000  0.4909880000000 1.0
C      1  0.5452160000000  0.4693280000000  0.5652380000000 1.0
C      1  0.5452160000000  0.5525690000000  0.5493270000000 1.0
C      1  0.5452110000000  0.5631600000000  0.4652440000000 1.0
C      1  0.4554290000000  0.4864770000000  0.5708130000000 1.0
C      1  0.4554240000000  0.4284770000000  0.5090230000000 1.0
C      1  0.4554200000000  0.4693200000000  0.4347670000000 1.0
C      1  0.4554220000000  0.5525630000000  0.4506650000000 1.0
C      1  0.4554270000000  0.5631670000000  0.5347460000000 1.0
C      1  0.5003160000000  0.5751120000000  0.4454190000000 1.0
C      1  0.5003230000000  0.5751200000000  0.5545700000000 1.0
C      1  0.5003120000000  0.4713020000000  0.4116980000000 1.0
C      1  0.5003240000000  0.4713150000000  0.5883070000000 1.0
C      1  0.5003170000000  0.4071510000000  0.5000070000000 1.0
END
