TITL C-3623286-7563-1769 8.89254457551001e-07 125000 -330.038124921986 0 0 56 (C3) n - 1
REM
REM in /home/nfs/bkarasulu/CARBON/AIRSS/Generating-Clusters/LCBOP/Higher-Symm/SD-CG/FIRE-CG
REM
REM
REM
REM
REM
REM ./C.cell (b20cbc046b6831c77cfcea5457e17084)
REM AIRSS Version 0.9.1 bugfix July 2018 build 013d7b7c2542+ Fri, 06 Jul 2018 19:26:36 +0100
REM compiler GCC version 9.2.1 20190827 (Red Hat 9.2.1-1)
REM options -cpp -mtune=generic -march=x86-64 -g -O0 -fpre-include=/usr/include/finclude/math-vector-fortran.h
REM seed 1273503483 -177136684 -1951893709 523736313 -769216887 -1998712160 1373701072 -772814424 -579945599 1259146345 -1918754516 -474269650 789721431 -1585225036 970707314 1655954736 -1869888283 -1705454833 1733105819 708622343 -2034682211 -1396627774 118317409 -869309472 1282829247 53258264 464590058 -495471977 -535251192 1252309595 -1838605715 -221932602 -579722944
REM
CELL 1.54180   50.00000   50.00000   50.00000   90.00000   90.00000   90.00000
LATT -1
SFAC C  
C      1  0.4987400000000  0.5186270000000  0.5247090000000 1.0
C      1  0.4987700000000  0.5129610000000  0.4722330000000 1.0
C      1  0.4987430000000  0.4703490000000  0.5033780000000 1.0
C      1  0.5583740000000  0.4106350000000  0.4181830000000 1.0
C      1  0.5582670000000  0.4746540000000  0.6190630000000 1.0
C      1  0.5583880000000  0.6166120000000  0.4631810000000 1.0
C      1  0.5570340000000  0.4786910000000  0.5466230000000 1.0
C      1  0.5570790000000  0.5518600000000  0.4959040000000 1.0
C      1  0.5570850000000  0.4713510000000  0.4578970000000 1.0
C      1  0.5037230000000  0.4944830000000  0.4303900000000 1.0
C      1  0.5036470000000  0.4433460000000  0.5403050000000 1.0
C      1  0.5036780000000  0.5641040000000  0.5296330000000 1.0
C      1  0.4964380000000  0.4828230000000  0.4777620000000 1.0
C      1  0.4964100000000  0.4902080000000  0.5267120000000 1.0
C      1  0.4964360000000  0.5289080000000  0.4958420000000 1.0
C      1  0.4290710000000  0.5016350000000  0.5397320000000 1.0
C      1  0.4291140000000  0.5345240000000  0.4793870000000 1.0
C      1  0.4290990000000  0.4658190000000  0.4810770000000 1.0
C      1  0.5428810000000  0.4662020000000  0.5680510000000 1.0
C      1  0.5429460000000  0.5766730000000  0.4959950000000 1.0
C      1  0.5429580000000  0.4590350000000  0.4363520000000 1.0
C      1  0.4739290000000  0.5570870000000  0.5230140000000 1.0
C      1  0.4739650000000  0.4922830000000  0.4397560000000 1.0
C      1  0.4738990000000  0.4525810000000  0.5375060000000 1.0
C      1  0.5509710000000  0.4340650000000  0.4268670000000 1.0
C      1  0.5508780000000  0.4704660000000  0.5944240000000 1.0
C      1  0.5509720000000  0.5973740000000  0.4791220000000 1.0
C      1  0.4134050000000  0.5187520000000  0.5219200000000 1.0
C      1  0.4134330000000  0.5105530000000  0.4734580000000 1.0
C      1  0.4134060000000  0.4726830000000  0.5047900000000 1.0
C      1  0.4217660000000  0.4859770000000  0.4610910000000 1.0
C      1  0.4217210000000  0.4742540000000  0.5322620000000 1.0
C      1  0.4217500000000  0.5417510000000  0.5068290000000 1.0
C      1  0.5204830000000  0.5801920000000  0.5132760000000 1.0
C      1  0.5205140000000  0.4722600000000  0.4246480000000 1.0
C      1  0.5204270000000  0.4494720000000  0.5624340000000 1.0
C      1  0.5574110000000  0.4779280000000  0.5181910000000 1.0
C      1  0.5574260000000  0.5276180000000  0.5107810000000 1.0
C      1  0.5574430000000  0.4963550000000  0.4714530000000 1.0
C      1  0.4739170000000  0.4818360000000  0.5443510000000 1.0
C      1  0.4739600000000  0.5483870000000  0.4942560000000 1.0
C      1  0.4739640000000  0.4717290000000  0.4616690000000 1.0
C      1  0.5173130000000  0.5386560000000  0.5373840000000 1.0
C      1  0.5173610000000  0.5139080000000  0.4485630000000 1.0
C      1  0.5173090000000  0.4493610000000  0.5144060000000 1.0
C      1  0.5444390000000  0.5162680000000  0.4556770000000 1.0
C      1  0.5443950000000  0.4543200000000  0.5088250000000 1.0
C      1  0.5443950000000  0.5313210000000  0.5359000000000 1.0
C      1  0.4713300000000  0.5174330000000  0.4566780000000 1.0
C      1  0.4712870000000  0.4546640000000  0.5072630000000 1.0
C      1  0.4712850000000  0.5298560000000  0.5363300000000 1.0
C      1  0.4566430000000  0.4590130000000  0.4819790000000 1.0
C      1  0.4566150000000  0.5057970000000  0.5451950000000 1.0
C      1  0.4566640000000  0.5371520000000  0.4730710000000 1.0
C      1  0.4033920000000  0.5006650000000  0.5000500000000 1.0
C      1  0.5600850000000  0.5006330000000  0.5001430000000 1.0
END
