TITL C-3623286-7563-505 77.122148856137 125000 -1084.12144859807 0 0 179 (C1) n - 1
REM
REM in /home/nfs/bkarasulu/CARBON/AIRSS/Generating-Clusters/LCBOP/Higher-Symm/SD-CG/FIRE-CG
REM
REM
REM
REM
REM
REM ./C.cell (b20cbc046b6831c77cfcea5457e17084)
REM AIRSS Version 0.9.1 bugfix July 2018 build 013d7b7c2542+ Fri, 06 Jul 2018 19:26:36 +0100
REM compiler GCC version 9.2.1 20190827 (Red Hat 9.2.1-1)
REM options -cpp -mtune=generic -march=x86-64 -g -O0 -fpre-include=/usr/include/finclude/math-vector-fortran.h
REM seed 1483566799 951248785 891839784 -572868055 -687871994 -1998409938 853882098 438233636 1085710527 205707450 -871211342 -1744085982 -535181009 -569842006 1716166927 -20376710 1675709532 -1439046667 2129927026 -2137617575 962762217 -2069324050 67236570 -387089905 -801139417 -525791736 -9488400 -116551776 -425349945 -2059070033 1325819095 1539141741 -160600891
REM
CELL 1.54180   50.00000   50.00000   50.00000   90.00000   90.00000   90.00000
LATT -1
SFAC C  
C      1  0.6078710000000  0.5057570000000  0.4668930000000 1.0
C      1  0.5300960000000  0.6048890000000  0.4634990000000 1.0
C      1  0.4055220000000  0.5579220000000  0.4604340000000 1.0
C      1  0.4204570000000  0.4352750000000  0.4702950000000 1.0
C      1  0.5423300000000  0.4024090000000  0.4675070000000 1.0
C      1  0.4916200000000  0.5208930000000  0.3822450000000 1.0
C      1  0.4760330000000  0.4963410000000  0.3828450000000 1.0
C      1  0.4946120000000  0.4738920000000  0.3831020000000 1.0
C      1  0.5217970000000  0.4849960000000  0.3821260000000 1.0
C      1  0.5199290000000  0.5141310000000  0.3821360000000 1.0
C      1  0.5436470000000  0.4720000000000  0.3948320000000 1.0
C      1  0.5391890000000  0.5307120000000  0.3951670000000 1.0
C      1  0.4819990000000  0.5446840000000  0.3942550000000 1.0
C      1  0.4507150000000  0.4952900000000  0.3957410000000 1.0
C      1  0.4883280000000  0.4500190000000  0.3974720000000 1.0
C      1  0.6068170000000  0.5964900000000  0.5060310000000 1.0
C      1  0.4439410000000  0.6227660000000  0.4981330000000 1.0
C      1  0.3546340000000  0.4773480000000  0.5071080000000 1.0
C      1  0.4726540000000  0.3626540000000  0.5036000000000 1.0
C      1  0.6228760000000  0.4324550000000  0.5063350000000 1.0
C      1  0.6097080000000  0.5786440000000  0.4860740000000 1.0
C      1  0.4656500000000  0.6240570000000  0.4824870000000 1.0
C      1  0.3547690000000  0.4918340000000  0.4845480000000 1.0
C      1  0.4520880000000  0.3512390000000  0.4914110000000 1.0
C      1  0.6067300000000  0.4305060000000  0.4847880000000 1.0
C      1  0.5816030000000  0.5980260000000  0.5185470000000 1.0
C      1  0.4349710000000  0.6001020000000  0.5120630000000 1.0
C      1  0.3756190000000  0.4643130000000  0.5203640000000 1.0
C      1  0.4921990000000  0.3779830000000  0.5162790000000 1.0
C      1  0.6191570000000  0.4558270000000  0.5216980000000 1.0
C      1  0.6370000000000  0.5858070000000  0.6149800000000 1.0
C      1  0.4566720000000  0.6526070000000  0.6071760000000 1.0
C      1  0.3366800000000  0.5240710000000  0.6096980000000 1.0
C      1  0.4361100000000  0.3461560000000  0.6119640000000 1.0
C      1  0.6230650000000  0.3933840000000  0.6147280000000 1.0
C      1  0.4750770000000  0.6057700000000  0.5436170000000 1.0
C      1  0.3861890000000  0.5063310000000  0.5479290000000 1.0
C      1  0.4578780000000  0.3944560000000  0.5507150000000 1.0
C      1  0.5869000000000  0.4283260000000  0.5510800000000 1.0
C      1  0.5973670000000  0.5600310000000  0.5491850000000 1.0
C      1  0.4868570000000  0.3903530000000  0.5419810000000 1.0
C      1  0.6002120000000  0.4549760000000  0.5437330000000 1.0
C      1  0.5761120000000  0.5796550000000  0.5403830000000 1.0
C      1  0.4508770000000  0.5899870000000  0.5342610000000 1.0
C      1  0.3885340000000  0.4760290000000  0.5436000000000 1.0
C      1  0.3525470000000  0.5184240000000  0.5897990000000 1.0
C      1  0.4429410000000  0.3614800000000  0.5920110000000 1.0
C      1  0.6116080000000  0.4043730000000  0.5940500000000 1.0
C      1  0.6245190000000  0.5775450000000  0.5936350000000 1.0
C      1  0.4626320000000  0.6379530000000  0.5864550000000 1.0
C      1  0.5393060000000  0.5244730000000  0.5937720000000 1.0
C      1  0.4850230000000  0.5465220000000  0.5991470000000 1.0
C      1  0.4529230000000  0.4979320000000  0.5870930000000 1.0
C      1  0.4821820000000  0.4499250000000  0.6005670000000 1.0
C      1  0.5375400000000  0.4673310000000  0.5968600000000 1.0
C      1  0.5059900000000  0.5623370000000  0.5267710000000 1.0
C      1  0.4211020000000  0.4872050000000  0.5141720000000 1.0
C      1  0.4768990000000  0.4304080000000  0.5248510000000 1.0
C      1  0.5503940000000  0.4504600000000  0.5208540000000 1.0
C      1  0.5692170000000  0.5237100000000  0.5203120000000 1.0
C      1  0.5319030000000  0.4999060000000  0.5017640000000 1.0
C      1  0.5278870000000  0.5275930000000  0.5012910000000 1.0
C      1  0.4553520000000  0.5298820000000  0.5107910000000 1.0
C      1  0.4658260000000  0.4837310000000  0.5084070000000 1.0
C      1  0.5057550000000  0.4629110000000  0.5108570000000 1.0
C      1  0.5348310000000  0.4184900000000  0.4457120000000 1.0
C      1  0.5895660000000  0.5055630000000  0.4444450000000 1.0
C      1  0.5219000000000  0.5872410000000  0.4416390000000 1.0
C      1  0.4195310000000  0.5509460000000  0.4357250000000 1.0
C      1  0.4347320000000  0.4470150000000  0.4489470000000 1.0
C      1  0.5632390000000  0.4118540000000  0.5406740000000 1.0
C      1  0.6070390000000  0.5330850000000  0.5394710000000 1.0
C      1  0.5041970000000  0.6081220000000  0.5356170000000 1.0
C      1  0.3978480000000  0.5314830000000  0.5348490000000 1.0
C      1  0.4357370000000  0.4130360000000  0.5413430000000 1.0
C      1  0.4916760000000  0.5212150000000  0.6083060000000 1.0
C      1  0.4740950000000  0.4984000000000  0.6053620000000 1.0
C      1  0.4903660000000  0.4747730000000  0.6097700000000 1.0
C      1  0.5181860000000  0.4827460000000  0.6096370000000 1.0
C      1  0.5190960000000  0.5117040000000  0.6081730000000 1.0
C      1  0.4844210000000  0.6054670000000  0.4788390000000 1.0
C      1  0.3748650000000  0.4997260000000  0.4687910000000 1.0
C      1  0.4310150000000  0.3413510000000  0.4796750000000 1.0
C      1  0.5881960000000  0.4493090000000  0.4801720000000 1.0
C      1  0.5902390000000  0.5618510000000  0.4788410000000 1.0
C      1  0.4752550000000  0.4827540000000  0.4454040000000 1.0
C      1  0.5240490000000  0.4818560000000  0.4427020000000 1.0
C      1  0.5185680000000  0.5297310000000  0.4506080000000 1.0
C      1  0.4834350000000  0.5588350000000  0.4702440000000 1.0
C      1  0.4514640000000  0.5278550000000  0.4546220000000 1.0
C      1  0.5306050000000  0.5075100000000  0.4430760000000 1.0
C      1  0.4990710000000  0.5355680000000  0.4688830000000 1.0
C      1  0.4571320000000  0.5529750000000  0.4634920000000 1.0
C      1  0.4671920000000  0.5051180000000  0.4587340000000 1.0
C      1  0.4993670000000  0.4721570000000  0.4424850000000 1.0
C      1  0.4790820000000  0.4390770000000  0.5765470000000 1.0
C      1  0.5465000000000  0.4603760000000  0.5728140000000 1.0
C      1  0.5511200000000  0.5281230000000  0.5701840000000 1.0
C      1  0.4868010000000  0.5577790000000  0.5751510000000 1.0
C      1  0.4423790000000  0.4943340000000  0.5628650000000 1.0
C      1  0.5614310000000  0.4623330000000  0.4462710000000 1.0
C      1  0.5604790000000  0.5488460000000  0.4456310000000 1.0
C      1  0.4656360000000  0.5840520000000  0.4286700000000 1.0
C      1  0.4151070000000  0.4971520000000  0.4416200000000 1.0
C      1  0.4849760000000  0.4263670000000  0.4507510000000 1.0
C      1  0.4009610000000  0.5622610000000  0.4890320000000 1.0
C      1  0.4110880000000  0.4289260000000  0.4963190000000 1.0
C      1  0.5415170000000  0.3938640000000  0.4946090000000 1.0
C      1  0.6178140000000  0.5050750000000  0.4944880000000 1.0
C      1  0.5352360000000  0.6135490000000  0.4911990000000 1.0
C      1  0.5703960000000  0.5194980000000  0.4913360000000 1.0
C      1  0.5155550000000  0.5705800000000  0.5014010000000 1.0
C      1  0.4175280000000  0.5042710000000  0.4917910000000 1.0
C      1  0.4709160000000  0.4363030000000  0.4980570000000 1.0
C      1  0.5431350000000  0.4481870000000  0.4931230000000 1.0
C      1  0.5624110000000  0.5182130000000  0.4061550000000 1.0
C      1  0.5018240000000  0.5622810000000  0.4052650000000 1.0
C      1  0.4392250000000  0.5200090000000  0.4041120000000 1.0
C      1  0.4631010000000  0.4490140000000  0.4111600000000 1.0
C      1  0.5375480000000  0.4467540000000  0.4070950000000 1.0
C      1  0.4544730000000  0.5446590000000  0.4024350000000 1.0
C      1  0.4439090000000  0.4711500000000  0.4093690000000 1.0
C      1  0.5103170000000  0.4354010000000  0.4083340000000 1.0
C      1  0.5642200000000  0.4889610000000  0.4059870000000 1.0
C      1  0.5295860000000  0.5546790000000  0.4072760000000 1.0
C      1  0.5481920000000  0.4582620000000  0.5463460000000 1.0
C      1  0.5577900000000  0.5258020000000  0.5444940000000 1.0
C      1  0.4947400000000  0.5562000000000  0.5499200000000 1.0
C      1  0.4331010000000  0.4882220000000  0.5385390000000 1.0
C      1  0.4798070000000  0.4387210000000  0.5500500000000 1.0
C      1  0.5566290000000  0.4935130000000  0.4872100000000 1.0
C      1  0.5371280000000  0.5536900000000  0.4917720000000 1.0
C      1  0.4317180000000  0.5282330000000  0.4976750000000 1.0
C      1  0.4580030000000  0.4610990000000  0.4964740000000 1.0
C      1  0.5147100000000  0.4456080000000  0.4897560000000 1.0
C      1  0.3888370000000  0.4429540000000  0.5069870000000 1.0
C      1  0.5174860000000  0.3819630000000  0.5040320000000 1.0
C      1  0.6238640000000  0.4803200000000  0.5075270000000 1.0
C      1  0.5608700000000  0.6100960000000  0.5031820000000 1.0
C      1  0.4141480000000  0.5848420000000  0.5004780000000 1.0
C      1  0.5261780000000  0.5975700000000  0.5518770000000 1.0
C      1  0.4188030000000  0.5475570000000  0.5477600000000 1.0
C      1  0.4218760000000  0.4339440000000  0.5566800000000 1.0
C      1  0.5382130000000  0.4061980000000  0.5551970000000 1.0
C      1  0.6034480000000  0.5082070000000  0.5548670000000 1.0
C      1  0.4270010000000  0.4716830000000  0.4336020000000 1.0
C      1  0.5077720000000  0.4208350000000  0.4338510000000 1.0
C      1  0.5764510000000  0.4818380000000  0.4317650000000 1.0
C      1  0.5412660000000  0.5660050000000  0.4318270000000 1.0
C      1  0.4442600000000  0.5648660000000  0.4218110000000 1.0
C      1  0.5999320000000  0.4156010000000  0.5730910000000 1.0
C      1  0.6117650000000  0.5691530000000  0.5719880000000 1.0
C      1  0.4686730000000  0.6229620000000  0.5654690000000 1.0
C      1  0.3686510000000  0.5126750000000  0.5695680000000 1.0
C      1  0.4499300000000  0.3771120000000  0.5718010000000 1.0
C      1  0.5506130000000  0.5853040000000  0.5528010000000 1.0
C      1  0.4379120000000  0.5672280000000  0.5470370000000 1.0
C      1  0.4050610000000  0.4558270000000  0.5575100000000 1.0
C      1  0.5117320000000  0.3987510000000  0.5552210000000 1.0
C      1  0.5982910000000  0.4812650000000  0.5561600000000 1.0
C      1  0.4949050000000  0.5823720000000  0.4260790000000 1.0
C      1  0.4195010000000  0.5217690000000  0.4257900000000 1.0
C      1  0.4603320000000  0.4359160000000  0.4378770000000 1.0
C      1  0.5500030000000  0.4400290000000  0.4328430000000 1.0
C      1  0.5749060000000  0.5282430000000  0.4310400000000 1.0
C      1  0.5623890000000  0.4643590000000  0.4759500000000 1.0
C      1  0.5638300000000  0.5472960000000  0.4762150000000 1.0
C      1  0.4949140000000  0.5800290000000  0.4838510000000 1.0
C      1  0.4029540000000  0.4999210000000  0.4674890000000 1.0
C      1  0.4914840000000  0.4322090000000  0.4781680000000 1.0
C      1  0.3901010000000  0.5436060000000  0.5090580000000 1.0
C      1  0.4259250000000  0.4124300000000  0.5143230000000 1.0
C      1  0.5614760000000  0.4012100000000  0.5138810000000 1.0
C      1  0.6170650000000  0.5275360000000  0.5128130000000 1.0
C      1  0.5143670000000  0.6190460000000  0.5107650000000 1.0
C      1  0.5091000000000  0.4965130000000  0.5449220000000 1.0
C      1  0.5159850000000  0.4865690000000  0.5204990000000 1.0
C      1  0.4855140000000  0.5133430000000  0.4793410000000 1.0
C      1  0.4742750000000  0.5100140000000  0.5046150000000 1.0
END
