TITL C-3623285-6872-747 81.4107948397673 125000 -666.949482884316 0 0 110 (C1) n - 1
REM
REM in /home/nfs/bkarasulu/CARBON/AIRSS/Generating-Clusters/LCBOP/Higher-Symm/SD-CG/FIRE-CG
REM
REM
REM
REM
REM
REM ./C.cell (b20cbc046b6831c77cfcea5457e17084)
REM AIRSS Version 0.9.1 bugfix July 2018 build 013d7b7c2542+ Fri, 06 Jul 2018 19:26:36 +0100
REM compiler GCC version 9.2.1 20190827 (Red Hat 9.2.1-1)
REM options -cpp -mtune=generic -march=x86-64 -g -O0 -fpre-include=/usr/include/finclude/math-vector-fortran.h
REM seed -1144199019 -1790937061 -2046483645 1681315187 137990184 -583628462 1478928923 951922939 -1261385324 -739516013 1589750670 -688725429 -657821092 164278718 2104420741 1965999874 1403484365 -511047216 1306162727 -880300494 776926214 1289086715 -1163665115 1636101192 904741064 571116477 1453316509 1554714529 -1081470852 -494942259 -1564542243 2119511553 -1954292793
REM
CELL 1.54180   50.00000   50.00000   50.00000   90.00000   90.00000   90.00000
LATT -1
SFAC C  
C      1  0.4864030000000  0.4062760000000  0.5010830000000 1.0
C      1  0.4698760000000  0.5385190000000  0.4290170000000 1.0
C      1  0.4745620000000  0.5332920000000  0.5722410000000 1.0
C      1  0.5159210000000  0.4689650000000  0.4890420000000 1.0
C      1  0.4985050000000  0.5179020000000  0.4807870000000 1.0
C      1  0.5193400000000  0.5051240000000  0.5314850000000 1.0
C      1  0.5177030000000  0.5584950000000  0.4444550000000 1.0
C      1  0.5237680000000  0.5167940000000  0.5799710000000 1.0
C      1  0.5372290000000  0.4177670000000  0.4815610000000 1.0
C      1  0.5220500000000  0.5316650000000  0.4935740000000 1.0
C      1  0.5362420000000  0.4826120000000  0.5313150000000 1.0
C      1  0.5313110000000  0.4825430000000  0.4701100000000 1.0
C      1  0.5566720000000  0.4901970000000  0.5501730000000 1.0
C      1  0.5557760000000  0.4677820000000  0.4688090000000 1.0
C      1  0.5446700000000  0.5436520000000  0.4828450000000 1.0
C      1  0.4850200000000  0.4699420000000  0.5472690000000 1.0
C      1  0.4728350000000  0.4718350000000  0.4540530000000 1.0
C      1  0.4745900000000  0.5528580000000  0.5013980000000 1.0
C      1  0.4776870000000  0.4509090000000  0.4999540000000 1.0
C      1  0.4517430000000  0.5268270000000  0.4687770000000 1.0
C      1  0.4757830000000  0.5121820000000  0.5251970000000 1.0
C      1  0.4767320000000  0.4240390000000  0.4565120000000 1.0
C      1  0.5191070000000  0.6292000000000  0.4255220000000 1.0
C      1  0.4676150000000  0.4895400000000  0.5907610000000 1.0
C      1  0.5086390000000  0.4005720000000  0.4869180000000 1.0
C      1  0.4898140000000  0.5512820000000  0.4472410000000 1.0
C      1  0.4972360000000  0.5158330000000  0.5688020000000 1.0
C      1  0.4659350000000  0.4259640000000  0.4874340000000 1.0
C      1  0.4443740000000  0.5406890000000  0.4442730000000 1.0
C      1  0.4543520000000  0.5143220000000  0.5792170000000 1.0
C      1  0.5730440000000  0.4484220000000  0.5651770000000 1.0
C      1  0.5686750000000  0.4805470000000  0.4245750000000 1.0
C      1  0.5602900000000  0.5751340000000  0.5170050000000 1.0
C      1  0.4885390000000  0.4941500000000  0.4410190000000 1.0
C      1  0.4871940000000  0.5411720000000  0.5260810000000 1.0
C      1  0.4936320000000  0.4493840000000  0.5263320000000 1.0
C      1  0.5209820000000  0.6079750000000  0.4405250000000 1.0
C      1  0.4936710000000  0.4883680000000  0.6047780000000 1.0
C      1  0.5022490000000  0.4125140000000  0.4539400000000 1.0
C      1  0.5620250000000  0.4739740000000  0.5724130000000 1.0
C      1  0.5631530000000  0.4593050000000  0.4429650000000 1.0
C      1  0.5512770000000  0.5698050000000  0.4907430000000 1.0
C      1  0.5443420000000  0.4227150000000  0.5320690000000 1.0
C      1  0.5330600000000  0.5158220000000  0.4161230000000 1.0
C      1  0.5315630000000  0.5629400000000  0.5558040000000 1.0
C      1  0.3857680000000  0.6065750000000  0.3998640000000 1.0
C      1  0.4110660000000  0.5643660000000  0.5389630000000 1.0
C      1  0.4651410000000  0.4126940000000  0.5434300000000 1.0
C      1  0.4639270000000  0.4663320000000  0.5694270000000 1.0
C      1  0.4720630000000  0.4461240000000  0.4390960000000 1.0
C      1  0.4490600000000  0.5682430000000  0.5059580000000 1.0
C      1  0.4345210000000  0.5728490000000  0.4792630000000 1.0
C      1  0.4384370000000  0.4774220000000  0.5537850000000 1.0
C      1  0.4293740000000  0.4555300000000  0.4716310000000 1.0
C      1  0.5284440000000  0.5871250000000  0.4846050000000 1.0
C      1  0.5377990000000  0.4695450000000  0.5884920000000 1.0
C      1  0.5401970000000  0.4435920000000  0.4330870000000 1.0
C      1  0.5220280000000  0.4920680000000  0.5966140000000 1.0
C      1  0.5292290000000  0.4249390000000  0.4518360000000 1.0
C      1  0.5224170000000  0.5851260000000  0.4564910000000 1.0
C      1  0.4757990000000  0.4420900000000  0.5833670000000 1.0
C      1  0.4803680000000  0.4470990000000  0.4122390000000 1.0
C      1  0.4624670000000  0.5941470000000  0.5163510000000 1.0
C      1  0.5862270000000  0.5319890000000  0.5020280000000 1.0
C      1  0.5939940000000  0.4902670000000  0.5226520000000 1.0
C      1  0.5930790000000  0.4938070000000  0.4753810000000 1.0
C      1  0.5283210000000  0.4626040000000  0.4129110000000 1.0
C      1  0.5169440000000  0.5920170000000  0.5124800000000 1.0
C      1  0.5287870000000  0.4425000000000  0.5788280000000 1.0
C      1  0.5430560000000  0.5351740000000  0.5636140000000 1.0
C      1  0.5528580000000  0.4311430000000  0.5033980000000 1.0
C      1  0.5394940000000  0.5361070000000  0.4376670000000 1.0
C      1  0.5108700000000  0.5005670000000  0.4590450000000 1.0
C      1  0.5165230000000  0.5317910000000  0.5209180000000 1.0
C      1  0.5210140000000  0.4627600000000  0.5166880000000 1.0
C      1  0.5587250000000  0.5314440000000  0.4607490000000 1.0
C      1  0.5637810000000  0.5187670000000  0.5484220000000 1.0
C      1  0.5677920000000  0.4561150000000  0.4932310000000 1.0
C      1  0.5371070000000  0.5805940000000  0.5332770000000 1.0
C      1  0.5498690000000  0.4321490000000  0.5590680000000 1.0
C      1  0.5436530000000  0.4889340000000  0.4126630000000 1.0
C      1  0.4002870000000  0.5931210000000  0.4168290000000 1.0
C      1  0.4304110000000  0.5499870000000  0.5255520000000 1.0
C      1  0.4408070000000  0.4234730000000  0.5375200000000 1.0
C      1  0.4309640000000  0.5208660000000  0.5310400000000 1.0
C      1  0.4314180000000  0.4426290000000  0.5184270000000 1.0
C      1  0.4150340000000  0.5794120000000  0.4340480000000 1.0
C      1  0.4834370000000  0.5141410000000  0.4204910000000 1.0
C      1  0.4822370000000  0.5537660000000  0.5536570000000 1.0
C      1  0.4917450000000  0.4180060000000  0.5301950000000 1.0
C      1  0.4895170000000  0.5995460000000  0.5167240000000 1.0
C      1  0.5020880000000  0.4346250000000  0.5845780000000 1.0
C      1  0.5035420000000  0.4557740000000  0.4016260000000 1.0
C      1  0.5841110000000  0.5177560000000  0.5269050000000 1.0
C      1  0.5889930000000  0.4758640000000  0.4984830000000 1.0
C      1  0.5824150000000  0.5204740000000  0.4749020000000 1.0
C      1  0.4310720000000  0.4708570000000  0.5259320000000 1.0
C      1  0.4458780000000  0.4782850000000  0.4663170000000 1.0
C      1  0.4487050000000  0.5015410000000  0.4852010000000 1.0
C      1  0.4935920000000  0.4982620000000  0.5447410000000 1.0
C      1  0.4892490000000  0.4664410000000  0.4804190000000 1.0
C      1  0.4799650000000  0.5411260000000  0.4742860000000 1.0
C      1  0.5195240000000  0.4080210000000  0.5349080000000 1.0
C      1  0.5067840000000  0.5187100000000  0.4047060000000 1.0
C      1  0.5044210000000  0.5685130000000  0.5637190000000 1.0
C      1  0.4365760000000  0.4349870000000  0.4905050000000 1.0
C      1  0.4306890000000  0.5648610000000  0.4517750000000 1.0
C      1  0.4361110000000  0.5071900000000  0.5577210000000 1.0
C      1  0.4770780000000  0.5023380000000  0.4982000000000 1.0
C      1  0.4313340000000  0.4978500000000  0.5110380000000 1.0
END
