TITL C-3623282-6910-274 -88.1059315391419 125000 -936.248066498482 0 0 153 (C1) n - 1
REM
REM in /home/nfs/bkarasulu/CARBON/AIRSS/Generating-Clusters/LCBOP/Higher-Symm/SD-CG/FIRE-CG
REM
REM
REM
REM
REM
REM ./C.cell (b20cbc046b6831c77cfcea5457e17084)
REM AIRSS Version 0.9.1 bugfix July 2018 build 013d7b7c2542+ Fri, 06 Jul 2018 19:26:36 +0100
REM compiler GCC version 9.2.1 20190827 (Red Hat 9.2.1-1)
REM options -cpp -mtune=generic -march=x86-64 -g -O0 -fpre-include=/usr/include/finclude/math-vector-fortran.h
REM seed 664717889 913339957 1772266874 302822019 42181622 -11507743 847193564 -429494064 916123 -349687331 315059227 -720645334 1161743987 -1171167623 1741256729 1358981588 405858979 852197956 -1366261728 84725770 -1590422713 -804903251 -1438009786 1037721704 2110012854 1365900359 2045019776 959393047 -821569480 -1247620495 -2109207743 223847659 -1153205887
REM
CELL 1.54180   50.00000   50.00000   50.00000   90.00000   90.00000   90.00000
LATT -1
SFAC C  
C      1  0.4913560000000  0.5193970000000  0.4582690000000 1.0
C      1  0.4840500000000  0.4696380000000  0.4564770000000 1.0
C      1  0.5185940000000  0.5054360000000  0.4548680000000 1.0
C      1  0.4411250000000  0.3752770000000  0.4672170000000 1.0
C      1  0.6312630000000  0.5073030000000  0.4809740000000 1.0
C      1  0.4197900000000  0.6066100000000  0.4731630000000 1.0
C      1  0.5250150000000  0.4561150000000  0.5879640000000 1.0
C      1  0.5282610000000  0.5686090000000  0.5836170000000 1.0
C      1  0.4480170000000  0.4784120000000  0.5932410000000 1.0
C      1  0.4833820000000  0.6224760000000  0.5059120000000 1.0
C      1  0.4100990000000  0.4257010000000  0.5067310000000 1.0
C      1  0.6017610000000  0.4456200000000  0.5127380000000 1.0
C      1  0.4465100000000  0.4968620000000  0.4581900000000 1.0
C      1  0.5278280000000  0.4554840000000  0.4576930000000 1.0
C      1  0.5250180000000  0.5515840000000  0.4619800000000 1.0
C      1  0.6185250000000  0.5108240000000  0.5424590000000 1.0
C      1  0.4262280000000  0.5887870000000  0.5378700000000 1.0
C      1  0.4684780000000  0.3855270000000  0.5292850000000 1.0
C      1  0.5455140000000  0.4755200000000  0.5341820000000 1.0
C      1  0.4954970000000  0.5483370000000  0.5409260000000 1.0
C      1  0.4454260000000  0.4712370000000  0.5368230000000 1.0
C      1  0.5840710000000  0.5489470000000  0.4551000000000 1.0
C      1  0.4174410000000  0.5430800000000  0.4607590000000 1.0
C      1  0.5037360000000  0.3982710000000  0.4560440000000 1.0
C      1  0.4741360000000  0.5847270000000  0.4403760000000 1.0
C      1  0.4431930000000  0.4339220000000  0.4378210000000 1.0
C      1  0.5858970000000  0.4798770000000  0.4404410000000 1.0
C      1  0.4150380000000  0.5029640000000  0.5553850000000 1.0
C      1  0.5285440000000  0.4216420000000  0.5457330000000 1.0
C      1  0.5519740000000  0.5813740000000  0.5407230000000 1.0
C      1  0.5182740000000  0.4335830000000  0.5698310000000 1.0
C      1  0.5519210000000  0.5745230000000  0.5683800000000 1.0
C      1  0.4313840000000  0.4984960000000  0.5789540000000 1.0
C      1  0.4993220000000  0.5245190000000  0.5261190000000 1.0
C      1  0.4835900000000  0.5018440000000  0.5261900000000 1.0
C      1  0.5248410000000  0.4907540000000  0.5241200000000 1.0
C      1  0.5255120000000  0.4362830000000  0.5212520000000 1.0
C      1  0.5403310000000  0.5613280000000  0.5235700000000 1.0
C      1  0.4258100000000  0.5096610000000  0.5277850000000 1.0
C      1  0.5466390000000  0.4693550000000  0.3835880000000 1.0
C      1  0.5092430000000  0.5574150000000  0.3884650000000 1.0
C      1  0.4527170000000  0.4785410000000  0.3839260000000 1.0
C      1  0.5544350000000  0.4881310000000  0.4866250000000 1.0
C      1  0.4808120000000  0.5575210000000  0.4917970000000 1.0
C      1  0.4564260000000  0.4584480000000  0.4909800000000 1.0
C      1  0.4399310000000  0.4513680000000  0.5867310000000 1.0
C      1  0.5561210000000  0.4575590000000  0.5873500000000 1.0
C      1  0.5083550000000  0.5900210000000  0.5820080000000 1.0
C      1  0.5548400000000  0.4457740000000  0.4523060000000 1.0
C      1  0.5184890000000  0.5792370000000  0.4573620000000 1.0
C      1  0.4253590000000  0.4766170000000  0.4512770000000 1.0
C      1  0.5432030000000  0.5361070000000  0.5082760000000 1.0
C      1  0.4459630000000  0.5228340000000  0.5107560000000 1.0
C      1  0.5038630000000  0.4496400000000  0.5079190000000 1.0
C      1  0.4125190000000  0.4342930000000  0.5360760000000 1.0
C      1  0.5935000000000  0.4406310000000  0.5417480000000 1.0
C      1  0.4936990000000  0.6191070000000  0.5334130000000 1.0
C      1  0.4452220000000  0.5476140000000  0.4556800000000 1.0
C      1  0.4878330000000  0.4212390000000  0.4540500000000 1.0
C      1  0.5702820000000  0.5240760000000  0.4556010000000 1.0
C      1  0.5005960000000  0.5393740000000  0.4784270000000 1.0
C      1  0.4668870000000  0.4830480000000  0.4773780000000 1.0
C      1  0.5269090000000  0.4826140000000  0.4737520000000 1.0
C      1  0.6077020000000  0.4862010000000  0.5355560000000 1.0
C      1  0.4511060000000  0.5982550000000  0.5300330000000 1.0
C      1  0.4489140000000  0.4047640000000  0.5254330000000 1.0
C      1  0.4650480000000  0.5298150000000  0.3769030000000 1.0
C      1  0.4977850000000  0.4545100000000  0.3695640000000 1.0
C      1  0.5467400000000  0.5220460000000  0.3759790000000 1.0
C      1  0.4011700000000  0.4534750000000  0.5555050000000 1.0
C      1  0.5759510000000  0.4227070000000  0.5570930000000 1.0
C      1  0.5201930000000  0.6195650000000  0.5453380000000 1.0
C      1  0.4740900000000  0.5166900000000  0.6020070000000 1.0
C      1  0.5038250000000  0.4939500000000  0.5696080000000 1.0
C      1  0.5208810000000  0.5169990000000  0.5712560000000 1.0
C      1  0.4863800000000  0.4847110000000  0.5488440000000 1.0
C      1  0.5417270000000  0.5141060000000  0.5532720000000 1.0
C      1  0.4723210000000  0.5377330000000  0.5847530000000 1.0
C      1  0.4116490000000  0.4484410000000  0.5820780000000 1.0
C      1  0.5698260000000  0.4319720000000  0.5839190000000 1.0
C      1  0.5187090000000  0.6153730000000  0.5737760000000 1.0
C      1  0.5119570000000  0.4773810000000  0.5011170000000 1.0
C      1  0.5152620000000  0.5288460000000  0.5028950000000 1.0
C      1  0.4664400000000  0.5021930000000  0.5030250000000 1.0
C      1  0.5017060000000  0.5834460000000  0.4344830000000 1.0
C      1  0.4325490000000  0.4588720000000  0.4298260000000 1.0
C      1  0.5688930000000  0.4592380000000  0.4313530000000 1.0
C      1  0.4770580000000  0.4431520000000  0.5025870000000 1.0
C      1  0.5593880000000  0.5139620000000  0.4997230000000 1.0
C      1  0.4563470000000  0.5483170000000  0.5035500000000 1.0
C      1  0.4036390000000  0.5773220000000  0.5439860000000 1.0
C      1  0.4862430000000  0.3668440000000  0.5330600000000 1.0
C      1  0.6258870000000  0.5350660000000  0.5485600000000 1.0
C      1  0.5221590000000  0.5408780000000  0.5868120000000 1.0
C      1  0.4746930000000  0.4870760000000  0.6028620000000 1.0
C      1  0.5018070000000  0.4764770000000  0.5929130000000 1.0
C      1  0.5208590000000  0.3810480000000  0.4667600000000 1.0
C      1  0.5879710000000  0.5745380000000  0.4612070000000 1.0
C      1  0.3958330000000  0.5330700000000  0.4728920000000 1.0
C      1  0.4448630000000  0.5959000000000  0.4784840000000 1.0
C      1  0.4448520000000  0.4015280000000  0.4748870000000 1.0
C      1  0.6069340000000  0.4936190000000  0.4835860000000 1.0
C      1  0.4831000000000  0.5837770000000  0.5688090000000 1.0
C      1  0.4556790000000  0.4395360000000  0.5647840000000 1.0
C      1  0.5729080000000  0.4761490000000  0.5712680000000 1.0
C      1  0.5376570000000  0.3713650000000  0.4849230000000 1.0
C      1  0.5839530000000  0.5979970000000  0.4730900000000 1.0
C      1  0.3796440000000  0.5194300000000  0.4892010000000 1.0
C      1  0.5877470000000  0.4998660000000  0.4608030000000 1.0
C      1  0.4542400000000  0.5758820000000  0.4585470000000 1.0
C      1  0.4587890000000  0.4186830000000  0.4559230000000 1.0
C      1  0.5517120000000  0.4959520000000  0.3763430000000 1.0
C      1  0.4844300000000  0.5477730000000  0.3796300000000 1.0
C      1  0.4725630000000  0.4621740000000  0.3728250000000 1.0
C      1  0.4991810000000  0.5770680000000  0.5019100000000 1.0
C      1  0.4298670000000  0.4672750000000  0.4955650000000 1.0
C      1  0.5613010000000  0.4610770000000  0.4948430000000 1.0
C      1  0.5541520000000  0.4075510000000  0.5461100000000 1.0
C      1  0.5445230000000  0.6088660000000  0.5334410000000 1.0
C      1  0.3940390000000  0.4815950000000  0.5503690000000 1.0
C      1  0.5735820000000  0.6149910000000  0.4907600000000 1.0
C      1  0.3710340000000  0.5039350000000  0.5092340000000 1.0
C      1  0.5508500000000  0.3720890000000  0.5079950000000 1.0
C      1  0.6063120000000  0.4756400000000  0.5079010000000 1.0
C      1  0.4579800000000  0.6066480000000  0.5025390000000 1.0
C      1  0.4342270000000  0.4090880000000  0.5006290000000 1.0
C      1  0.4281150000000  0.4821950000000  0.5181170000000 1.0
C      1  0.5492230000000  0.4529440000000  0.5187000000000 1.0
C      1  0.5113600000000  0.5678330000000  0.5256930000000 1.0
C      1  0.3980080000000  0.4397910000000  0.4840840000000 1.0
C      1  0.5933060000000  0.4308510000000  0.4893620000000 1.0
C      1  0.5024460000000  0.6201710000000  0.4849250000000 1.0
C      1  0.5404950000000  0.5268970000000  0.4533080000000 1.0
C      1  0.4612810000000  0.5223120000000  0.4526890000000 1.0
C      1  0.5007050000000  0.4470560000000  0.4527880000000 1.0
C      1  0.5240130000000  0.4565930000000  0.3732210000000 1.0
C      1  0.5324030000000  0.5439890000000  0.3803320000000 1.0
C      1  0.4534070000000  0.5059850000000  0.3784540000000 1.0
C      1  0.4738070000000  0.6018810000000  0.5479110000000 1.0
C      1  0.4395650000000  0.4230740000000  0.5458330000000 1.0
C      1  0.5958660000000  0.4675420000000  0.5547350000000 1.0
C      1  0.4679360000000  0.4625150000000  0.5510610000000 1.0
C      1  0.5574810000000  0.4917920000000  0.5539780000000 1.0
C      1  0.4803720000000  0.5555830000000  0.5639610000000 1.0
C      1  0.5099950000000  0.5767800000000  0.4086740000000 1.0
C      1  0.4359410000000  0.4682830000000  0.4038060000000 1.0
C      1  0.5610270000000  0.4579470000000  0.4046840000000 1.0
C      1  0.5570710000000  0.3844970000000  0.5306980000000 1.0
C      1  0.5590650000000  0.6203710000000  0.5124720000000 1.0
C      1  0.3742890000000  0.4893640000000  0.5315320000000 1.0
C      1  0.5111780000000  0.5936370000000  0.4812090000000 1.0
C      1  0.4119400000000  0.4631860000000  0.4740680000000 1.0
C      1  0.5702830000000  0.4413210000000  0.4761250000000 1.0
END
