TITL C-3623284-6838-865 10.1685269139233 125000 -919.062729256213 0 0 149 (C1) n - 1
REM
REM in /home/nfs/bkarasulu/CARBON/AIRSS/Generating-Clusters/LCBOP/Higher-Symm/SD-CG/FIRE-CG
REM
REM
REM
REM
REM
REM ./C.cell (b20cbc046b6831c77cfcea5457e17084)
REM AIRSS Version 0.9.1 bugfix July 2018 build 013d7b7c2542+ Fri, 06 Jul 2018 19:26:36 +0100
REM compiler GCC version 9.2.1 20190827 (Red Hat 9.2.1-1)
REM options -cpp -mtune=generic -march=x86-64 -g -O0 -fpre-include=/usr/include/finclude/math-vector-fortran.h
REM seed -918206015 464012428 690735119 -2120975793 470583017 1401368913 -114498614 -1158868038 2115859133 -473920704 -2122065479 -1799476108 -860589656 -1170420651 -1004725380 1543488252 -514593807 -802510125 1623038985 -107680745 475838973 273849901 333323270 -114934396 587000951 1835541348 -2102929838 -446056484 193604426 -2090229300 1197091267 1389067693 -1489089492
REM
CELL 1.54180   50.00000   50.00000   50.00000   90.00000   90.00000   90.00000
LATT -1
SFAC C  
C      1  0.4838640000000  0.5836720000000  0.5402680000000 1.0
C      1  0.4783910000000  0.4182120000000  0.5391900000000 1.0
C      1  0.5967850000000  0.4268610000000  0.5074160000000 1.0
C      1  0.6271950000000  0.5859790000000  0.5441110000000 1.0
C      1  0.5692600000000  0.4673800000000  0.4549180000000 1.0
C      1  0.5730790000000  0.5186940000000  0.4422840000000 1.0
C      1  0.5579380000000  0.4187080000000  0.4367890000000 1.0
C      1  0.5667140000000  0.5668370000000  0.4345300000000 1.0
C      1  0.4720040000000  0.5726800000000  0.5163250000000 1.0
C      1  0.4659170000000  0.4279530000000  0.5146480000000 1.0
C      1  0.5040130000000  0.4507070000000  0.5260400000000 1.0
C      1  0.5100870000000  0.5470750000000  0.5356940000000 1.0
C      1  0.5245770000000  0.4872900000000  0.5376430000000 1.0
C      1  0.5279240000000  0.5087760000000  0.5538770000000 1.0
C      1  0.4631560000000  0.5345940000000  0.5712620000000 1.0
C      1  0.4596060000000  0.4694180000000  0.5668080000000 1.0
C      1  0.5696280000000  0.4403900000000  0.5469020000000 1.0
C      1  0.5773840000000  0.5665730000000  0.5511280000000 1.0
C      1  0.3778380000000  0.4799640000000  0.4755870000000 1.0
C      1  0.3722860000000  0.5059220000000  0.4696330000000 1.0
C      1  0.4170830000000  0.4446690000000  0.5363310000000 1.0
C      1  0.4202470000000  0.5585620000000  0.5355680000000 1.0
C      1  0.4862710000000  0.3798630000000  0.4866040000000 1.0
C      1  0.4886380000000  0.6186850000000  0.4799970000000 1.0
C      1  0.4406970000000  0.4044810000000  0.4850830000000 1.0
C      1  0.4458650000000  0.5906590000000  0.4815280000000 1.0
C      1  0.4509850000000  0.5210660000000  0.4744470000000 1.0
C      1  0.4490280000000  0.4913830000000  0.4758000000000 1.0
C      1  0.4601090000000  0.4839120000000  0.4504910000000 1.0
C      1  0.4806220000000  0.5021170000000  0.4422570000000 1.0
C      1  0.4982660000000  0.5430660000000  0.4510410000000 1.0
C      1  0.4979080000000  0.4549670000000  0.4352910000000 1.0
C      1  0.5394640000000  0.4212780000000  0.4149350000000 1.0
C      1  0.5447900000000  0.5801750000000  0.4201900000000 1.0
C      1  0.5190140000000  0.4489790000000  0.4778740000000 1.0
C      1  0.5437540000000  0.5479450000000  0.4713460000000 1.0
C      1  0.5849170000000  0.5174940000000  0.5451040000000 1.0
C      1  0.5826290000000  0.4874230000000  0.5471910000000 1.0
C      1  0.4612920000000  0.4789850000000  0.4985280000000 1.0
C      1  0.4586010000000  0.5181800000000  0.5243300000000 1.0
C      1  0.5348920000000  0.4951610000000  0.3910210000000 1.0
C      1  0.5153830000000  0.5135150000000  0.4014910000000 1.0
C      1  0.5588980000000  0.5698280000000  0.4625910000000 1.0
C      1  0.5570310000000  0.3979360000000  0.4556020000000 1.0
C      1  0.4992590000000  0.4746270000000  0.5409320000000 1.0
C      1  0.5062190000000  0.5259690000000  0.5530270000000 1.0
C      1  0.5497070000000  0.4201440000000  0.5486670000000 1.0
C      1  0.5541050000000  0.5823530000000  0.5452610000000 1.0
C      1  0.4154920000000  0.4466400000000  0.4807680000000 1.0
C      1  0.4334010000000  0.5431620000000  0.4813420000000 1.0
C      1  0.4243860000000  0.4508830000000  0.5080090000000 1.0
C      1  0.4311660000000  0.5495390000000  0.5089230000000 1.0
C      1  0.4953260000000  0.4716710000000  0.4127370000000 1.0
C      1  0.4955510000000  0.4999120000000  0.4175560000000 1.0
C      1  0.4352310000000  0.5309990000000  0.5775750000000 1.0
C      1  0.4325640000000  0.4737360000000  0.5748000000000 1.0
C      1  0.4145780000000  0.4807500000000  0.4445760000000 1.0
C      1  0.4120400000000  0.5110880000000  0.4415760000000 1.0
C      1  0.5121600000000  0.6159240000000  0.4925650000000 1.0
C      1  0.5095430000000  0.3823350000000  0.4997330000000 1.0
C      1  0.5499400000000  0.4886260000000  0.6005950000000 1.0
C      1  0.5542100000000  0.5150400000000  0.6001660000000 1.0
C      1  0.5196410000000  0.4621740000000  0.4531120000000 1.0
C      1  0.5269180000000  0.5334460000000  0.4525690000000 1.0
C      1  0.4782650000000  0.5586930000000  0.4356390000000 1.0
C      1  0.4780850000000  0.4333780000000  0.4372210000000 1.0
C      1  0.6030500000000  0.5770130000000  0.5480780000000 1.0
C      1  0.5837470000000  0.4453350000000  0.5225240000000 1.0
C      1  0.5447560000000  0.5096630000000  0.4455760000000 1.0
C      1  0.5427730000000  0.4804820000000  0.4500600000000 1.0
C      1  0.4493020000000  0.4390580000000  0.4434970000000 1.0
C      1  0.4491220000000  0.5532610000000  0.4394610000000 1.0
C      1  0.5311120000000  0.5764930000000  0.5624910000000 1.0
C      1  0.5251360000000  0.4283000000000  0.5613250000000 1.0
C      1  0.5365300000000  0.3898920000000  0.5039700000000 1.0
C      1  0.5374620000000  0.6031270000000  0.4934300000000 1.0
C      1  0.5213290000000  0.4556140000000  0.5042530000000 1.0
C      1  0.5232630000000  0.5435200000000  0.5122770000000 1.0
C      1  0.4782950000000  0.4870530000000  0.5555510000000 1.0
C      1  0.4810400000000  0.5152250000000  0.5607550000000 1.0
C      1  0.5733650000000  0.5395140000000  0.5612740000000 1.0
C      1  0.5682990000000  0.4651540000000  0.5625220000000 1.0
C      1  0.5909210000000  0.4813630000000  0.4675470000000 1.0
C      1  0.5925930000000  0.5087820000000  0.4600230000000 1.0
C      1  0.5492770000000  0.5950950000000  0.5190470000000 1.0
C      1  0.5468100000000  0.3999810000000  0.5285210000000 1.0
C      1  0.4607100000000  0.5241550000000  0.6176540000000 1.0
C      1  0.4588840000000  0.4771900000000  0.6156350000000 1.0
C      1  0.4367640000000  0.5161260000000  0.6021190000000 1.0
C      1  0.4355080000000  0.4871520000000  0.6005780000000 1.0
C      1  0.4817400000000  0.5226490000000  0.4651600000000 1.0
C      1  0.4938940000000  0.5122090000000  0.4909130000000 1.0
C      1  0.5524070000000  0.3902350000000  0.4807060000000 1.0
C      1  0.5466030000000  0.5955240000000  0.4671860000000 1.0
C      1  0.5150700000000  0.5409830000000  0.3926160000000 1.0
C      1  0.5427940000000  0.4693460000000  0.3900540000000 1.0
C      1  0.4583110000000  0.4227450000000  0.5603820000000 1.0
C      1  0.4638710000000  0.5809780000000  0.5608350000000 1.0
C      1  0.4429530000000  0.4830440000000  0.4070280000000 1.0
C      1  0.4424810000000  0.5108940000000  0.4062770000000 1.0
C      1  0.5628290000000  0.5178070000000  0.5044060000000 1.0
C      1  0.5590740000000  0.4894700000000  0.5061260000000 1.0
C      1  0.3881760000000  0.5211370000000  0.4536110000000 1.0
C      1  0.4010850000000  0.4666220000000  0.4662740000000 1.0
C      1  0.4896530000000  0.4096720000000  0.4265920000000 1.0
C      1  0.4847460000000  0.5810180000000  0.4209700000000 1.0
C      1  0.5446970000000  0.5371450000000  0.4967040000000 1.0
C      1  0.5357070000000  0.4782570000000  0.5135150000000 1.0
C      1  0.4475220000000  0.5895320000000  0.5117130000000 1.0
C      1  0.4414020000000  0.4104320000000  0.5143610000000 1.0
C      1  0.4408120000000  0.4680870000000  0.4337500000000 1.0
C      1  0.4335230000000  0.5281090000000  0.4282980000000 1.0
C      1  0.4877630000000  0.4839410000000  0.6072280000000 1.0
C      1  0.4893930000000  0.5169580000000  0.6089670000000 1.0
C      1  0.5890360000000  0.5241160000000  0.5157520000000 1.0
C      1  0.5842620000000  0.4749780000000  0.5170170000000 1.0
C      1  0.5781390000000  0.5423030000000  0.4277680000000 1.0
C      1  0.5723850000000  0.4416100000000  0.4443520000000 1.0
C      1  0.4389290000000  0.5663710000000  0.4648670000000 1.0
C      1  0.4334600000000  0.4274030000000  0.4668980000000 1.0
C      1  0.4540590000000  0.4537650000000  0.5075910000000 1.0
C      1  0.4602720000000  0.5458860000000  0.5167860000000 1.0
C      1  0.5238340000000  0.4495920000000  0.5817070000000 1.0
C      1  0.5306500000000  0.5559010000000  0.5842510000000 1.0
C      1  0.5040100000000  0.4278380000000  0.5425590000000 1.0
C      1  0.5084670000000  0.5731510000000  0.5459950000000 1.0
C      1  0.4965860000000  0.4571290000000  0.5917990000000 1.0
C      1  0.5027470000000  0.5468230000000  0.5951040000000 1.0
C      1  0.5371560000000  0.6014380000000  0.4395850000000 1.0
C      1  0.5147380000000  0.4072990000000  0.4164500000000 1.0
C      1  0.4983430000000  0.5465760000000  0.3707060000000 1.0
C      1  0.4813010000000  0.5512020000000  0.3515410000000 1.0
C      1  0.6031050000000  0.4832800000000  0.4951410000000 1.0
C      1  0.6071860000000  0.5122520000000  0.4968440000000 1.0
C      1  0.5299410000000  0.5630550000000  0.4031500000000 1.0
C      1  0.5428400000000  0.4433700000000  0.3972260000000 1.0
C      1  0.4152250000000  0.4685530000000  0.5524140000000 1.0
C      1  0.4219400000000  0.5351950000000  0.5525990000000 1.0
C      1  0.4348160000000  0.5839830000000  0.5399380000000 1.0
C      1  0.4316310000000  0.4194400000000  0.5430820000000 1.0
C      1  0.5539960000000  0.5377470000000  0.5834940000000 1.0
C      1  0.5477840000000  0.4666750000000  0.5831290000000 1.0
C      1  0.4314910000000  0.5127910000000  0.5357560000000 1.0
C      1  0.4134110000000  0.4914910000000  0.5359220000000 1.0
C      1  0.4614850000000  0.3862330000000  0.4781380000000 1.0
C      1  0.4646150000000  0.6098070000000  0.4717280000000 1.0
C      1  0.4714650000000  0.4447950000000  0.5772910000000 1.0
C      1  0.4743170000000  0.5594600000000  0.5788560000000 1.0
C      1  0.4755810000000  0.5006070000000  0.5098890000000 1.0
END
