TITL C-3623288-6813-1193 12093.1199155951 125000 -1123.05818772454 0 0 183 (C1) n - 1
REM
REM in /home/nfs/bkarasulu/CARBON/AIRSS/Generating-Clusters/LCBOP/Higher-Symm/SD-CG/FIRE-CG
REM
REM
REM
REM
REM
REM ./C.cell (b20cbc046b6831c77cfcea5457e17084)
REM AIRSS Version 0.9.1 bugfix July 2018 build 013d7b7c2542+ Fri, 06 Jul 2018 19:26:36 +0100
REM compiler GCC version 9.2.1 20190827 (Red Hat 9.2.1-1)
REM options -cpp -mtune=generic -march=x86-64 -g -O0 -fpre-include=/usr/include/finclude/math-vector-fortran.h
REM seed -720895454 -988525741 -1908707701 1382007468 -94987473 -1113792404 625870736 -1991689364 -479597157 -649010209 -1067183306 872187602 -862299097 347332245 -1391425893 184026804 -798947106 749283381 -2126580969 765440163 -290028055 1922990374 -565558442 1735744474 -1388558175 -1177317970 -342019590 -1752792523 -376241573 743608847 -784254477 1563704401 1250191522
REM
CELL 1.54180   50.00000   50.00000   50.00000   90.00000   90.00000   90.00000
LATT -1
SFAC C  
C      1  0.4506950000000  0.5205770000000  0.5316560000000 1.0
C      1  0.5464670000000  0.4791580000000  0.5438800000000 1.0
C      1  0.4546530000000  0.5154470000000  0.4575500000000 1.0
C      1  0.5503340000000  0.4792220000000  0.4656140000000 1.0
C      1  0.4694390000000  0.4679520000000  0.4505260000000 1.0
C      1  0.5424330000000  0.5401590000000  0.4442430000000 1.0
C      1  0.4579530000000  0.4609980000000  0.5581550000000 1.0
C      1  0.5451680000000  0.5286120000000  0.5498090000000 1.0
C      1  0.5433080000000  0.5490920000000  0.4713350000000 1.0
C      1  0.4627250000000  0.4556720000000  0.4747860000000 1.0
C      1  0.5439740000000  0.5452380000000  0.5274490000000 1.0
C      1  0.4594100000000  0.4505170000000  0.5318740000000 1.0
C      1  0.4200770000000  0.5708670000000  0.5261430000000 1.0
C      1  0.5821580000000  0.4253840000000  0.5282930000000 1.0
C      1  0.4144030000000  0.5643610000000  0.4719030000000 1.0
C      1  0.5748250000000  0.4295200000000  0.4690860000000 1.0
C      1  0.4413400000000  0.5594210000000  0.5955840000000 1.0
C      1  0.5600010000000  0.4502600000000  0.6101540000000 1.0
C      1  0.4444210000000  0.5597870000000  0.3987760000000 1.0
C      1  0.5522090000000  0.4444980000000  0.3995630000000 1.0
C      1  0.6127890000000  0.4688370000000  0.4629280000000 1.0
C      1  0.3818100000000  0.5241040000000  0.4583090000000 1.0
C      1  0.6174620000000  0.4665480000000  0.5355970000000 1.0
C      1  0.3847800000000  0.5279370000000  0.5316880000000 1.0
C      1  0.5485130000000  0.4366660000000  0.4794980000000 1.0
C      1  0.4377210000000  0.5533290000000  0.4854490000000 1.0
C      1  0.5550000000000  0.4336980000000  0.5229130000000 1.0
C      1  0.4427420000000  0.5673790000000  0.5086040000000 1.0
C      1  0.5184300000000  0.5059550000000  0.5814250000000 1.0
C      1  0.4714240000000  0.5026300000000  0.5894060000000 1.0
C      1  0.5264780000000  0.5016920000000  0.4093970000000 1.0
C      1  0.4787010000000  0.4974050000000  0.4154120000000 1.0
C      1  0.4178930000000  0.5984600000000  0.5343880000000 1.0
C      1  0.5851440000000  0.3962320000000  0.5283070000000 1.0
C      1  0.4099390000000  0.5931720000000  0.4720690000000 1.0
C      1  0.5766320000000  0.4012060000000  0.4622170000000 1.0
C      1  0.6048420000000  0.4589940000000  0.3975080000000 1.0
C      1  0.3963710000000  0.5380890000000  0.3953180000000 1.0
C      1  0.6132990000000  0.4458600000000  0.5944820000000 1.0
C      1  0.3907750000000  0.5402660000000  0.5972080000000 1.0
C      1  0.4874990000000  0.4214430000000  0.2934100000000 1.0
C      1  0.4971800000000  0.5859510000000  0.2970710000000 1.0
C      1  0.5018750000000  0.4224740000000  0.7027770000000 1.0
C      1  0.5105350000000  0.5996120000000  0.6911990000000 1.0
C      1  0.5877110000000  0.5028780000000  0.5159440000000 1.0
C      1  0.4138620000000  0.4916880000000  0.5114400000000 1.0
C      1  0.5862060000000  0.5056850000000  0.4878160000000 1.0
C      1  0.4130560000000  0.4923230000000  0.4832230000000 1.0
C      1  0.4035280000000  0.4839080000000  0.4323060000000 1.0
C      1  0.6006980000000  0.5121220000000  0.4354410000000 1.0
C      1  0.3981880000000  0.4864880000000  0.5619500000000 1.0
C      1  0.6025550000000  0.5080060000000  0.5650700000000 1.0
C      1  0.5238280000000  0.5037700000000  0.6097770000000 1.0
C      1  0.4692540000000  0.5091150000000  0.6172350000000 1.0
C      1  0.5290010000000  0.4978780000000  0.3810410000000 1.0
C      1  0.4742420000000  0.5044600000000  0.3879250000000 1.0
C      1  0.3980810000000  0.5527130000000  0.5264470000000 1.0
C      1  0.6047000000000  0.4420680000000  0.5291800000000 1.0
C      1  0.3917100000000  0.5493120000000  0.4655840000000 1.0
C      1  0.5979300000000  0.4455480000000  0.4690990000000 1.0
C      1  0.4562990000000  0.5560150000000  0.6174390000000 1.0
C      1  0.5423800000000  0.4615490000000  0.6264520000000 1.0
C      1  0.4615370000000  0.5517770000000  0.3799810000000 1.0
C      1  0.5379900000000  0.4501740000000  0.3777090000000 1.0
C      1  0.4364070000000  0.5449770000000  0.4214240000000 1.0
C      1  0.5624600000000  0.4590970000000  0.4213010000000 1.0
C      1  0.4332520000000  0.5431370000000  0.5740220000000 1.0
C      1  0.5673050000000  0.4549810000000  0.5834540000000 1.0
C      1  0.4534110000000  0.5359480000000  0.5553400000000 1.0
C      1  0.5451570000000  0.4569870000000  0.5654020000000 1.0
C      1  0.4579160000000  0.5407810000000  0.4401760000000 1.0
C      1  0.5448540000000  0.4673110000000  0.4413330000000 1.0
C      1  0.4886550000000  0.5810460000000  0.4602000000000 1.0
C      1  0.5053460000000  0.4351390000000  0.4385080000000 1.0
C      1  0.4912370000000  0.5693550000000  0.5625780000000 1.0
C      1  0.5128660000000  0.4155620000000  0.5664100000000 1.0
C      1  0.5249820000000  0.5203800000000  0.3647990000000 1.0
C      1  0.4755490000000  0.4827290000000  0.3696960000000 1.0
C      1  0.5216330000000  0.5279740000000  0.6244120000000 1.0
C      1  0.4747650000000  0.4885000000000  0.6354020000000 1.0
C      1  0.4911640000000  0.5933700000000  0.5472410000000 1.0
C      1  0.5128620000000  0.3927320000000  0.5492080000000 1.0
C      1  0.5129940000000  0.5945100000000  0.4556860000000 1.0
C      1  0.5037190000000  0.4092160000000  0.4505900000000 1.0
C      1  0.5308720000000  0.6082110000000  0.4701800000000 1.0
C      1  0.4803040000000  0.3989900000000  0.4627490000000 1.0
C      1  0.5150390000000  0.6065220000000  0.5405660000000 1.0
C      1  0.4893480000000  0.3843380000000  0.5359680000000 1.0
C      1  0.3943940000000  0.6058450000000  0.4922200000000 1.0
C      1  0.5935680000000  0.3859940000000  0.4789360000000 1.0
C      1  0.3991730000000  0.6121910000000  0.5181830000000 1.0
C      1  0.5975950000000  0.3848700000000  0.5055790000000 1.0
C      1  0.4854160000000  0.4587880000000  0.4918370000000 1.0
C      1  0.5185240000000  0.5464620000000  0.4862170000000 1.0
C      1  0.4851010000000  0.4521800000000  0.5192360000000 1.0
C      1  0.5184640000000  0.5452280000000  0.5146400000000 1.0
C      1  0.5201880000000  0.4420160000000  0.5592520000000 1.0
C      1  0.4850300000000  0.5403530000000  0.5574500000000 1.0
C      1  0.5073300000000  0.4644850000000  0.4419290000000 1.0
C      1  0.4837230000000  0.5538690000000  0.4508870000000 1.0
C      1  0.5359770000000  0.5036850000000  0.5592780000000 1.0
C      1  0.4607330000000  0.4796570000000  0.5771490000000 1.0
C      1  0.5378000000000  0.5231390000000  0.4239620000000 1.0
C      1  0.4643630000000  0.4929860000000  0.4397350000000 1.0
C      1  0.4654280000000  0.5283220000000  0.4840580000000 1.0
C      1  0.5359660000000  0.4641480000000  0.4869310000000 1.0
C      1  0.4712700000000  0.5255270000000  0.5130620000000 1.0
C      1  0.5362230000000  0.4612440000000  0.5192600000000 1.0
C      1  0.6141770000000  0.5111270000000  0.4787940000000 1.0
C      1  0.3858680000000  0.4824870000000  0.4752860000000 1.0
C      1  0.6164860000000  0.5097370000000  0.5219690000000 1.0
C      1  0.3857570000000  0.4841890000000  0.5184990000000 1.0
C      1  0.4968490000000  0.4685350000000  0.3578590000000 1.0
C      1  0.5016780000000  0.5348790000000  0.3590160000000 1.0
C      1  0.4983300000000  0.4746820000000  0.6417050000000 1.0
C      1  0.5002560000000  0.5427340000000  0.6353580000000 1.0
C      1  0.5005720000000  0.5524480000000  0.3374300000000 1.0
C      1  0.4932060000000  0.4524050000000  0.3355010000000 1.0
C      1  0.5042530000000  0.5622400000000  0.6547750000000 1.0
C      1  0.4991370000000  0.4567870000000  0.6630540000000 1.0
C      1  0.4942610000000  0.5335900000000  0.4729120000000 1.0
C      1  0.5076080000000  0.4727620000000  0.4777600000000 1.0
C      1  0.4943310000000  0.5362970000000  0.5274360000000 1.0
C      1  0.5097420000000  0.4510440000000  0.5328220000000 1.0
C      1  0.5899920000000  0.4671630000000  0.4191500000000 1.0
C      1  0.4105500000000  0.5314380000000  0.4182420000000 1.0
C      1  0.5953640000000  0.4603880000000  0.5793220000000 1.0
C      1  0.4064820000000  0.5327030000000  0.5758950000000 1.0
C      1  0.5937860000000  0.5481340000000  0.5307460000000 1.0
C      1  0.4092440000000  0.4469710000000  0.5294300000000 1.0
C      1  0.5940460000000  0.5506500000000  0.4701910000000 1.0
C      1  0.4132460000000  0.4469840000000  0.4689440000000 1.0
C      1  0.5521640000000  0.3904380000000  0.4514800000000 1.0
C      1  0.4287550000000  0.6097700000000  0.4593940000000 1.0
C      1  0.5631600000000  0.3820220000000  0.5404420000000 1.0
C      1  0.4430960000000  0.6092740000000  0.5426700000000 1.0
C      1  0.5688080000000  0.5544200000000  0.4850720000000 1.0
C      1  0.4375290000000  0.4462490000000  0.4857960000000 1.0
C      1  0.5689630000000  0.5529470000000  0.5149760000000 1.0
C      1  0.4354810000000  0.4446490000000  0.5159490000000 1.0
C      1  0.5952260000000  0.5333250000000  0.5564120000000 1.0
C      1  0.4061600000000  0.4611910000000  0.5547660000000 1.0
C      1  0.5948330000000  0.5374980000000  0.4441500000000 1.0
C      1  0.4126160000000  0.4599910000000  0.4426670000000 1.0
C      1  0.5004470000000  0.4395640000000  0.6831430000000 1.0
C      1  0.5074550000000  0.5810640000000  0.6731410000000 1.0
C      1  0.4902990000000  0.4368170000000  0.3142760000000 1.0
C      1  0.4989210000000  0.5693000000000  0.3170550000000 1.0
C      1  0.5645620000000  0.5012090000000  0.4722300000000 1.0
C      1  0.4289330000000  0.5064930000000  0.4667810000000 1.0
C      1  0.5712520000000  0.4889740000000  0.5322610000000 1.0
C      1  0.4338200000000  0.4998470000000  0.5276380000000 1.0
C      1  0.4679920000000  0.5998790000000  0.5318440000000 1.0
C      1  0.5368350000000  0.3906020000000  0.5339410000000 1.0
C      1  0.4542730000000  0.6132130000000  0.4669540000000 1.0
C      1  0.5276070000000  0.3994450000000  0.4628670000000 1.0
C      1  0.5214720000000  0.4799120000000  0.6257130000000 1.0
C      1  0.4742150000000  0.5361940000000  0.6256280000000 1.0
C      1  0.5224830000000  0.4720810000000  0.3699460000000 1.0
C      1  0.4789500000000  0.5303620000000  0.3758400000000 1.0
C      1  0.6161650000000  0.5398440000000  0.4860840000000 1.0
C      1  0.3884870000000  0.4540980000000  0.4833010000000 1.0
C      1  0.6165850000000  0.5385770000000  0.5148370000000 1.0
C      1  0.3870160000000  0.4550010000000  0.5121470000000 1.0
C      1  0.5373830000000  0.6153820000000  0.4950700000000 1.0
C      1  0.4722740000000  0.3898660000000  0.4867390000000 1.0
C      1  0.5314210000000  0.6144380000000  0.5210540000000 1.0
C      1  0.4759400000000  0.3844760000000  0.5127260000000 1.0
C      1  0.6068560000000  0.4793170000000  0.5607150000000 1.0
C      1  0.3947120000000  0.5148060000000  0.5567600000000 1.0
C      1  0.6029720000000  0.4834470000000  0.4388700000000 1.0
C      1  0.3969520000000  0.5121730000000  0.4353850000000 1.0
C      1  0.3709830000000  0.5074830000000  0.4801350000000 1.0
C      1  0.6262260000000  0.4845360000000  0.4838230000000 1.0
C      1  0.3724450000000  0.5098900000000  0.5111100000000 1.0
C      1  0.6285600000000  0.4838170000000  0.5144110000000 1.0
C      1  0.5382950000000  0.4109570000000  0.5143010000000 1.0
C      1  0.4641530000000  0.5865900000000  0.5065600000000 1.0
C      1  0.5329750000000  0.4133260000000  0.4870190000000 1.0
C      1  0.4712840000000  0.5942570000000  0.4792910000000 1.0
C      1  0.5050620000000  0.4867670000000  0.4212420000000 1.0
C      1  0.4925000000000  0.5167420000000  0.5755160000000 1.0
C      1  0.5041350000000  0.5031910000000  0.4743390000000 1.0
END
