TITL C-3623285-6872-1702 0.483149348249612 125000 -790.181697879652 0 0 133 (C1) n - 1
REM
REM in /home/nfs/bkarasulu/CARBON/AIRSS/Generating-Clusters/LCBOP/Higher-Symm/SD-CG/FIRE-CG
REM
REM
REM
REM
REM
REM ./C.cell (b20cbc046b6831c77cfcea5457e17084)
REM AIRSS Version 0.9.1 bugfix July 2018 build 013d7b7c2542+ Fri, 06 Jul 2018 19:26:36 +0100
REM compiler GCC version 9.2.1 20190827 (Red Hat 9.2.1-1)
REM options -cpp -mtune=generic -march=x86-64 -g -O0 -fpre-include=/usr/include/finclude/math-vector-fortran.h
REM seed 1553261852 208434647 1056992816 1943917456 -1855382610 1850861937 -1009188801 -692929753 -292659008 210998835 1477486877 1604611247 1766286968 1303280624 229942272 -972599093 1750113290 247109389 1708858089 1473779300 -1944410629 -1192654342 1937896290 -703898932 981501223 848839334 -761980438 -1601167268 -1977212868 -1920293724 -620660674 -1396297638 1849935979
REM
CELL 1.54180   50.00000   50.00000   50.00000   90.00000   90.00000   90.00000
LATT -1
SFAC C  
C      1  0.5261030000000  0.3565500000000  0.4039970000000 1.0
C      1  0.6241360000000  0.6040550000000  0.4422870000000 1.0
C      1  0.3833530000000  0.5915130000000  0.4232200000000 1.0
C      1  0.4963900000000  0.5089730000000  0.4955400000000 1.0
C      1  0.4855010000000  0.4835550000000  0.4957100000000 1.0
C      1  0.5220970000000  0.5107460000000  0.5060890000000 1.0
C      1  0.4471590000000  0.4881360000000  0.5141330000000 1.0
C      1  0.5397340000000  0.4547650000000  0.5085350000000 1.0
C      1  0.4465180000000  0.5744440000000  0.5071810000000 1.0
C      1  0.4278340000000  0.6335030000000  0.4651200000000 1.0
C      1  0.4131260000000  0.4200130000000  0.5286830000000 1.0
C      1  0.6165830000000  0.4448510000000  0.5166480000000 1.0
C      1  0.4601940000000  0.5523600000000  0.4443720000000 1.0
C      1  0.4678400000000  0.4347910000000  0.4514770000000 1.0
C      1  0.5728830000000  0.5033130000000  0.4541680000000 1.0
C      1  0.5151590000000  0.5401540000000  0.5738810000000 1.0
C      1  0.4938680000000  0.5330860000000  0.5910970000000 1.0
C      1  0.5358670000000  0.5212680000000  0.5728450000000 1.0
C      1  0.4739270000000  0.5171440000000  0.5826730000000 1.0
C      1  0.5340820000000  0.4957340000000  0.5651080000000 1.0
C      1  0.5069580000000  0.5525450000000  0.5500170000000 1.0
C      1  0.5279460000000  0.5464680000000  0.4639120000000 1.0
C      1  0.4336360000000  0.4969780000000  0.4901080000000 1.0
C      1  0.5347560000000  0.4381640000000  0.4853070000000 1.0
C      1  0.4087810000000  0.5362710000000  0.4754760000000 1.0
C      1  0.5134170000000  0.3953540000000  0.4731610000000 1.0
C      1  0.5754740000000  0.5606300000000  0.4771050000000 1.0
C      1  0.5015650000000  0.4401510000000  0.5878260000000 1.0
C      1  0.6024470000000  0.4976750000000  0.5933830000000 1.0
C      1  0.4290500000000  0.5419280000000  0.5951760000000 1.0
C      1  0.5507480000000  0.4438340000000  0.4255240000000 1.0
C      1  0.5250670000000  0.5805430000000  0.4242160000000 1.0
C      1  0.4201920000000  0.4760230000000  0.4313740000000 1.0
C      1  0.5216190000000  0.3690780000000  0.4264130000000 1.0
C      1  0.6053770000000  0.5864930000000  0.4466220000000 1.0
C      1  0.3917170000000  0.5728670000000  0.4394010000000 1.0
C      1  0.4968430000000  0.4858980000000  0.4356890000000 1.0
C      1  0.5399900000000  0.4935820000000  0.4174710000000 1.0
C      1  0.5183290000000  0.5294110000000  0.4417180000000 1.0
C      1  0.4789900000000  0.5054090000000  0.3953540000000 1.0
C      1  0.5624590000000  0.4895630000000  0.3700580000000 1.0
C      1  0.4911980000000  0.5295090000000  0.3971710000000 1.0
C      1  0.4831040000000  0.4581610000000  0.4898250000000 1.0
C      1  0.5471490000000  0.5039140000000  0.4992930000000 1.0
C      1  0.4819000000000  0.5284190000000  0.4817930000000 1.0
C      1  0.5786330000000  0.4226620000000  0.4917170000000 1.0
C      1  0.5099380000000  0.5859190000000  0.4929400000000 1.0
C      1  0.4024840000000  0.4621610000000  0.5024890000000 1.0
C      1  0.5218560000000  0.4776600000000  0.5498990000000 1.0
C      1  0.4870300000000  0.5528350000000  0.5321990000000 1.0
C      1  0.4642940000000  0.5090450000000  0.5591680000000 1.0
C      1  0.4414080000000  0.6100560000000  0.4681800000000 1.0
C      1  0.4241160000000  0.4410740000000  0.5101690000000 1.0
C      1  0.5912580000000  0.4495780000000  0.5012130000000 1.0
C      1  0.5102730000000  0.4028260000000  0.5431700000000 1.0
C      1  0.5997400000000  0.5340060000000  0.5465410000000 1.0
C      1  0.4007010000000  0.5282520000000  0.5459390000000 1.0
C      1  0.4875620000000  0.4373170000000  0.4722120000000 1.0
C      1  0.5608340000000  0.5148980000000  0.4777590000000 1.0
C      1  0.4585610000000  0.5354660000000  0.4678970000000 1.0
C      1  0.4490890000000  0.5814830000000  0.5688770000000 1.0
C      1  0.4545140000000  0.4493680000000  0.5698510000000 1.0
C      1  0.5826180000000  0.4616930000000  0.5645000000000 1.0
C      1  0.4302020000000  0.5607770000000  0.5732850000000 1.0
C      1  0.4790020000000  0.4346630000000  0.5705830000000 1.0
C      1  0.5933980000000  0.4873710000000  0.5680970000000 1.0
C      1  0.5789220000000  0.4747910000000  0.4566280000000 1.0
C      1  0.4746830000000  0.5776810000000  0.4427460000000 1.0
C      1  0.4411360000000  0.4402750000000  0.4605930000000 1.0
C      1  0.5112990000000  0.3836540000000  0.5231150000000 1.0
C      1  0.5966210000000  0.5510280000000  0.5246800000000 1.0
C      1  0.3869990000000  0.5264870000000  0.5218170000000 1.0
C      1  0.5941030000000  0.5060880000000  0.5464220000000 1.0
C      1  0.4120460000000  0.5534320000000  0.5528020000000 1.0
C      1  0.4854790000000  0.4145720000000  0.5513300000000 1.0
C      1  0.5644360000000  0.4503700000000  0.4491640000000 1.0
C      1  0.5035380000000  0.5802280000000  0.4438740000000 1.0
C      1  0.4243820000000  0.4633380000000  0.4558990000000 1.0
C      1  0.4577520000000  0.5055120000000  0.5336040000000 1.0
C      1  0.5207580000000  0.4632140000000  0.5274720000000 1.0
C      1  0.4642060000000  0.5589270000000  0.5197220000000 1.0
C      1  0.6089130000000  0.5253670000000  0.5934030000000 1.0
C      1  0.4186220000000  0.5159920000000  0.5881060000000 1.0
C      1  0.5265060000000  0.4288680000000  0.5790930000000 1.0
C      1  0.5489910000000  0.5674430000000  0.4197170000000 1.0
C      1  0.4209410000000  0.4983320000000  0.4167810000000 1.0
C      1  0.5281420000000  0.4358160000000  0.4136040000000 1.0
C      1  0.4154170000000  0.4766870000000  0.4802280000000 1.0
C      1  0.5593790000000  0.4323310000000  0.4715900000000 1.0
C      1  0.5140400000000  0.5711090000000  0.4692310000000 1.0
C      1  0.4295860000000  0.5233510000000  0.4133790000000 1.0
C      1  0.5018660000000  0.4307030000000  0.4131140000000 1.0
C      1  0.5717850000000  0.5530040000000  0.4305230000000 1.0
C      1  0.5120080000000  0.3803990000000  0.4967500000000 1.0
C      1  0.5888560000000  0.5619710000000  0.5016270000000 1.0
C      1  0.3902150000000  0.5310580000000  0.4958370000000 1.0
C      1  0.4847190000000  0.6035970000000  0.5363180000000 1.0
C      1  0.4105720000000  0.4794360000000  0.5525020000000 1.0
C      1  0.5589330000000  0.4190960000000  0.5416800000000 1.0
C      1  0.4977190000000  0.4709860000000  0.6317670000000 1.0
C      1  0.6062840000000  0.4666140000000  0.6372010000000 1.0
C      1  0.4442280000000  0.5547800000000  0.6452000000000 1.0
C      1  0.5054830000000  0.5394040000000  0.4178500000000 1.0
C      1  0.4797020000000  0.4863950000000  0.4146520000000 1.0
C      1  0.5515720000000  0.4912740000000  0.3936790000000 1.0
C      1  0.4341340000000  0.5229420000000  0.4772560000000 1.0
C      1  0.5119010000000  0.4236650000000  0.4760480000000 1.0
C      1  0.5537510000000  0.5423380000000  0.4749550000000 1.0
C      1  0.6046880000000  0.4818680000000  0.6161310000000 1.0
C      1  0.4362270000000  0.5485650000000  0.6211900000000 1.0
C      1  0.4994390000000  0.4553000000000  0.6110280000000 1.0
C      1  0.5674270000000  0.4578420000000  0.5187670000000 1.0
C      1  0.4384940000000  0.5940380000000  0.4910690000000 1.0
C      1  0.4425840000000  0.4609990000000  0.5248280000000 1.0
C      1  0.4996730000000  0.5991720000000  0.5141450000000 1.0
C      1  0.3943800000000  0.4734280000000  0.5283930000000 1.0
C      1  0.5687200000000  0.4080050000000  0.5158330000000 1.0
C      1  0.4591370000000  0.6004470000000  0.4485910000000 1.0
C      1  0.4350560000000  0.4284880000000  0.4857270000000 1.0
C      1  0.5958740000000  0.4685820000000  0.4787940000000 1.0
C      1  0.4356200000000  0.4626610000000  0.5533890000000 1.0
C      1  0.5699430000000  0.4460470000000  0.5452980000000 1.0
C      1  0.4670240000000  0.5968730000000  0.5557230000000 1.0
C      1  0.5170450000000  0.3829310000000  0.4485300000000 1.0
C      1  0.5854300000000  0.5678710000000  0.4514470000000 1.0
C      1  0.4017880000000  0.5543510000000  0.4554690000000 1.0
C      1  0.6078790000000  0.5425360000000  0.5723840000000 1.0
C      1  0.4082970000000  0.5062370000000  0.5632820000000 1.0
C      1  0.5337620000000  0.4143490000000  0.5553530000000 1.0
C      1  0.4782250000000  0.4300170000000  0.4258490000000 1.0
C      1  0.5760130000000  0.5238840000000  0.4332350000000 1.0
C      1  0.4446560000000  0.5434490000000  0.4225350000000 1.0
C      1  0.5209540000000  0.5008540000000  0.4370100000000 1.0
END
