TITL C-3623286-7563-1402 4.26141534097354e-07 125000 -540.895656721724 0 0 88 (C2) n - 1
REM
REM in /home/nfs/bkarasulu/CARBON/AIRSS/Generating-Clusters/LCBOP/Higher-Symm/SD-CG/FIRE-CG
REM
REM
REM
REM
REM
REM ./C.cell (b20cbc046b6831c77cfcea5457e17084)
REM AIRSS Version 0.9.1 bugfix July 2018 build 013d7b7c2542+ Fri, 06 Jul 2018 19:26:36 +0100
REM compiler GCC version 9.2.1 20190827 (Red Hat 9.2.1-1)
REM options -cpp -mtune=generic -march=x86-64 -g -O0 -fpre-include=/usr/include/finclude/math-vector-fortran.h
REM seed -1025361950 -1565849035 2070713299 268217167 -421812273 -1008298914 2128841982 1675379124 -510275954 -1168544021 -1607090817 -123951368 347746891 -300006575 455139010 -1762761603 770515832 1461044072 35061706 -568461429 1388448822 818136446 -865765606 -294065433 1172053617 776287764 392648612 1789828830 -1831671883 1112834480 -217649459 -1346080745 -1970602891
REM
CELL 1.54180   50.00000   50.00000   50.00000   90.00000   90.00000   90.00000
LATT -1
SFAC C  
C      1  0.4854980000000  0.5376770000000  0.4311600000000 1.0
C      1  0.5144990000000  0.4623290000000  0.4311560000000 1.0
C      1  0.5144690000000  0.5377750000000  0.4311800000000 1.0
C      1  0.4855290000000  0.4622310000000  0.4311770000000 1.0
C      1  0.5569510000000  0.5304870000000  0.4920510000000 1.0
C      1  0.4430490000000  0.4695140000000  0.4920510000000 1.0
C      1  0.4434200000000  0.5310380000000  0.4921130000000 1.0
C      1  0.5565800000000  0.4689630000000  0.4921080000000 1.0
C      1  0.4483920000000  0.5377350000000  0.5451870000000 1.0
C      1  0.5516090000000  0.4622610000000  0.5451820000000 1.0
C      1  0.5525670000000  0.5372620000000  0.5447570000000 1.0
C      1  0.4474340000000  0.4627340000000  0.5447550000000 1.0
C      1  0.5741240000000  0.5394060000000  0.4346180000000 1.0
C      1  0.4258730000000  0.4606000000000  0.4346170000000 1.0
C      1  0.4257780000000  0.5389310000000  0.4342700000000 1.0
C      1  0.5742190000000  0.4610750000000  0.4342640000000 1.0
C      1  0.5240330000000  0.4857140000000  0.4462640000000 1.0
C      1  0.4759650000000  0.5142910000000  0.4462660000000 1.0
C      1  0.4758770000000  0.4856560000000  0.4461440000000 1.0
C      1  0.5241210000000  0.5143490000000  0.4461450000000 1.0
C      1  0.4715430000000  0.5611960000000  0.4417800000000 1.0
C      1  0.5284540000000  0.4388090000000  0.4417740000000 1.0
C      1  0.5282180000000  0.5613160000000  0.4421930000000 1.0
C      1  0.4717800000000  0.4386890000000  0.4421880000000 1.0
C      1  0.4865130000000  0.5637640000000  0.5579960000000 1.0
C      1  0.5134890000000  0.4362300000000  0.5579900000000 1.0
C      1  0.5139270000000  0.5589730000000  0.5601440000000 1.0
C      1  0.4860750000000  0.4410210000000  0.5601390000000 1.0
C      1  0.4101970000000  0.5149900000000  0.5234340000000 1.0
C      1  0.5898040000000  0.4850080000000  0.5234290000000 1.0
C      1  0.5900750000000  0.5136140000000  0.5232410000000 1.0
C      1  0.4099260000000  0.4863840000000  0.5232430000000 1.0
C      1  0.4735940000000  0.5115140000000  0.5946260000000 1.0
C      1  0.5264100000000  0.4884770000000  0.5946240000000 1.0
C      1  0.5268600000000  0.5160190000000  0.5941420000000 1.0
C      1  0.4731430000000  0.4839720000000  0.5941420000000 1.0
C      1  0.4849440000000  0.5745690000000  0.4643660000000 1.0
C      1  0.5150550000000  0.4254340000000  0.4643590000000 1.0
C      1  0.5145020000000  0.5744870000000  0.4647490000000 1.0
C      1  0.4854970000000  0.4255170000000  0.4647430000000 1.0
C      1  0.5362110000000  0.4373320000000  0.5410180000000 1.0
C      1  0.4637900000000  0.5626650000000  0.5410250000000 1.0
C      1  0.4633780000000  0.4375380000000  0.5417250000000 1.0
C      1  0.5366240000000  0.5624580000000  0.5417300000000 1.0
C      1  0.5141380000000  0.4778770000000  0.4730970000000 1.0
C      1  0.4858610000000  0.5221260000000  0.4730990000000 1.0
C      1  0.4856520000000  0.4778730000000  0.4730230000000 1.0
C      1  0.5143470000000  0.5221300000000  0.4730240000000 1.0
C      1  0.4646230000000  0.5758760000000  0.5154980000000 1.0
C      1  0.5353770000000  0.4241220000000  0.5154900000000 1.0
C      1  0.5340200000000  0.5759100000000  0.5165010000000 1.0
C      1  0.4659810000000  0.4240890000000  0.5164960000000 1.0
C      1  0.4184120000000  0.4863270000000  0.4325430000000 1.0
C      1  0.5815860000000  0.5136790000000  0.4325410000000 1.0
C      1  0.5816070000000  0.4868410000000  0.4324410000000 1.0
C      1  0.4183910000000  0.5131650000000  0.4324450000000 1.0
C      1  0.5294820000000  0.5262160000000  0.4958550000000 1.0
C      1  0.4705180000000  0.4737840000000  0.4958530000000 1.0
C      1  0.4707920000000  0.5262830000000  0.4960070000000 1.0
C      1  0.5292080000000  0.4737170000000  0.4960030000000 1.0
C      1  0.5825240000000  0.5253920000000  0.4985230000000 1.0
C      1  0.4174760000000  0.4746080000000  0.4985230000000 1.0
C      1  0.4177470000000  0.5268290000000  0.4987680000000 1.0
C      1  0.5822530000000  0.4731710000000  0.4987630000000 1.0
C      1  0.4716970000000  0.5795720000000  0.4895010000000 1.0
C      1  0.5283030000000  0.4204290000000  0.4894920000000 1.0
C      1  0.5271820000000  0.5792780000000  0.4903260000000 1.0
C      1  0.4728170000000  0.4207230000000  0.4903190000000 1.0
C      1  0.4704930000000  0.4840900000000  0.5458870000000 1.0
C      1  0.5295080000000  0.5159060000000  0.5458880000000 1.0
C      1  0.5293880000000  0.4842390000000  0.5462040000000 1.0
C      1  0.4706140000000  0.5157570000000  0.5462070000000 1.0
C      1  0.5783820000000  0.4707010000000  0.5450700000000 1.0
C      1  0.4216200000000  0.5292950000000  0.5450750000000 1.0
C      1  0.4209020000000  0.4716550000000  0.5447960000000 1.0
C      1  0.5791000000000  0.5283410000000  0.5447960000000 1.0
C      1  0.5155850000000  0.4749450000000  0.5712540000000 1.0
C      1  0.4844170000000  0.5250480000000  0.5712570000000 1.0
C      1  0.4860530000000  0.4709750000000  0.5704650000000 1.0
C      1  0.5139500000000  0.5290190000000  0.5704670000000 1.0
C      1  0.5565220000000  0.4410330000000  0.4380680000000 1.0
C      1  0.4434760000000  0.5589730000000  0.4380760000000 1.0
C      1  0.4436760000000  0.4406890000000  0.4386250000000 1.0
C      1  0.5563220000000  0.5593170000000  0.4386280000000 1.0
C      1  0.5143070000000  0.4769480000000  0.5203390000000 1.0
C      1  0.4856930000000  0.5230500000000  0.5203420000000 1.0
C      1  0.4854590000000  0.4768760000000  0.5200800000000 1.0
C      1  0.5145420000000  0.5231220000000  0.5200810000000 1.0
END
