TITL C-3623287-7182-88 2.88407072556237e-07 125000 -826.436049869311 0 0 138 (C1) n - 1
REM
REM in /home/nfs/bkarasulu/CARBON/AIRSS/Generating-Clusters/LCBOP/Higher-Symm/SD-CG/FIRE-CG
REM
REM
REM
REM
REM
REM ./C.cell (b20cbc046b6831c77cfcea5457e17084)
REM AIRSS Version 0.9.1 bugfix July 2018 build 013d7b7c2542+ Fri, 06 Jul 2018 19:26:36 +0100
REM compiler GCC version 9.2.1 20190827 (Red Hat 9.2.1-1)
REM options -cpp -mtune=generic -march=x86-64 -g -O0 -fpre-include=/usr/include/finclude/math-vector-fortran.h
REM seed -613978905 -23712030 1641832867 941867384 1980953979 -1161562683 -572472370 1385753248 1961866090 1515787101 1886239086 2094608618 1819765651 -54161576 -2139554762 -1432638772 957476525 -802717712 460997520 -547915455 -2071710311 1873989313 605493691 287388129 -358393665 2093914722 -1377870264 450398262 -2115752766 -460115224 -1766666508 1588055418 -1889547638
REM
CELL 1.54180   50.00000   50.00000   50.00000   90.00000   90.00000   90.00000
LATT -1
SFAC C  
C      1  0.5507830000000  0.4210660000000  0.5280670000000 1.0
C      1  0.4159090000000  0.4465830000000  0.5309890000000 1.0
C      1  0.4511300000000  0.5757090000000  0.5289120000000 1.0
C      1  0.5807230000000  0.5519620000000  0.5309750000000 1.0
C      1  0.5508010000000  0.4210870000000  0.4731740000000 1.0
C      1  0.4160360000000  0.4465830000000  0.4701060000000 1.0
C      1  0.4511270000000  0.5757420000000  0.4721190000000 1.0
C      1  0.5806870000000  0.5518780000000  0.4700220000000 1.0
C      1  0.5713620000000  0.4664010000000  0.5789700000000 1.0
C      1  0.4652060000000  0.4339160000000  0.5778100000000 1.0
C      1  0.4333160000000  0.5409910000000  0.5785090000000 1.0
C      1  0.5369080000000  0.5700580000000  0.5767440000000 1.0
C      1  0.5709110000000  0.4663940000000  0.4219200000000 1.0
C      1  0.4657080000000  0.4340430000000  0.4232510000000 1.0
C      1  0.4330630000000  0.5410260000000  0.4227580000000 1.0
C      1  0.5373760000000  0.5699290000000  0.4244330000000 1.0
C      1  0.4387940000000  0.5230940000000  0.4844870000000 1.0
C      1  0.5284730000000  0.5667150000000  0.4846330000000 1.0
C      1  0.5661860000000  0.4742380000000  0.4849550000000 1.0
C      1  0.4724350000000  0.4341130000000  0.4842030000000 1.0
C      1  0.4387730000000  0.5230800000000  0.5166610000000 1.0
C      1  0.5284850000000  0.5667490000000  0.5163920000000 1.0
C      1  0.5662380000000  0.4742560000000  0.5162400000000 1.0
C      1  0.4723800000000  0.4340940000000  0.5170170000000 1.0
C      1  0.5439290000000  0.4646720000000  0.4108250000000 1.0
C      1  0.4641510000000  0.4610590000000  0.4113870000000 1.0
C      1  0.4595160000000  0.5439230000000  0.4093940000000 1.0
C      1  0.5372840000000  0.5430560000000  0.4130870000000 1.0
C      1  0.5443850000000  0.4648510000000  0.5899950000000 1.0
C      1  0.4634750000000  0.4608690000000  0.5897300000000 1.0
C      1  0.4598730000000  0.5439610000000  0.5917720000000 1.0
C      1  0.5365850000000  0.5431670000000  0.5880760000000 1.0
C      1  0.5208970000000  0.4594180000000  0.5154150000000 1.0
C      1  0.4475080000000  0.4726320000000  0.5138040000000 1.0
C      1  0.4825390000000  0.5431460000000  0.5142430000000 1.0
C      1  0.5469260000000  0.5247260000000  0.5141310000000 1.0
C      1  0.5209110000000  0.4593060000000  0.4860960000000 1.0
C      1  0.4476030000000  0.4726410000000  0.4873580000000 1.0
C      1  0.4825290000000  0.5431590000000  0.4867270000000 1.0
C      1  0.5470060000000  0.5247140000000  0.4871770000000 1.0
C      1  0.4503610000000  0.4827130000000  0.5751050000000 1.0
C      1  0.4822110000000  0.5488830000000  0.5724570000000 1.0
C      1  0.5415660000000  0.5206240000000  0.5701690000000 1.0
C      1  0.5244930000000  0.4547410000000  0.5712070000000 1.0
C      1  0.4505680000000  0.4826320000000  0.4259850000000 1.0
C      1  0.4821020000000  0.5489700000000  0.4284720000000 1.0
C      1  0.5414500000000  0.5204250000000  0.4310120000000 1.0
C      1  0.5241350000000  0.4545740000000  0.4296920000000 1.0
C      1  0.5524930000000  0.5506360000000  0.4760980000000 1.0
C      1  0.5492820000000  0.4494930000000  0.4776680000000 1.0
C      1  0.4450790000000  0.4465150000000  0.4758600000000 1.0
C      1  0.4556450000000  0.5472180000000  0.4768190000000 1.0
C      1  0.5524820000000  0.5507030000000  0.5250900000000 1.0
C      1  0.5493360000000  0.4494940000000  0.5236350000000 1.0
C      1  0.4449660000000  0.4464990000000  0.5252830000000 1.0
C      1  0.4556740000000  0.5471910000000  0.5242150000000 1.0
C      1  0.4790170000000  0.4965100000000  0.4689570000000 1.0
C      1  0.4994940000000  0.5029310000000  0.4870030000000 1.0
C      1  0.5224620000000  0.4885610000000  0.4777380000000 1.0
C      1  0.4891130000000  0.4737160000000  0.4548930000000 1.0
C      1  0.4787800000000  0.4964090000000  0.5325190000000 1.0
C      1  0.4995540000000  0.5029110000000  0.5148930000000 1.0
C      1  0.5225390000000  0.4885130000000  0.5242290000000 1.0
C      1  0.4887910000000  0.4735750000000  0.5466540000000 1.0
C      1  0.5304940000000  0.4820110000000  0.3912160000000 1.0
C      1  0.4821900000000  0.4746370000000  0.3922650000000 1.0
C      1  0.4725990000000  0.5255020000000  0.3882780000000 1.0
C      1  0.5227040000000  0.5320400000000  0.3906050000000 1.0
C      1  0.5312740000000  0.4823250000000  0.6096340000000 1.0
C      1  0.4811830000000  0.4743750000000  0.6091230000000 1.0
C      1  0.4734700000000  0.5256900000000  0.6127430000000 1.0
C      1  0.5213600000000  0.5321820000000  0.6101510000000 1.0
C      1  0.5104760000000  0.4792720000000  0.5640040000000 1.0
C      1  0.4687740000000  0.5044900000000  0.5749790000000 1.0
C      1  0.4913060000000  0.5214550000000  0.5694810000000 1.0
C      1  0.5158160000000  0.5069690000000  0.5673760000000 1.0
C      1  0.5099440000000  0.4791010000000  0.4364480000000 1.0
C      1  0.4687070000000  0.5046440000000  0.4263000000000 1.0
C      1  0.4912940000000  0.5215690000000  0.4315240000000 1.0
C      1  0.5157070000000  0.5068920000000  0.4335400000000 1.0
C      1  0.5248940000000  0.4110230000000  0.4654200000000 1.0
C      1  0.4093060000000  0.4747830000000  0.4632450000000 1.0
C      1  0.4764640000000  0.5885190000000  0.4647820000000 1.0
C      1  0.5874810000000  0.5245080000000  0.4619960000000 1.0
C      1  0.5248620000000  0.4110010000000  0.5358060000000 1.0
C      1  0.4091560000000  0.4747800000000  0.5378560000000 1.0
C      1  0.4764650000000  0.5884870000000  0.5362240000000 1.0
C      1  0.5876240000000  0.5246150000000  0.5390200000000 1.0
C      1  0.4694200000000  0.4134060000000  0.5591420000000 1.0
C      1  0.4156950000000  0.5341220000000  0.5578190000000 1.0
C      1  0.5328030000000  0.5897470000000  0.5575490000000 1.0
C      1  0.5894850000000  0.4703530000000  0.5584360000000 1.0
C      1  0.4696790000000  0.4135310000000  0.4419710000000 1.0
C      1  0.4154930000000  0.5340900000000  0.4434170000000 1.0
C      1  0.5330290000000  0.5896610000000  0.4435340000000 1.0
C      1  0.5890400000000  0.4703110000000  0.4424950000000 1.0
C      1  0.5496150000000  0.4990410000000  0.4731620000000 1.0
C      1  0.4967940000000  0.4492710000000  0.4705880000000 1.0
C      1  0.4500400000000  0.4969890000000  0.4718160000000 1.0
C      1  0.5040160000000  0.5527410000000  0.4714490000000 1.0
C      1  0.5497120000000  0.4990680000000  0.5282170000000 1.0
C      1  0.4966830000000  0.4492160000000  0.5308040000000 1.0
C      1  0.4498920000000  0.4969740000000  0.5293590000000 1.0
C      1  0.5040280000000  0.5527390000000  0.5295000000000 1.0
C      1  0.5632200000000  0.5113890000000  0.5530850000000 1.0
C      1  0.5136830000000  0.4330550000000  0.5530640000000 1.0
C      1  0.4323370000000  0.4865850000000  0.5533710000000 1.0
C      1  0.4903800000000  0.5666580000000  0.5519300000000 1.0
C      1  0.5629500000000  0.5112240000000  0.4481890000000 1.0
C      1  0.5137140000000  0.4331560000000  0.4482690000000 1.0
C      1  0.4325450000000  0.4865720000000  0.4477620000000 1.0
C      1  0.4903560000000  0.5667160000000  0.4490260000000 1.0
C      1  0.5924290000000  0.4786440000000  0.5305560000000 1.0
C      1  0.4772770000000  0.4070210000000  0.5307170000000 1.0
C      1  0.4112170000000  0.5230080000000  0.5303520000000 1.0
C      1  0.5241560000000  0.5941360000000  0.5295020000000 1.0
C      1  0.5922500000000  0.4785720000000  0.4704070000000 1.0
C      1  0.4773660000000  0.4070810000000  0.4704350000000 1.0
C      1  0.4112490000000  0.5229490000000  0.4708200000000 1.0
C      1  0.5242060000000  0.5941110000000  0.4715250000000 1.0
C      1  0.5039800000000  0.3993720000000  0.5168670000000 1.0
C      1  0.3994210000000  0.4966030000000  0.5173150000000 1.0
C      1  0.4965490000000  0.6014500000000  0.5166660000000 1.0
C      1  0.6002430000000  0.5051960000000  0.5183150000000 1.0
C      1  0.5040150000000  0.3993770000000  0.4843340000000 1.0
C      1  0.3994960000000  0.4965710000000  0.4838080000000 1.0
C      1  0.4965750000000  0.6014530000000  0.4843310000000 1.0
C      1  0.6002020000000  0.5051320000000  0.4825960000000 1.0
C      1  0.5970160000000  0.5673650000000  0.5139990000000 1.0
C      1  0.5696020000000  0.4056090000000  0.5141430000000 1.0
C      1  0.3994520000000  0.4311780000000  0.5140550000000 1.0
C      1  0.4314220000000  0.5891170000000  0.5140470000000 1.0
C      1  0.5970340000000  0.5673100000000  0.4869180000000 1.0
C      1  0.5696170000000  0.4056270000000  0.4870950000000 1.0
C      1  0.3995240000000  0.4311710000000  0.4869770000000 1.0
C      1  0.4314270000000  0.5891450000000  0.4870020000000 1.0
C      1  0.5020520000000  0.5021220000000  0.6133620000000 1.0
C      1  0.5017000000000  0.5044220000000  0.3875180000000 1.0
END
