TITL C-3623287-7182-1978 -139385.852581158 125000 -700.933130764823 0 0 118 (C1) n - 1
REM
REM in /home/nfs/bkarasulu/CARBON/AIRSS/Generating-Clusters/LCBOP/Higher-Symm/SD-CG/FIRE-CG
REM
REM
REM
REM
REM
REM ./C.cell (b20cbc046b6831c77cfcea5457e17084)
REM AIRSS Version 0.9.1 bugfix July 2018 build 013d7b7c2542+ Fri, 06 Jul 2018 19:26:36 +0100
REM compiler GCC version 9.2.1 20190827 (Red Hat 9.2.1-1)
REM options -cpp -mtune=generic -march=x86-64 -g -O0 -fpre-include=/usr/include/finclude/math-vector-fortran.h
REM seed -1608614003 -717969367 -826688413 -839874730 -1475353637 663336079 1498915638 538859668 168285227 1117539564 -713575533 1273916808 1548113946 -677372535 519836427 -2060995846 -11784101 1957632987 987522258 820351355 -947475845 -1607749428 720889309 -569138077 1943711956 -1625550368 1920861383 599619531 -268046895 842171014 -38124264 549553890 1411781663
REM
CELL 1.54180   50.00000   50.00000   50.00000   90.00000   90.00000   90.00000
LATT -1
SFAC C  
C      1  0.5024790000000  0.4542180000000  0.4662260000000 1.0
C      1  0.5329930000000  0.5258650000000  0.4759890000000 1.0
C      1  0.4593700000000  0.5122990000000  0.4728760000000 1.0
C      1  0.5847340000000  0.4819030000000  0.4644480000000 1.0
C      1  0.4796480000000  0.5839380000000  0.4736830000000 1.0
C      1  0.4396320000000  0.4380330000000  0.4735840000000 1.0
C      1  0.4869080000000  0.5772740000000  0.5626360000000 1.0
C      1  0.4387480000000  0.4448360000000  0.5548910000000 1.0
C      1  0.5732300000000  0.4687830000000  0.5565640000000 1.0
C      1  0.5831820000000  0.4324290000000  0.4787430000000 1.0
C      1  0.5323720000000  0.5946040000000  0.4831450000000 1.0
C      1  0.4058120000000  0.4869870000000  0.4895260000000 1.0
C      1  0.5324470000000  0.4993410000000  0.6010410000000 1.0
C      1  0.4728780000000  0.5285680000000  0.5975130000000 1.0
C      1  0.4806920000000  0.4640210000000  0.5931830000000 1.0
C      1  0.5056580000000  0.5351800000000  0.4822550000000 1.0
C      1  0.4648550000000  0.4842620000000  0.4783240000000 1.0
C      1  0.5217110000000  0.4722090000000  0.4781560000000 1.0
C      1  0.5551050000000  0.5435300000000  0.4671950000000 1.0
C      1  0.4352080000000  0.5237050000000  0.4617440000000 1.0
C      1  0.5125400000000  0.4265320000000  0.4658660000000 1.0
C      1  0.4703340000000  0.4019650000000  0.4611040000000 1.0
C      1  0.5952370000000  0.5244420000000  0.4477390000000 1.0
C      1  0.4362970000000  0.5747540000000  0.4547500000000 1.0
C      1  0.4569440000000  0.4790990000000  0.5895350000000 1.0
C      1  0.5331290000000  0.4718320000000  0.5929990000000 1.0
C      1  0.4980540000000  0.5416790000000  0.5995210000000 1.0
C      1  0.4587370000000  0.5721440000000  0.5559490000000 1.0
C      1  0.4607440000000  0.4237960000000  0.5546070000000 1.0
C      1  0.5824040000000  0.4976940000000  0.5528870000000 1.0
C      1  0.4315300000000  0.4470390000000  0.5262240000000 1.0
C      1  0.5724270000000  0.4546710000000  0.5309640000000 1.0
C      1  0.5017130000000  0.5851220000000  0.5397550000000 1.0
C      1  0.5618490000000  0.4146540000000  0.4801300000000 1.0
C      1  0.5551130000000  0.5926460000000  0.4652600000000 1.0
C      1  0.3938560000000  0.5031660000000  0.4701640000000 1.0
C      1  0.4510980000000  0.4540190000000  0.4122080000000 1.0
C      1  0.5462260000000  0.4775930000000  0.4128930000000 1.0
C      1  0.4884660000000  0.5500550000000  0.4143400000000 1.0
C      1  0.5203480000000  0.4892320000000  0.4143710000000 1.0
C      1  0.4750180000000  0.5243260000000  0.4161110000000 1.0
C      1  0.4976570000000  0.4720700000000  0.4140200000000 1.0
C      1  0.5398640000000  0.4503300000000  0.4218990000000 1.0
C      1  0.5172570000000  0.5509510000000  0.4212680000000 1.0
C      1  0.4403810000000  0.4801640000000  0.4181730000000 1.0
C      1  0.5062320000000  0.4638220000000  0.5816960000000 1.0
C      1  0.5195900000000  0.5230730000000  0.5922510000000 1.0
C      1  0.4627890000000  0.5075690000000  0.5817240000000 1.0
C      1  0.5626010000000  0.5010180000000  0.4203400000000 1.0
C      1  0.4738070000000  0.5724050000000  0.4248020000000 1.0
C      1  0.4682870000000  0.4359830000000  0.4266860000000 1.0
C      1  0.4351070000000  0.5431300000000  0.5274800000000 1.0
C      1  0.4980210000000  0.4221250000000  0.5255210000000 1.0
C      1  0.5733270000000  0.5445320000000  0.5292620000000 1.0
C      1  0.4821450000000  0.4692970000000  0.5212340000000 1.0
C      1  0.5401730000000  0.5025230000000  0.5304090000000 1.0
C      1  0.4850640000000  0.5338730000000  0.5252410000000 1.0
C      1  0.4247600000000  0.4804720000000  0.4424820000000 1.0
C      1  0.5535480000000  0.4429330000000  0.4452700000000 1.0
C      1  0.5217620000000  0.5688440000000  0.4435720000000 1.0
C      1  0.5127920000000  0.5710640000000  0.5181780000000 1.0
C      1  0.4375500000000  0.4722830000000  0.5152180000000 1.0
C      1  0.5548370000000  0.4636260000000  0.5109010000000 1.0
C      1  0.4851630000000  0.4141570000000  0.5690750000000 1.0
C      1  0.5757610000000  0.5205730000000  0.5695630000000 1.0
C      1  0.4372940000000  0.5569180000000  0.5704910000000 1.0
C      1  0.5404780000000  0.4229990000000  0.4625670000000 1.0
C      1  0.5492990000000  0.5675410000000  0.4527470000000 1.0
C      1  0.4150790000000  0.5064740000000  0.4511130000000 1.0
C      1  0.4334880000000  0.4701690000000  0.5712900000000 1.0
C      1  0.5536100000000  0.4543820000000  0.5755540000000 1.0
C      1  0.5041570000000  0.5666470000000  0.5834450000000 1.0
C      1  0.5536170000000  0.4920100000000  0.5100980000000 1.0
C      1  0.4998630000000  0.5481000000000  0.5067270000000 1.0
C      1  0.4625540000000  0.4723560000000  0.5027780000000 1.0
C      1  0.5608020000000  0.5648890000000  0.5137130000000 1.0
C      1  0.4514080000000  0.5195360000000  0.5242670000000 1.0
C      1  0.5060190000000  0.4514260000000  0.5227710000000 1.0
C      1  0.4896740000000  0.5113890000000  0.4393120000000 1.0
C      1  0.4806860000000  0.4826780000000  0.4349460000000 1.0
C      1  0.5185140000000  0.5048270000000  0.4386300000000 1.0
C      1  0.4961670000000  0.4039220000000  0.4681350000000 1.0
C      1  0.5828450000000  0.5388690000000  0.4668580000000 1.0
C      1  0.4280920000000  0.5506460000000  0.4625780000000 1.0
C      1  0.4231690000000  0.5368620000000  0.5545100000000 1.0
C      1  0.5107870000000  0.4146950000000  0.5532570000000 1.0
C      1  0.5652090000000  0.5456000000000  0.5579700000000 1.0
C      1  0.4229330000000  0.4626410000000  0.4667510000000 1.0
C      1  0.5771650000000  0.4545160000000  0.4605400000000 1.0
C      1  0.5083490000000  0.5850050000000  0.4667600000000 1.0
C      1  0.5282190000000  0.4575910000000  0.5028020000000 1.0
C      1  0.5369900000000  0.5796220000000  0.5071250000000 1.0
C      1  0.4242860000000  0.4955280000000  0.5097680000000 1.0
C      1  0.4841770000000  0.5247650000000  0.4657070000000 1.0
C      1  0.4791430000000  0.4690910000000  0.4592610000000 1.0
C      1  0.5290970000000  0.4984480000000  0.4651420000000 1.0
C      1  0.5234260000000  0.5326120000000  0.5650740000000 1.0
C      1  0.4546250000000  0.5049860000000  0.5509130000000 1.0
C      1  0.5156200000000  0.4591730000000  0.5517070000000 1.0
C      1  0.4260430000000  0.4979300000000  0.5577970000000 1.0
C      1  0.5329180000000  0.4356810000000  0.5592160000000 1.0
C      1  0.5382940000000  0.5555990000000  0.5660660000000 1.0
C      1  0.5886460000000  0.5142070000000  0.5224570000000 1.0
C      1  0.4513460000000  0.5686450000000  0.5257310000000 1.0
C      1  0.4681780000000  0.4187270000000  0.5243810000000 1.0
C      1  0.5829520000000  0.4998130000000  0.4412030000000 1.0
C      1  0.4631080000000  0.5811690000000  0.4497700000000 1.0
C      1  0.4565640000000  0.4251120000000  0.4520830000000 1.0
C      1  0.5934350000000  0.4977810000000  0.4940770000000 1.0
C      1  0.4646360000000  0.5797380000000  0.5005610000000 1.0
C      1  0.4454230000000  0.4285910000000  0.5067460000000 1.0
C      1  0.5441420000000  0.5304420000000  0.4147320000000 1.0
C      1  0.4528180000000  0.5060420000000  0.4087750000000 1.0
C      1  0.5032820000000  0.4455130000000  0.4179350000000 1.0
C      1  0.5009060000000  0.5268760000000  0.5478180000000 1.0
C      1  0.4767510000000  0.4862080000000  0.5430770000000 1.0
C      1  0.5235460000000  0.4872050000000  0.5463620000000 1.0
C      1  0.4993010000000  0.4995390000000  0.5509270000000 1.0
END
