TITL C-3623289-7120-1394 -44.7836275599927 125000 -611.69744984888 0 0 98 (C1) n - 1
REM
REM in /home/nfs/bkarasulu/CARBON/AIRSS/Generating-Clusters/LCBOP/Higher-Symm/SD-CG/FIRE-CG
REM
REM
REM
REM
REM
REM ./C.cell (b20cbc046b6831c77cfcea5457e17084)
REM AIRSS Version 0.9.1 bugfix July 2018 build 013d7b7c2542+ Fri, 06 Jul 2018 19:26:36 +0100
REM compiler GCC version 9.2.1 20190827 (Red Hat 9.2.1-1)
REM options -cpp -mtune=generic -march=x86-64 -g -O0 -fpre-include=/usr/include/finclude/math-vector-fortran.h
REM seed 1028068033 -546948902 -364808586 -1025643235 -513378853 -962366693 229712536 -240950513 -1990449556 -1236525020 964794114 -396011317 -1477113027 1993564465 -1453328462 1371103123 1710710735 650323905 -277410286 -1380654673 1730080464 345457382 920948039 -1564160581 -1896589297 -667143842 824546881 -350294131 -1748269165 1231730858 1118323604 1614509714 1785939954
REM
CELL 1.54180   50.00000   50.00000   50.00000   90.00000   90.00000   90.00000
LATT -1
SFAC C  
C      1  0.4551650000000  0.4872150000000  0.5220840000000 1.0
C      1  0.5519820000000  0.5124020000000  0.5189380000000 1.0
C      1  0.4547530000000  0.4745220000000  0.4681150000000 1.0
C      1  0.5603480000000  0.5114610000000  0.4629310000000 1.0
C      1  0.4611430000000  0.5612960000000  0.5525750000000 1.0
C      1  0.5352590000000  0.4288060000000  0.5598570000000 1.0
C      1  0.4768160000000  0.5814940000000  0.4437890000000 1.0
C      1  0.5310550000000  0.4211430000000  0.4474530000000 1.0
C      1  0.4595620000000  0.5564550000000  0.4390490000000 1.0
C      1  0.5517700000000  0.4440130000000  0.4469160000000 1.0
C      1  0.4381340000000  0.5433080000000  0.5462810000000 1.0
C      1  0.5514310000000  0.4534120000000  0.5507690000000 1.0
C      1  0.4696380000000  0.4252110000000  0.5412860000000 1.0
C      1  0.5306630000000  0.5836490000000  0.5459040000000 1.0
C      1  0.4519420000000  0.4280060000000  0.4738030000000 1.0
C      1  0.5453010000000  0.5890280000000  0.4795430000000 1.0
C      1  0.5801900000000  0.4668900000000  0.5120290000000 1.0
C      1  0.4297900000000  0.5209440000000  0.4992280000000 1.0
C      1  0.5797650000000  0.4649780000000  0.4820550000000 1.0
C      1  0.4411550000000  0.5254550000000  0.4730230000000 1.0
C      1  0.4958670000000  0.5228890000000  0.5224080000000 1.0
C      1  0.5090320000000  0.4975850000000  0.5134480000000 1.0
C      1  0.4887410000000  0.5206400000000  0.4566560000000 1.0
C      1  0.5131250000000  0.5038750000000  0.4609220000000 1.0
C      1  0.4412130000000  0.4434630000000  0.4037350000000 1.0
C      1  0.5230390000000  0.5392940000000  0.3684770000000 1.0
C      1  0.4634990000000  0.4757480000000  0.6150060000000 1.0
C      1  0.5248150000000  0.5117310000000  0.6073400000000 1.0
C      1  0.5265870000000  0.5559900000000  0.5493220000000 1.0
C      1  0.4818000000000  0.4509260000000  0.5368040000000 1.0
C      1  0.5437270000000  0.5634780000000  0.4659810000000 1.0
C      1  0.4526040000000  0.4482130000000  0.4512680000000 1.0
C      1  0.4312840000000  0.5442980000000  0.5176230000000 1.0
C      1  0.5680410000000  0.4474470000000  0.5281040000000 1.0
C      1  0.4436790000000  0.5518870000000  0.4626100000000 1.0
C      1  0.5671230000000  0.4421990000000  0.4712950000000 1.0
C      1  0.4983180000000  0.5063280000000  0.5996620000000 1.0
C      1  0.4889820000000  0.4791980000000  0.6038620000000 1.0
C      1  0.5109450000000  0.5451180000000  0.3913170000000 1.0
C      1  0.4586930000000  0.4401430000000  0.4250490000000 1.0
C      1  0.4614500000000  0.5055110000000  0.4641890000000 1.0
C      1  0.5387040000000  0.4976780000000  0.4491340000000 1.0
C      1  0.4662590000000  0.5073930000000  0.5365820000000 1.0
C      1  0.5323670000000  0.4941220000000  0.5287830000000 1.0
C      1  0.5100540000000  0.5401630000000  0.5005620000000 1.0
C      1  0.5110650000000  0.4897990000000  0.4861800000000 1.0
C      1  0.4996300000000  0.5448360000000  0.4737990000000 1.0
C      1  0.5015670000000  0.4646390000000  0.4769300000000 1.0
C      1  0.4718350000000  0.5897740000000  0.4717140000000 1.0
C      1  0.5296030000000  0.4118010000000  0.4753580000000 1.0
C      1  0.4638940000000  0.5782320000000  0.5284860000000 1.0
C      1  0.5342760000000  0.4135790000000  0.5336670000000 1.0
C      1  0.5534050000000  0.5376730000000  0.4757410000000 1.0
C      1  0.4762910000000  0.4637430000000  0.4879310000000 1.0
C      1  0.5402450000000  0.5334010000000  0.5017390000000 1.0
C      1  0.4712350000000  0.4655590000000  0.5154850000000 1.0
C      1  0.5194690000000  0.6014010000000  0.4839240000000 1.0
C      1  0.4770860000000  0.4138440000000  0.4815830000000 1.0
C      1  0.5077730000000  0.5979810000000  0.5375330000000 1.0
C      1  0.4868230000000  0.4034460000000  0.5365590000000 1.0
C      1  0.5093470000000  0.4591850000000  0.4499700000000 1.0
C      1  0.5169610000000  0.5615140000000  0.4567640000000 1.0
C      1  0.5042680000000  0.4599370000000  0.5513970000000 1.0
C      1  0.5037260000000  0.5397470000000  0.5468040000000 1.0
C      1  0.4318730000000  0.4925940000000  0.5063290000000 1.0
C      1  0.5764110000000  0.5009000000000  0.5126000000000 1.0
C      1  0.4295040000000  0.4703570000000  0.4870440000000 1.0
C      1  0.5774290000000  0.4938180000000  0.4773450000000 1.0
C      1  0.4312000000000  0.4405790000000  0.4918450000000 1.0
C      1  0.5673150000000  0.5972480000000  0.4947120000000 1.0
C      1  0.4418450000000  0.4228340000000  0.5376890000000 1.0
C      1  0.5563300000000  0.5942860000000  0.5424310000000 1.0
C      1  0.4449400000000  0.5686820000000  0.5084800000000 1.0
C      1  0.5558380000000  0.4235630000000  0.5164030000000 1.0
C      1  0.4493420000000  0.5734500000000  0.4813020000000 1.0
C      1  0.5539300000000  0.4222110000000  0.4883820000000 1.0
C      1  0.5067330000000  0.4331940000000  0.4377170000000 1.0
C      1  0.5032710000000  0.5723630000000  0.4344110000000 1.0
C      1  0.5123460000000  0.4418800000000  0.5734910000000 1.0
C      1  0.4827350000000  0.5459150000000  0.5654180000000 1.0
C      1  0.4842390000000  0.4284420000000  0.4222500000000 1.0
C      1  0.4991520000000  0.5503780000000  0.4155880000000 1.0
C      1  0.5039110000000  0.4554230000000  0.5971110000000 1.0
C      1  0.4836810000000  0.5283360000000  0.5881760000000 1.0
C      1  0.4863350000000  0.5936650000000  0.5195990000000 1.0
C      1  0.5099050000000  0.4050810000000  0.5203000000000 1.0
C      1  0.4918670000000  0.5977010000000  0.4911470000000 1.0
C      1  0.5051440000000  0.4085390000000  0.4912830000000 1.0
C      1  0.5500970000000  0.5162790000000  0.6117240000000 1.0
C      1  0.4391790000000  0.4730850000000  0.6239800000000 1.0
C      1  0.5350040000000  0.5334900000000  0.3460540000000 1.0
C      1  0.4246460000000  0.4468600000000  0.3839070000000 1.0
C      1  0.4791440000000  0.5353620000000  0.4306190000000 1.0
C      1  0.5368710000000  0.4692200000000  0.4432960000000 1.0
C      1  0.4476730000000  0.5180890000000  0.5544860000000 1.0
C      1  0.5302230000000  0.4727200000000  0.5459240000000 1.0
C      1  0.4258850000000  0.4288050000000  0.5168600000000 1.0
C      1  0.5716930000000  0.5995540000000  0.5210820000000 1.0
END
