TITL C-3623285-6872-1325 -2.17525314312893e-07 125000 -689.601291562235 0 0 109 (C1) n - 1
REM
REM in /home/nfs/bkarasulu/CARBON/AIRSS/Generating-Clusters/LCBOP/Higher-Symm/SD-CG/FIRE-CG
REM
REM
REM
REM
REM
REM ./C.cell (b20cbc046b6831c77cfcea5457e17084)
REM AIRSS Version 0.9.1 bugfix July 2018 build 013d7b7c2542+ Fri, 06 Jul 2018 19:26:36 +0100
REM compiler GCC version 9.2.1 20190827 (Red Hat 9.2.1-1)
REM options -cpp -mtune=generic -march=x86-64 -g -O0 -fpre-include=/usr/include/finclude/math-vector-fortran.h
REM seed 1869370145 1864345111 2057349574 502477651 1321768552 -1207436079 1473276958 718121340 1148011141 1857988211 -71678768 1680902871 -1438361696 -1257210286 -728460075 1699184988 -2065594397 449411438 500529738 -323138534 -72545133 222916846 197578377 1521646264 -68832823 1492728379 1580088196 -1111044160 1498281643 1158625104 97932148 -327824286 -1169981937
REM
CELL 1.54180   50.00000   50.00000   50.00000   90.00000   90.00000   90.00000
LATT -1
SFAC C  
C      1  0.5417350000000  0.5191080000000  0.4405610000000 1.0
C      1  0.4689440000000  0.5153250000000  0.5640720000000 1.0
C      1  0.5356250000000  0.4908720000000  0.5596470000000 1.0
C      1  0.4631670000000  0.4880540000000  0.4380450000000 1.0
C      1  0.4342490000000  0.5177960000000  0.5345210000000 1.0
C      1  0.5593230000000  0.5125430000000  0.4636180000000 1.0
C      1  0.5586840000000  0.4824120000000  0.5426440000000 1.0
C      1  0.4407250000000  0.4815450000000  0.4564600000000 1.0
C      1  0.4174140000000  0.4964240000000  0.5405620000000 1.0
C      1  0.5793370000000  0.4936560000000  0.4595940000000 1.0
C      1  0.4213640000000  0.5035290000000  0.4579970000000 1.0
C      1  0.5789790000000  0.5037890000000  0.5413380000000 1.0
C      1  0.5408330000000  0.4972460000000  0.4209560000000 1.0
C      1  0.4612360000000  0.4951800000000  0.5817440000000 1.0
C      1  0.4593600000000  0.5073100000000  0.4183190000000 1.0
C      1  0.5414020000000  0.5084220000000  0.5805210000000 1.0
C      1  0.5300060000000  0.4484100000000  0.4272980000000 1.0
C      1  0.4716250000000  0.4498180000000  0.5689050000000 1.0
C      1  0.5311330000000  0.5544370000000  0.5710980000000 1.0
C      1  0.4710150000000  0.5530090000000  0.4286490000000 1.0
C      1  0.4271340000000  0.4495880000000  0.5307860000000 1.0
C      1  0.5697350000000  0.4480140000000  0.4710820000000 1.0
C      1  0.5727980000000  0.5525870000000  0.5298220000000 1.0
C      1  0.4281460000000  0.5523020000000  0.4686930000000 1.0
C      1  0.4867350000000  0.5739860000000  0.5394260000000 1.0
C      1  0.5142950000000  0.5741520000000  0.4602300000000 1.0
C      1  0.4830990000000  0.4256660000000  0.4628160000000 1.0
C      1  0.5137250000000  0.4284020000000  0.5353960000000 1.0
C      1  0.5339230000000  0.5746390000000  0.4825980000000 1.0
C      1  0.4666150000000  0.5742100000000  0.5174790000000 1.0
C      1  0.4617010000000  0.4255860000000  0.4830340000000 1.0
C      1  0.5360180000000  0.4279160000000  0.5144310000000 1.0
C      1  0.5069380000000  0.4160010000000  0.4742840000000 1.0
C      1  0.4858390000000  0.4216500000000  0.5311570000000 1.0
C      1  0.5140270000000  0.5806950000000  0.5331950000000 1.0
C      1  0.4868340000000  0.5799950000000  0.4664890000000 1.0
C      1  0.4726290000000  0.4155890000000  0.5070970000000 1.0
C      1  0.5316590000000  0.4209680000000  0.4865860000000 1.0
C      1  0.5235650000000  0.5843640000000  0.5069560000000 1.0
C      1  0.4767510000000  0.5834390000000  0.4926830000000 1.0
C      1  0.4031910000000  0.4996070000000  0.4781670000000 1.0
C      1  0.5972150000000  0.4992920000000  0.5213760000000 1.0
C      1  0.3977780000000  0.4949110000000  0.5210940000000 1.0
C      1  0.5994130000000  0.4953070000000  0.4781400000000 1.0
C      1  0.4782450000000  0.5059090000000  0.3985040000000 1.0
C      1  0.5231320000000  0.5073780000000  0.6008090000000 1.0
C      1  0.5213310000000  0.5011900000000  0.4020660000000 1.0
C      1  0.4799340000000  0.4929980000000  0.6019980000000 1.0
C      1  0.4384360000000  0.5445560000000  0.5439930000000 1.0
C      1  0.5663460000000  0.5597330000000  0.4517130000000 1.0
C      1  0.4348720000000  0.4521880000000  0.4533600000000 1.0
C      1  0.5640870000000  0.4530990000000  0.5463510000000 1.0
C      1  0.5460810000000  0.5483170000000  0.4346390000000 1.0
C      1  0.4597900000000  0.5422690000000  0.5629030000000 1.0
C      1  0.4513130000000  0.4407090000000  0.4323930000000 1.0
C      1  0.5478480000000  0.4416550000000  0.5668500000000 1.0
C      1  0.4664340000000  0.4283840000000  0.5510590000000 1.0
C      1  0.5408460000000  0.4253370000000  0.4398640000000 1.0
C      1  0.4665420000000  0.5740960000000  0.4474730000000 1.0
C      1  0.5349400000000  0.5750310000000  0.5516960000000 1.0
C      1  0.5512320000000  0.4269080000000  0.4666300000000 1.0
C      1  0.4394990000000  0.4265110000000  0.5415560000000 1.0
C      1  0.4400620000000  0.5756140000000  0.4579810000000 1.0
C      1  0.5611090000000  0.5761610000000  0.5403170000000 1.0
C      1  0.4878900000000  0.4840490000000  0.4516920000000 1.0
C      1  0.5112890000000  0.4920280000000  0.5450140000000 1.0
C      1  0.4883440000000  0.5081410000000  0.5447170000000 1.0
C      1  0.5145050000000  0.5203520000000  0.4555950000000 1.0
C      1  0.4565470000000  0.4807110000000  0.4830990000000 1.0
C      1  0.5443820000000  0.4813030000000  0.5152670000000 1.0
C      1  0.5450280000000  0.5170660000000  0.4878230000000 1.0
C      1  0.4529550000000  0.5126890000000  0.5138340000000 1.0
C      1  0.5015390000000  0.5230080000000  0.4017620000000 1.0
C      1  0.5018590000000  0.5252150000000  0.5995660000000 1.0
C      1  0.5015390000000  0.4759130000000  0.5981010000000 1.0
C      1  0.4973810000000  0.4745070000000  0.4019270000000 1.0
C      1  0.4026790000000  0.5266130000000  0.5013920000000 1.0
C      1  0.5965100000000  0.5262620000000  0.4967390000000 1.0
C      1  0.5966820000000  0.4778580000000  0.5015910000000 1.0
C      1  0.4025750000000  0.4779370000000  0.4981140000000 1.0
C      1  0.5614470000000  0.5630300000000  0.4802430000000 1.0
C      1  0.4403870000000  0.5602340000000  0.5191170000000 1.0
C      1  0.5629440000000  0.4405650000000  0.5200770000000 1.0
C      1  0.4361090000000  0.4399910000000  0.4801730000000 1.0
C      1  0.4822640000000  0.5595170000000  0.5643220000000 1.0
C      1  0.5199940000000  0.5609370000000  0.4343720000000 1.0
C      1  0.5196600000000  0.4396280000000  0.5625490000000 1.0
C      1  0.4801160000000  0.4375040000000  0.4359670000000 1.0
C      1  0.4307940000000  0.5297230000000  0.4505860000000 1.0
C      1  0.5704700000000  0.5303720000000  0.5485080000000 1.0
C      1  0.4300950000000  0.4722530000000  0.5491090000000 1.0
C      1  0.5689620000000  0.4688360000000  0.4508360000000 1.0
C      1  0.4508360000000  0.5320630000000  0.4292410000000 1.0
C      1  0.5510230000000  0.5332110000000  0.5703570000000 1.0
C      1  0.5479910000000  0.4710540000000  0.4303860000000 1.0
C      1  0.4517310000000  0.4713300000000  0.5689750000000 1.0
C      1  0.5793650000000  0.4535270000000  0.4983320000000 1.0
C      1  0.4200410000000  0.4538430000000  0.5023410000000 1.0
C      1  0.5784830000000  0.5485840000000  0.5013480000000 1.0
C      1  0.4219800000000  0.5485300000000  0.4969380000000 1.0
C      1  0.4991270000000  0.4539930000000  0.5786800000000 1.0
C      1  0.5016830000000  0.4519860000000  0.4198870000000 1.0
C      1  0.5041780000000  0.5486680000000  0.5813450000000 1.0
C      1  0.4982480000000  0.5475310000000  0.4186480000000 1.0
C      1  0.4803310000000  0.5119580000000  0.5174870000000 1.0
C      1  0.5167870000000  0.5178890000000  0.4839980000000 1.0
C      1  0.5166980000000  0.4843260000000  0.5174940000000 1.0
C      1  0.4848330000000  0.4827740000000  0.4798210000000 1.0
C      1  0.4995460000000  0.4993280000000  0.4984260000000 1.0
END
