TITL C-3623287-7182-1726 1.7136707078659e-06 125000 -575.451480184869 0 0 92 (C1) n - 1
REM
REM in /home/nfs/bkarasulu/CARBON/AIRSS/Generating-Clusters/LCBOP/Higher-Symm/SD-CG/FIRE-CG
REM
REM
REM
REM
REM
REM ./C.cell (b20cbc046b6831c77cfcea5457e17084)
REM AIRSS Version 0.9.1 bugfix July 2018 build 013d7b7c2542+ Fri, 06 Jul 2018 19:26:36 +0100
REM compiler GCC version 9.2.1 20190827 (Red Hat 9.2.1-1)
REM options -cpp -mtune=generic -march=x86-64 -g -O0 -fpre-include=/usr/include/finclude/math-vector-fortran.h
REM seed -98954962 -1739947237 1987855142 -1532490170 728012227 1593678837 -997375144 919637733 1913721281 -461041621 276661336 -1933031259 -1569367699 1062007220 1446105531 241634240 808680971 -1504315935 485879688 -159571185 -1890613471 -1549067953 -912029864 -902685305 238269426 -561875137 -509951564 1762398188 -818309803 -1168300504 -1611118481 -994891484 -1763358502
REM
CELL 1.54180   50.00000   50.00000   50.00000   90.00000   90.00000   90.00000
LATT -1
SFAC C  
C      1  0.4678480000000  0.4709530000000  0.5003610000000 1.0
C      1  0.5336040000000  0.5267730000000  0.5050210000000 1.0
C      1  0.5331060000000  0.4725110000000  0.5054970000000 1.0
C      1  0.4697680000000  0.5272760000000  0.4980420000000 1.0
C      1  0.4826360000000  0.4836200000000  0.4555960000000 1.0
C      1  0.5114050000000  0.5142900000000  0.4288390000000 1.0
C      1  0.5207950000000  0.4861490000000  0.4206420000000 1.0
C      1  0.4879910000000  0.5128330000000  0.4495600000000 1.0
C      1  0.4836520000000  0.4271140000000  0.4312450000000 1.0
C      1  0.5118400000000  0.5730820000000  0.4323030000000 1.0
C      1  0.5104720000000  0.4291330000000  0.4314150000000 1.0
C      1  0.4849360000000  0.5726500000000  0.4307680000000 1.0
C      1  0.4851180000000  0.4256890000000  0.5483710000000 1.0
C      1  0.5149320000000  0.5740490000000  0.5480580000000 1.0
C      1  0.5146340000000  0.4264320000000  0.5479470000000 1.0
C      1  0.4854730000000  0.5745320000000  0.5480430000000 1.0
C      1  0.4638800000000  0.4839500000000  0.5269890000000 1.0
C      1  0.5405570000000  0.5157080000000  0.5314450000000 1.0
C      1  0.5404880000000  0.4840140000000  0.5316470000000 1.0
C      1  0.4648100000000  0.5160900000000  0.5258190000000 1.0
C      1  0.4715760000000  0.4593810000000  0.5855060000000 1.0
C      1  0.5292920000000  0.5418060000000  0.5871060000000 1.0
C      1  0.5293080000000  0.4583100000000  0.5871920000000 1.0
C      1  0.4716910000000  0.5411060000000  0.5849730000000 1.0
C      1  0.4915330000000  0.5233430000000  0.4798340000000 1.0
C      1  0.5124620000000  0.4855980000000  0.4931600000000 1.0
C      1  0.5138330000000  0.5131200000000  0.4918880000000 1.0
C      1  0.4890370000000  0.4760130000000  0.4825830000000 1.0
C      1  0.4367580000000  0.4842600000000  0.4518300000000 1.0
C      1  0.5573930000000  0.5147970000000  0.4523000000000 1.0
C      1  0.5579580000000  0.4857010000000  0.4522190000000 1.0
C      1  0.4382820000000  0.5140330000000  0.4514520000000 1.0
C      1  0.4138410000000  0.4750730000000  0.5220250000000 1.0
C      1  0.5873480000000  0.5267350000000  0.5203940000000 1.0
C      1  0.5871510000000  0.4730590000000  0.5203720000000 1.0
C      1  0.4145450000000  0.5265050000000  0.5206540000000 1.0
C      1  0.5019730000000  0.5274310000000  0.4034970000000 1.0
C      1  0.5076930000000  0.4656870000000  0.3723480000000 1.0
C      1  0.4948380000000  0.5359410000000  0.3799240000000 1.0
C      1  0.5141050000000  0.4760660000000  0.3953790000000 1.0
C      1  0.5139460000000  0.5767590000000  0.4938860000000 1.0
C      1  0.4832840000000  0.4217560000000  0.4940270000000 1.0
C      1  0.4842290000000  0.5775720000000  0.4936570000000 1.0
C      1  0.5130010000000  0.4237230000000  0.4933910000000 1.0
C      1  0.5483300000000  0.4563690000000  0.4882490000000 1.0
C      1  0.4492180000000  0.5439360000000  0.4866720000000 1.0
C      1  0.4474110000000  0.4546490000000  0.4881890000000 1.0
C      1  0.5489460000000  0.5438490000000  0.4886960000000 1.0
C      1  0.4648760000000  0.4402830000000  0.4474730000000 1.0
C      1  0.5291830000000  0.5575120000000  0.4480350000000 1.0
C      1  0.5283820000000  0.4441910000000  0.4470210000000 1.0
C      1  0.4669140000000  0.5578280000000  0.4465330000000 1.0
C      1  0.5325620000000  0.5635640000000  0.4758500000000 1.0
C      1  0.4626860000000  0.4328060000000  0.4757190000000 1.0
C      1  0.4644490000000  0.5657690000000  0.4747600000000 1.0
C      1  0.5314240000000  0.4373670000000  0.4748940000000 1.0
C      1  0.5657350000000  0.5313700000000  0.5384600000000 1.0
C      1  0.4375870000000  0.4701250000000  0.5366910000000 1.0
C      1  0.4384540000000  0.5310900000000  0.5349630000000 1.0
C      1  0.5656660000000  0.4683980000000  0.5385550000000 1.0
C      1  0.4752660000000  0.5817690000000  0.5212880000000 1.0
C      1  0.5237020000000  0.4201160000000  0.5206690000000 1.0
C      1  0.5241980000000  0.5808500000000  0.5210850000000 1.0
C      1  0.4748290000000  0.4177180000000  0.5218950000000 1.0
C      1  0.4873740000000  0.5216180000000  0.5467090000000 1.0
C      1  0.5157820000000  0.4785430000000  0.5493570000000 1.0
C      1  0.5161150000000  0.5214960000000  0.5491570000000 1.0
C      1  0.4870200000000  0.4785630000000  0.5472180000000 1.0
C      1  0.5246870000000  0.5148850000000  0.5775890000000 1.0
C      1  0.4758660000000  0.4856940000000  0.5746970000000 1.0
C      1  0.4759890000000  0.5147980000000  0.5742180000000 1.0
C      1  0.5246330000000  0.4852280000000  0.5776890000000 1.0
C      1  0.4656870000000  0.4390780000000  0.5656410000000 1.0
C      1  0.5349250000000  0.5615500000000  0.5660900000000 1.0
C      1  0.5347690000000  0.4385280000000  0.5661340000000 1.0
C      1  0.4659580000000  0.5613410000000  0.5651450000000 1.0
C      1  0.5862760000000  0.5143770000000  0.4943850000000 1.0
C      1  0.4117010000000  0.4859310000000  0.4957010000000 1.0
C      1  0.4122840000000  0.5145330000000  0.4949230000000 1.0
C      1  0.5860230000000  0.4855190000000  0.4944460000000 1.0
C      1  0.4267860000000  0.4714900000000  0.4762260000000 1.0
C      1  0.5690580000000  0.5279230000000  0.4754340000000 1.0
C      1  0.5686300000000  0.4723480000000  0.4754910000000 1.0
C      1  0.4282740000000  0.5275970000000  0.4751710000000 1.0
C      1  0.4625590000000  0.5285380000000  0.4420050000000 1.0
C      1  0.5371200000000  0.4709040000000  0.4384870000000 1.0
C      1  0.5350460000000  0.5297770000000  0.4405990000000 1.0
C      1  0.4609000000000  0.4692030000000  0.4437900000000 1.0
C      1  0.4419860000000  0.5539820000000  0.5513040000000 1.0
C      1  0.5601360000000  0.4448380000000  0.5536740000000 1.0
C      1  0.5601860000000  0.5549630000000  0.5535460000000 1.0
C      1  0.4413890000000  0.4465760000000  0.5522680000000 1.0
END
