TITL C-3623287-7182-1829 -2.93182087509621e-07 125000 -55.6121772014126 0 0 10 (D(inf)h) n - 1
REM
REM in /home/nfs/bkarasulu/CARBON/AIRSS/Generating-Clusters/LCBOP/Higher-Symm/SD-CG/FIRE-CG
REM
REM
REM
REM
REM
REM ./C.cell (b20cbc046b6831c77cfcea5457e17084)
REM AIRSS Version 0.9.1 bugfix July 2018 build 013d7b7c2542+ Fri, 06 Jul 2018 19:26:36 +0100
REM compiler GCC version 9.2.1 20190827 (Red Hat 9.2.1-1)
REM options -cpp -mtune=generic -march=x86-64 -g -O0 -fpre-include=/usr/include/finclude/math-vector-fortran.h
REM seed 2069393713 1236985043 -948968973 592582478 527942161 -386956685 -1830187959 -854089171 -299735440 1214414847 2073306415 -1099099445 -875991954 1483897246 760025548 1131883057 1907990291 601878744 -1232064408 -1924383306 1407695766 -589626232 -2017199805 825203757 1360116872 1487368528 1084111094 -285451249 579781833 350570488 1239482759 623856249 616726768
REM
CELL 1.54180   50.00000   50.00000   50.00000   90.00000   90.00000   90.00000
LATT -1
SFAC C  
C      1  0.4988470000000  0.5004310000000  0.4602510000000 1.0
C      1  0.4988470000000  0.5004310000000  0.5927560000000 1.0
C      1  0.4988470000000  0.5004310000000  0.5662490000000 1.0
C      1  0.4988470000000  0.5004310000000  0.5397490000000 1.0
C      1  0.4988470000000  0.5004310000000  0.3811740000000 1.0
C      1  0.4988470000000  0.5004310000000  0.5132500000000 1.0
C      1  0.4988470000000  0.5004310000000  0.6188260000000 1.0
C      1  0.4988470000000  0.5004310000000  0.4072440000000 1.0
C      1  0.4988470000000  0.5004310000000  0.4867500000000 1.0
C      1  0.4988470000000  0.5004310000000  0.4337510000000 1.0
END
