TITL C-3623289-7120-1151 0.0987565496315019 125000 -1174.39197782336 0 0 190 (C1) n - 1
REM
REM in /home/nfs/bkarasulu/CARBON/AIRSS/Generating-Clusters/LCBOP/Higher-Symm/SD-CG/FIRE-CG
REM
REM
REM
REM
REM
REM ./C.cell (b20cbc046b6831c77cfcea5457e17084)
REM AIRSS Version 0.9.1 bugfix July 2018 build 013d7b7c2542+ Fri, 06 Jul 2018 19:26:36 +0100
REM compiler GCC version 9.2.1 20190827 (Red Hat 9.2.1-1)
REM options -cpp -mtune=generic -march=x86-64 -g -O0 -fpre-include=/usr/include/finclude/math-vector-fortran.h
REM seed 1903394645 2021846349 597470418 1027016679 884620751 674736241 -476717473 -1279767392 -364386778 1405378531 330640272 -574422819 1018635517 565913320 309345335 -402546370 1919067322 990958484 -44561232 -1248364208 424561845 -1442711365 1153706129 1837425930 -103077228 1916283250 -847063225 -453734322 152648790 -1834131163 1868513196 430534920 -1589321765
REM
CELL 1.54180   50.00000   50.00000   50.00000   90.00000   90.00000   90.00000
LATT -1
SFAC C  
C      1  0.3934190000000  0.5276930000000  0.5404410000000 1.0
C      1  0.4306030000000  0.5077660000000  0.4041150000000 1.0
C      1  0.5675620000000  0.4970840000000  0.3980860000000 1.0
C      1  0.5960440000000  0.5120560000000  0.4995010000000 1.0
C      1  0.5183910000000  0.5166320000000  0.6154590000000 1.0
C      1  0.4955710000000  0.5010180000000  0.3791180000000 1.0
C      1  0.6160600000000  0.5022660000000  0.4554460000000 1.0
C      1  0.5778040000000  0.5047770000000  0.5990470000000 1.0
C      1  0.4245970000000  0.5046700000000  0.5995740000000 1.0
C      1  0.3869190000000  0.5035680000000  0.4602620000000 1.0
C      1  0.4987780000000  0.4499090000000  0.5252810000000 1.0
C      1  0.4779210000000  0.4467040000000  0.5063890000000 1.0
C      1  0.4889720000000  0.4415570000000  0.4805520000000 1.0
C      1  0.5179350000000  0.4421870000000  0.4830290000000 1.0
C      1  0.5239000000000  0.4456330000000  0.5115030000000 1.0
C      1  0.5264700000000  0.3962690000000  0.4972220000000 1.0
C      1  0.5103370000000  0.3981200000000  0.5246610000000 1.0
C      1  0.4794350000000  0.3972270000000  0.5180280000000 1.0
C      1  0.4758940000000  0.3947550000000  0.4865820000000 1.0
C      1  0.5050310000000  0.3946080000000  0.4735700000000 1.0
C      1  0.4089200000000  0.4463070000000  0.4323740000000 1.0
C      1  0.5314160000000  0.4465060000000  0.3912840000000 1.0
C      1  0.6139030000000  0.4481830000000  0.4938440000000 1.0
C      1  0.5378030000000  0.4514120000000  0.6070530000000 1.0
C      1  0.4077080000000  0.4510760000000  0.5645990000000 1.0
C      1  0.5677590000000  0.4937420000000  0.5523130000000 1.0
C      1  0.4687580000000  0.4925580000000  0.5823370000000 1.0
C      1  0.4182310000000  0.4898340000000  0.4932580000000 1.0
C      1  0.4792040000000  0.4886220000000  0.4224490000000 1.0
C      1  0.5675370000000  0.4933200000000  0.4543540000000 1.0
C      1  0.4303000000000  0.4427850000000  0.5503090000000 1.0
C      1  0.4294630000000  0.4357150000000  0.4482720000000 1.0
C      1  0.5256620000000  0.4380570000000  0.4174070000000 1.0
C      1  0.5869600000000  0.4410400000000  0.4970040000000 1.0
C      1  0.5272640000000  0.4446520000000  0.5819620000000 1.0
C      1  0.4605450000000  0.4919620000000  0.4781330000000 1.0
C      1  0.4988170000000  0.4885280000000  0.4633570000000 1.0
C      1  0.5322090000000  0.4913340000000  0.4885030000000 1.0
C      1  0.5280030000000  0.4951580000000  0.5294090000000 1.0
C      1  0.4649580000000  0.5045670000000  0.5387780000000 1.0
C      1  0.5536670000000  0.5380130000000  0.5001470000000 1.0
C      1  0.5231110000000  0.5290130000000  0.5682480000000 1.0
C      1  0.4410950000000  0.5176560000000  0.5458770000000 1.0
C      1  0.4346400000000  0.5469930000000  0.4301780000000 1.0
C      1  0.5425610000000  0.5374550000000  0.4007910000000 1.0
C      1  0.4810940000000  0.5104840000000  0.5175170000000 1.0
C      1  0.4739100000000  0.5118640000000  0.4901300000000 1.0
C      1  0.4978320000000  0.5132630000000  0.4739390000000 1.0
C      1  0.5186300000000  0.5140200000000  0.4918810000000 1.0
C      1  0.5091400000000  0.5113100000000  0.5191500000000 1.0
C      1  0.4616350000000  0.3964520000000  0.5665000000000 1.0
C      1  0.4241370000000  0.3931280000000  0.4858300000000 1.0
C      1  0.4903810000000  0.3917400000000  0.4241610000000 1.0
C      1  0.5688050000000  0.3941420000000  0.4676840000000 1.0
C      1  0.5510700000000  0.3986920000000  0.5561500000000 1.0
C      1  0.5447990000000  0.4759400000000  0.5433540000000 1.0
C      1  0.4701780000000  0.4795100000000  0.5547150000000 1.0
C      1  0.4413440000000  0.4716940000000  0.4867380000000 1.0
C      1  0.4918570000000  0.4698320000000  0.4419100000000 1.0
C      1  0.5523790000000  0.4753880000000  0.4738300000000 1.0
C      1  0.3917800000000  0.5319880000000  0.4631940000000 1.0
C      1  0.4943270000000  0.5295300000000  0.3834040000000 1.0
C      1  0.6155040000000  0.5312500000000  0.4562900000000 1.0
C      1  0.5777820000000  0.5337220000000  0.5988490000000 1.0
C      1  0.4251350000000  0.5336300000000  0.5972830000000 1.0
C      1  0.4803440000000  0.4819900000000  0.3949510000000 1.0
C      1  0.5941100000000  0.4847250000000  0.4476040000000 1.0
C      1  0.5814070000000  0.4869200000000  0.5762230000000 1.0
C      1  0.4472060000000  0.4858510000000  0.5995250000000 1.0
C      1  0.3934170000000  0.4842860000000  0.4810890000000 1.0
C      1  0.5763020000000  0.4112890000000  0.5556100000000 1.0
C      1  0.4684630000000  0.4113140000000  0.5895510000000 1.0
C      1  0.4046610000000  0.4087050000000  0.4991170000000 1.0
C      1  0.4701150000000  0.4046430000000  0.4093970000000 1.0
C      1  0.5760010000000  0.4070960000000  0.4436760000000 1.0
C      1  0.4906700000000  0.6007180000000  0.5257220000000 1.0
C      1  0.4791760000000  0.6011950000000  0.4975150000000 1.0
C      1  0.5010010000000  0.6014450000000  0.4767200000000 1.0
C      1  0.5287430000000  0.6017090000000  0.4905510000000 1.0
C      1  0.5221660000000  0.5998070000000  0.5216570000000 1.0
C      1  0.4470850000000  0.5510100000000  0.5882250000000 1.0
C      1  0.4177730000000  0.5463430000000  0.4687040000000 1.0
C      1  0.5017590000000  0.5440680000000  0.4086720000000 1.0
C      1  0.5930310000000  0.5501820000000  0.4525590000000 1.0
C      1  0.5769730000000  0.5518780000000  0.5756320000000 1.0
C      1  0.5449500000000  0.5598600000000  0.5409070000000 1.0
C      1  0.4788920000000  0.5610640000000  0.5532790000000 1.0
C      1  0.4580190000000  0.5573370000000  0.4976510000000 1.0
C      1  0.4954040000000  0.5574290000000  0.4559380000000 1.0
C      1  0.5488540000000  0.5649960000000  0.4635560000000 1.0
C      1  0.4179370000000  0.5208360000000  0.5310790000000 1.0
C      1  0.4447030000000  0.5230950000000  0.4218960000000 1.0
C      1  0.5553580000000  0.5165840000000  0.4128610000000 1.0
C      1  0.5736550000000  0.5215200000000  0.5112320000000 1.0
C      1  0.5089670000000  0.5197870000000  0.5902230000000 1.0
C      1  0.6355380000000  0.5484550000000  0.4697690000000 1.0
C      1  0.5703260000000  0.5520090000000  0.6208620000000 1.0
C      1  0.4020480000000  0.5522350000000  0.5955510000000 1.0
C      1  0.3726520000000  0.5544540000000  0.4628970000000 1.0
C      1  0.4875320000000  0.5517980000000  0.3654660000000 1.0
C      1  0.4536780000000  0.4325410000000  0.6014560000000 1.0
C      1  0.3902150000000  0.4311190000000  0.4889660000000 1.0
C      1  0.4731650000000  0.4283550000000  0.3939140000000 1.0
C      1  0.5915890000000  0.4307770000000  0.4413340000000 1.0
C      1  0.5845890000000  0.4333960000000  0.5714390000000 1.0
C      1  0.4835020000000  0.6136350000000  0.4069320000000 1.0
C      1  0.6001260000000  0.6096980000000  0.4943520000000 1.0
C      1  0.5378390000000  0.6114180000000  0.5898960000000 1.0
C      1  0.4241030000000  0.6107880000000  0.5543200000000 1.0
C      1  0.4089470000000  0.6143910000000  0.4886270000000 1.0
C      1  0.5666740000000  0.4907790000000  0.6211340000000 1.0
C      1  0.4001620000000  0.4915000000000  0.5936220000000 1.0
C      1  0.3841740000000  0.4909010000000  0.4350770000000 1.0
C      1  0.5173180000000  0.4883640000000  0.3660950000000 1.0
C      1  0.6353660000000  0.4879550000000  0.4707260000000 1.0
C      1  0.5815250000000  0.5968580000000  0.4762220000000 1.0
C      1  0.5507210000000  0.5974630000000  0.5679020000000 1.0
C      1  0.4484230000000  0.5965200000000  0.5611290000000 1.0
C      1  0.4292700000000  0.5945130000000  0.4828220000000 1.0
C      1  0.4962020000000  0.5937650000000  0.4237650000000 1.0
C      1  0.5666930000000  0.4607290000000  0.4975920000000 1.0
C      1  0.5234220000000  0.4646620000000  0.5624850000000 1.0
C      1  0.4487470000000  0.4613780000000  0.5402870000000 1.0
C      1  0.4457710000000  0.4528630000000  0.4631110000000 1.0
C      1  0.5189250000000  0.4566780000000  0.4373290000000 1.0
C      1  0.5409530000000  0.5885490000000  0.5421130000000 1.0
C      1  0.4729220000000  0.5892330000000  0.5480680000000 1.0
C      1  0.4544380000000  0.5863960000000  0.4929170000000 1.0
C      1  0.4964930000000  0.5867480000000  0.4512710000000 1.0
C      1  0.5532490000000  0.5922170000000  0.4745870000000 1.0
C      1  0.4088570000000  0.4074410000000  0.5267940000000 1.0
C      1  0.4451080000000  0.3997170000000  0.4212090000000 1.0
C      1  0.5565790000000  0.4023760000000  0.4239720000000 1.0
C      1  0.5888660000000  0.4071670000000  0.5308630000000 1.0
C      1  0.4961370000000  0.4104890000000  0.5937420000000 1.0
C      1  0.5348620000000  0.5532210000000  0.4851710000000 1.0
C      1  0.5214570000000  0.5450930000000  0.5450650000000 1.0
C      1  0.4964520000000  0.5515130000000  0.5333280000000 1.0
C      1  0.4870170000000  0.5533060000000  0.5055000000000 1.0
C      1  0.5060440000000  0.5545460000000  0.4834340000000 1.0
C      1  0.5486810000000  0.4568390000000  0.5201750000000 1.0
C      1  0.4969740000000  0.4645860000000  0.5497780000000 1.0
C      1  0.4531120000000  0.4588910000000  0.5116050000000 1.0
C      1  0.4743860000000  0.4505220000000  0.4576820000000 1.0
C      1  0.5336080000000  0.4542430000000  0.4621520000000 1.0
C      1  0.5154580000000  0.4192650000000  0.5754860000000 1.0
C      1  0.4324530000000  0.4167380000000  0.5386140000000 1.0
C      1  0.4401970000000  0.4092190000000  0.4470290000000 1.0
C      1  0.5305130000000  0.4118250000000  0.4278030000000 1.0
C      1  0.5777480000000  0.4153880000000  0.5064950000000 1.0
C      1  0.6324750000000  0.4656900000000  0.4856700000000 1.0
C      1  0.5511770000000  0.4688010000000  0.6223940000000 1.0
C      1  0.3949920000000  0.4694020000000  0.5792790000000 1.0
C      1  0.3932600000000  0.4671480000000  0.4261370000000 1.0
C      1  0.5298660000000  0.4652890000000  0.3722240000000 1.0
C      1  0.4017240000000  0.6004720000000  0.5673330000000 1.0
C      1  0.3837130000000  0.6064280000000  0.4798160000000 1.0
C      1  0.4804020000000  0.6047700000000  0.3807190000000 1.0
C      1  0.6250870000000  0.5973750000000  0.4944030000000 1.0
C      1  0.5446040000000  0.6007210000000  0.6146760000000 1.0
C      1  0.3846280000000  0.4572570000000  0.4843540000000 1.0
C      1  0.4742010000000  0.4548460000000  0.3885300000000 1.0
C      1  0.5968750000000  0.4572460000000  0.4402290000000 1.0
C      1  0.5887640000000  0.4593170000000  0.5778850000000 1.0
C      1  0.4468420000000  0.4581860000000  0.6068740000000 1.0
C      1  0.5690430000000  0.5785940000000  0.5829730000000 1.0
C      1  0.4381960000000  0.5773890000000  0.5818480000000 1.0
C      1  0.4137730000000  0.5745120000000  0.4679550000000 1.0
C      1  0.5022830000000  0.5723570000000  0.4041790000000 1.0
C      1  0.5990950000000  0.5760270000000  0.4635570000000 1.0
C      1  0.4709860000000  0.5155070000000  0.4300280000000 1.0
C      1  0.5592540000000  0.5180880000000  0.4411150000000 1.0
C      1  0.5719350000000  0.5190840000000  0.5392450000000 1.0
C      1  0.4815770000000  0.5183250000000  0.5843350000000 1.0
C      1  0.4235490000000  0.5160650000000  0.5039490000000 1.0
C      1  0.4704680000000  0.5433170000000  0.5751130000000 1.0
C      1  0.4354680000000  0.5383440000000  0.4898200000000 1.0
C      1  0.4902240000000  0.5372840000000  0.4341740000000 1.0
C      1  0.5654790000000  0.5449100000000  0.4503470000000 1.0
C      1  0.5677450000000  0.5446280000000  0.5505380000000 1.0
C      1  0.4906840000000  0.5781460000000  0.3769590000000 1.0
C      1  0.6263760000000  0.5750800000000  0.4762770000000 1.0
C      1  0.5631030000000  0.5787860000000  0.6125700000000 1.0
C      1  0.4082310000000  0.5783990000000  0.5846320000000 1.0
C      1  0.3843490000000  0.5805800000000  0.4671170000000 1.0
C      1  0.4491320000000  0.3970000000000  0.4723350000000 1.0
C      1  0.5101280000000  0.3980010000000  0.4438560000000 1.0
C      1  0.5562770000000  0.4006540000000  0.4926070000000 1.0
C      1  0.5233420000000  0.4041520000000  0.5514340000000 1.0
C      1  0.4578890000000  0.4020500000000  0.5386470000000 1.0
END
