TITL C-3623289-7120-283 17387.6975079483 125000 -1033.67954411481 0 0 171 (C1) n - 1
REM
REM in /home/nfs/bkarasulu/CARBON/AIRSS/Generating-Clusters/LCBOP/Higher-Symm/SD-CG/FIRE-CG
REM
REM
REM
REM
REM
REM ./C.cell (b20cbc046b6831c77cfcea5457e17084)
REM AIRSS Version 0.9.1 bugfix July 2018 build 013d7b7c2542+ Fri, 06 Jul 2018 19:26:36 +0100
REM compiler GCC version 9.2.1 20190827 (Red Hat 9.2.1-1)
REM options -cpp -mtune=generic -march=x86-64 -g -O0 -fpre-include=/usr/include/finclude/math-vector-fortran.h
REM seed -1736724617 259285615 1563966158 -854112682 2059849520 -690721037 1045415443 734470987 697810374 1586182325 956359667 924366505 -1080228926 -578937281 -1596784034 -1742041728 -127419525 1286344160 -1411380539 1050587456 1894784821 -97040959 -1264489993 653069612 2023159347 242071546 16925119 703262766 2004785565 -1350176995 285962692 1558227953 1090999922
REM
CELL 1.54180   50.00000   50.00000   50.00000   90.00000   90.00000   90.00000
LATT -1
SFAC C  
C      1  0.3944730000000  0.5253170000000  0.5339700000000 1.0
C      1  0.5091220000000  0.5262270000000  0.3652300000000 1.0
C      1  0.4333680000000  0.5182960000000  0.4696710000000 1.0
C      1  0.3916510000000  0.5816770000000  0.5752200000000 1.0
C      1  0.5268650000000  0.5899410000000  0.4887260000000 1.0
C      1  0.4457060000000  0.5320490000000  0.5318280000000 1.0
C      1  0.3764860000000  0.5694350000000  0.5567540000000 1.0
C      1  0.4326080000000  0.5557470000000  0.5888840000000 1.0
C      1  0.4317100000000  0.4860190000000  0.5423420000000 1.0
C      1  0.5649780000000  0.5794560000000  0.4509460000000 1.0
C      1  0.4151540000000  0.4795400000000  0.5957020000000 1.0
C      1  0.5183450000000  0.4255450000000  0.5129450000000 1.0
C      1  0.5361060000000  0.4869110000000  0.3005980000000 1.0
C      1  0.4228070000000  0.5078900000000  0.4947780000000 1.0
C      1  0.3605370000000  0.5256290000000  0.4112070000000 1.0
C      1  0.5673080000000  0.4924410000000  0.5263790000000 1.0
C      1  0.4693360000000  0.5143350000000  0.5720450000000 1.0
C      1  0.5184460000000  0.5129710000000  0.3426920000000 1.0
C      1  0.5396810000000  0.5289720000000  0.5258430000000 1.0
C      1  0.5733450000000  0.4687440000000  0.5104970000000 1.0
C      1  0.4955270000000  0.5949490000000  0.5689330000000 1.0
C      1  0.4218890000000  0.5312840000000  0.5771290000000 1.0
C      1  0.4980610000000  0.4931860000000  0.6123450000000 1.0
C      1  0.5416310000000  0.5223400000000  0.4319840000000 1.0
C      1  0.4584440000000  0.4408370000000  0.5123760000000 1.0
C      1  0.4547090000000  0.4478110000000  0.4549040000000 1.0
C      1  0.4050990000000  0.4774940000000  0.5470570000000 1.0
C      1  0.4672270000000  0.4523850000000  0.5626120000000 1.0
C      1  0.4927100000000  0.5831310000000  0.4299050000000 1.0
C      1  0.6555340000000  0.4491200000000  0.4910200000000 1.0
C      1  0.5799110000000  0.5581860000000  0.5228140000000 1.0
C      1  0.5158550000000  0.5314540000000  0.4386720000000 1.0
C      1  0.3859500000000  0.4980140000000  0.5441760000000 1.0
C      1  0.4879270000000  0.4813090000000  0.4696710000000 1.0
C      1  0.4611420000000  0.5565020000000  0.5927390000000 1.0
C      1  0.5284550000000  0.4148750000000  0.5811950000000 1.0
C      1  0.6196490000000  0.4766740000000  0.5082990000000 1.0
C      1  0.5223490000000  0.5493630000000  0.3761540000000 1.0
C      1  0.4929420000000  0.5185880000000  0.5542840000000 1.0
C      1  0.4504290000000  0.4847950000000  0.3874930000000 1.0
C      1  0.4903170000000  0.6289040000000  0.5042160000000 1.0
C      1  0.5848520000000  0.5359130000000  0.5408560000000 1.0
C      1  0.4336410000000  0.5925800000000  0.4945980000000 1.0
C      1  0.5644800000000  0.5287190000000  0.4854080000000 1.0
C      1  0.4283530000000  0.4473830000000  0.4622900000000 1.0
C      1  0.6780300000000  0.4445790000000  0.4720610000000 1.0
C      1  0.5900750000000  0.5017330000000  0.4332290000000 1.0
C      1  0.4858460000000  0.5181060000000  0.3795300000000 1.0
C      1  0.5629610000000  0.4531220000000  0.5812160000000 1.0
C      1  0.4940820000000  0.5274570000000  0.4216560000000 1.0
C      1  0.6098370000000  0.4907990000000  0.4476090000000 1.0
C      1  0.5685100000000  0.5016110000000  0.5745570000000 1.0
C      1  0.4524530000000  0.5472820000000  0.4032370000000 1.0
C      1  0.5353430000000  0.5492200000000  0.5959850000000 1.0
C      1  0.4011350000000  0.4393810000000  0.5079100000000 1.0
C      1  0.4710340000000  0.5693170000000  0.4431740000000 1.0
C      1  0.4052870000000  0.4309570000000  0.5355000000000 1.0
C      1  0.4722870000000  0.5302280000000  0.5956020000000 1.0
C      1  0.4992890000000  0.4075840000000  0.5256370000000 1.0
C      1  0.6350750000000  0.4682510000000  0.4863260000000 1.0
C      1  0.6554490000000  0.4754800000000  0.4430460000000 1.0
C      1  0.4868350000000  0.5027530000000  0.5297630000000 1.0
C      1  0.4811490000000  0.3974300000000  0.5058350000000 1.0
C      1  0.5982240000000  0.4641460000000  0.5507710000000 1.0
C      1  0.5405020000000  0.5008370000000  0.5288260000000 1.0
C      1  0.5132420000000  0.5265520000000  0.4880620000000 1.0
C      1  0.5208620000000  0.4409190000000  0.4882910000000 1.0
C      1  0.5401810000000  0.5005050000000  0.5800990000000 1.0
C      1  0.5466430000000  0.5461030000000  0.5701190000000 1.0
C      1  0.5392760000000  0.5323550000000  0.4982770000000 1.0
C      1  0.5160970000000  0.4602050000000  0.5729400000000 1.0
C      1  0.5001920000000  0.4109720000000  0.5779090000000 1.0
C      1  0.7436540000000  0.4252400000000  0.4770570000000 1.0
C      1  0.6148840000000  0.5038740000000  0.5156490000000 1.0
C      1  0.5539510000000  0.5890240000000  0.4981580000000 1.0
C      1  0.4132680000000  0.5264990000000  0.4514970000000 1.0
C      1  0.5109340000000  0.4899720000000  0.4901450000000 1.0
C      1  0.5218470000000  0.5713730000000  0.4672620000000 1.0
C      1  0.7174690000000  0.3930590000000  0.4529240000000 1.0
C      1  0.3651410000000  0.5151720000000  0.3872570000000 1.0
C      1  0.4824640000000  0.4206690000000  0.5982080000000 1.0
C      1  0.5034250000000  0.4725060000000  0.5956300000000 1.0
C      1  0.5614460000000  0.5817390000000  0.5254670000000 1.0
C      1  0.7149140000000  0.3733820000000  0.4360270000000 1.0
C      1  0.6765110000000  0.4594200000000  0.4483770000000 1.0
C      1  0.5797660000000  0.4740820000000  0.5707690000000 1.0
C      1  0.5297910000000  0.5458340000000  0.5462150000000 1.0
C      1  0.4047750000000  0.4507520000000  0.5571290000000 1.0
C      1  0.5166990000000  0.5390580000000  0.6127100000000 1.0
C      1  0.4288630000000  0.4048340000000  0.5848280000000 1.0
C      1  0.4764380000000  0.5489470000000  0.4661180000000 1.0
C      1  0.5601340000000  0.4752730000000  0.4858030000000 1.0
C      1  0.4758710000000  0.4942090000000  0.3951000000000 1.0
C      1  0.5234950000000  0.5928990000000  0.5628000000000 1.0
C      1  0.4593180000000  0.4327870000000  0.6057620000000 1.0
C      1  0.4518130000000  0.5742720000000  0.5012450000000 1.0
C      1  0.4214520000000  0.5320250000000  0.5477300000000 1.0
C      1  0.4159250000000  0.4522210000000  0.5848960000000 1.0
C      1  0.5988960000000  0.4613650000000  0.5217100000000 1.0
C      1  0.6609050000000  0.4308780000000  0.5127220000000 1.0
C      1  0.5077980000000  0.5438970000000  0.4646120000000 1.0
C      1  0.4853520000000  0.3735030000000  0.4933840000000 1.0
C      1  0.5022300000000  0.4346020000000  0.4671780000000 1.0
C      1  0.4419600000000  0.4620680000000  0.5029880000000 1.0
C      1  0.4126140000000  0.4632350000000  0.3714530000000 1.0
C      1  0.4157170000000  0.5068190000000  0.5917990000000 1.0
C      1  0.4374700000000  0.3970880000000  0.5589830000000 1.0
C      1  0.5456630000000  0.5912940000000  0.5471580000000 1.0
C      1  0.4282670000000  0.5045690000000  0.3845130000000 1.0
C      1  0.4892460000000  0.4016940000000  0.5528820000000 1.0
C      1  0.4323250000000  0.5313280000000  0.3917800000000 1.0
C      1  0.4828640000000  0.6156950000000  0.5546720000000 1.0
C      1  0.4738150000000  0.5580440000000  0.4953680000000 1.0
C      1  0.4813540000000  0.4537090000000  0.4636120000000 1.0
C      1  0.4588550000000  0.4143460000000  0.5006030000000 1.0
C      1  0.5902140000000  0.5113190000000  0.5276750000000 1.0
C      1  0.4688210000000  0.3324630000000  0.5518570000000 1.0
C      1  0.5058740000000  0.4133850000000  0.4504040000000 1.0
C      1  0.5724560000000  0.5764840000000  0.4784000000000 1.0
C      1  0.4491280000000  0.5639730000000  0.4257440000000 1.0
C      1  0.5122310000000  0.4659290000000  0.5450280000000 1.0
C      1  0.4794000000000  0.5386720000000  0.3993620000000 1.0
C      1  0.5325260000000  0.4676330000000  0.4845040000000 1.0
C      1  0.4502000000000  0.4953880000000  0.5626390000000 1.0
C      1  0.4189350000000  0.4514520000000  0.4890250000000 1.0
C      1  0.5375910000000  0.5778820000000  0.4432870000000 1.0
C      1  0.5251760000000  0.5683480000000  0.3952690000000 1.0
C      1  0.5716260000000  0.5306490000000  0.5661070000000 1.0
C      1  0.3800750000000  0.5289660000000  0.4845120000000 1.0
C      1  0.5454550000000  0.3940830000000  0.5859630000000 1.0
C      1  0.4327870000000  0.4309280000000  0.5954080000000 1.0
C      1  0.5166060000000  0.5082560000000  0.5697880000000 1.0
C      1  0.5199560000000  0.5796670000000  0.4208510000000 1.0
C      1  0.3798830000000  0.5023370000000  0.3672120000000 1.0
C      1  0.5098530000000  0.6111900000000  0.4947820000000 1.0
C      1  0.4751830000000  0.4994950000000  0.4520040000000 1.0
C      1  0.4145780000000  0.5773510000000  0.5886550000000 1.0
C      1  0.5273270000000  0.4998470000000  0.3214600000000 1.0
C      1  0.4046640000000  0.4909870000000  0.3738830000000 1.0
C      1  0.4841720000000  0.6288450000000  0.5315690000000 1.0
C      1  0.5372050000000  0.4418450000000  0.5790950000000 1.0
C      1  0.4389050000000  0.4597640000000  0.3793350000000 1.0
C      1  0.4942190000000  0.5216230000000  0.6119710000000 1.0
C      1  0.4305070000000  0.6169310000000  0.4839720000000 1.0
C      1  0.4402350000000  0.4901670000000  0.5130560000000 1.0
C      1  0.5805120000000  0.5520430000000  0.4926510000000 1.0
C      1  0.5678060000000  0.5017540000000  0.4766790000000 1.0
C      1  0.4196300000000  0.4067760000000  0.5394160000000 1.0
C      1  0.4788720000000  0.5775090000000  0.5844280000000 1.0
C      1  0.6841670000000  0.4166560000000  0.5080120000000 1.0
C      1  0.4471070000000  0.6374990000000  0.4793150000000 1.0
C      1  0.6324600000000  0.4790970000000  0.4594090000000 1.0
C      1  0.4381350000000  0.4029620000000  0.4866560000000 1.0
C      1  0.4617850000000  0.5102820000000  0.5191320000000 1.0
C      1  0.4640110000000  0.3863440000000  0.5547840000000 1.0
C      1  0.4680540000000  0.4446130000000  0.5379890000000 1.0
C      1  0.3857770000000  0.5304730000000  0.4568830000000 1.0
C      1  0.4725360000000  0.6418510000000  0.4867220000000 1.0
C      1  0.6959530000000  0.4243730000000  0.4827110000000 1.0
C      1  0.5010440000000  0.5449500000000  0.5403480000000 1.0
C      1  0.4663080000000  0.3583510000000  0.5534400000000 1.0
C      1  0.4931320000000  0.5467940000000  0.5125510000000 1.0
C      1  0.5118250000000  0.4872600000000  0.5226270000000 1.0
C      1  0.4608400000000  0.5221250000000  0.4628600000000 1.0
C      1  0.5661980000000  0.5126170000000  0.4277750000000 1.0
C      1  0.7193080000000  0.4143400000000  0.4709840000000 1.0
C      1  0.4818160000000  0.5004530000000  0.4239500000000 1.0
C      1  0.3761470000000  0.5476830000000  0.5409720000000 1.0
C      1  0.3673300000000  0.5315560000000  0.4361890000000 1.0
C      1  0.3984980000000  0.5205970000000  0.5043570000000 1.0
C      1  0.3703800000000  0.5011050000000  0.3416040000000 1.0
END
