TITL C-3623289-7120-199 1.4745474278938 125000 -1055.96001618104 0 0 174 (C1) n - 1
REM
REM in /home/nfs/bkarasulu/CARBON/AIRSS/Generating-Clusters/LCBOP/Higher-Symm/SD-CG/FIRE-CG
REM
REM
REM
REM
REM
REM ./C.cell (b20cbc046b6831c77cfcea5457e17084)
REM AIRSS Version 0.9.1 bugfix July 2018 build 013d7b7c2542+ Fri, 06 Jul 2018 19:26:36 +0100
REM compiler GCC version 9.2.1 20190827 (Red Hat 9.2.1-1)
REM options -cpp -mtune=generic -march=x86-64 -g -O0 -fpre-include=/usr/include/finclude/math-vector-fortran.h
REM seed -1603791161 656460640 1768610285 -2135740928 1524708538 -166018880 -1205997243 -185111990 -888507159 1596182263 -183351716 -1943037005 488756385 153736354 -16445324 1120637419 -760914796 -1119483202 -1365189202 -1797578333 -967415192 2057058182 -698566257 455448743 -548708499 2023624725 1093749439 -2025370132 -1342146097 1498617325 -1939333724 634635567 -917810140
REM
CELL 1.54180   50.00000   50.00000   50.00000   90.00000   90.00000   90.00000
LATT -1
SFAC C  
C      1  0.5910560000000  0.4296910000000  0.4534730000000 1.0
C      1  0.3983770000000  0.5589240000000  0.4537770000000 1.0
C      1  0.5873770000000  0.5432870000000  0.4709730000000 1.0
C      1  0.4065140000000  0.4322070000000  0.4851910000000 1.0
C      1  0.5622060000000  0.4928240000000  0.4598450000000 1.0
C      1  0.4089240000000  0.4629960000000  0.4479040000000 1.0
C      1  0.4504520000000  0.4422230000000  0.4689440000000 1.0
C      1  0.5422250000000  0.5342170000000  0.4771140000000 1.0
C      1  0.5856770000000  0.5111830000000  0.5876190000000 1.0
C      1  0.3995630000000  0.4929800000000  0.5756600000000 1.0
C      1  0.5865990000000  0.6375880000000  0.3840920000000 1.0
C      1  0.4570730000000  0.4189240000000  0.3805420000000 1.0
C      1  0.5951930000000  0.4034600000000  0.6273950000000 1.0
C      1  0.4177900000000  0.5974130000000  0.6289160000000 1.0
C      1  0.5190230000000  0.3691220000000  0.5212450000000 1.0
C      1  0.4912340000000  0.6186700000000  0.5076990000000 1.0
C      1  0.4525190000000  0.4836510000000  0.5048920000000 1.0
C      1  0.5754990000000  0.5102260000000  0.5027110000000 1.0
C      1  0.5034370000000  0.3927000000000  0.4490450000000 1.0
C      1  0.5165730000000  0.5965710000000  0.4392840000000 1.0
C      1  0.5304580000000  0.5746500000000  0.5430090000000 1.0
C      1  0.4702750000000  0.4187600000000  0.5522090000000 1.0
C      1  0.4599100000000  0.4036730000000  0.5291870000000 1.0
C      1  0.5437280000000  0.5852690000000  0.5175700000000 1.0
C      1  0.5080130000000  0.4582600000000  0.5881750000000 1.0
C      1  0.4799070000000  0.5499400000000  0.5463910000000 1.0
C      1  0.4620190000000  0.4444120000000  0.4216790000000 1.0
C      1  0.5260840000000  0.5290190000000  0.4346870000000 1.0
C      1  0.5535200000000  0.6035500000000  0.4706220000000 1.0
C      1  0.4212250000000  0.3763100000000  0.4635050000000 1.0
C      1  0.4647670000000  0.5557080000000  0.4612990000000 1.0
C      1  0.5448580000000  0.4489960000000  0.4756470000000 1.0
C      1  0.5491310000000  0.4215510000000  0.4790230000000 1.0
C      1  0.4572450000000  0.5810880000000  0.4526620000000 1.0
C      1  0.4767160000000  0.4773620000000  0.5531850000000 1.0
C      1  0.5150620000000  0.5241090000000  0.5639620000000 1.0
C      1  0.4418270000000  0.3995920000000  0.4216930000000 1.0
C      1  0.5585980000000  0.6164170000000  0.4232110000000 1.0
C      1  0.5118590000000  0.3872950000000  0.4762580000000 1.0
C      1  0.4986640000000  0.6055180000000  0.4601680000000 1.0
C      1  0.4702340000000  0.4942810000000  0.4214050000000 1.0
C      1  0.5216920000000  0.5005190000000  0.4331470000000 1.0
C      1  0.3423970000000  0.4865310000000  0.4304150000000 1.0
C      1  0.6562540000000  0.6003040000000  0.3781740000000 1.0
C      1  0.4536130000000  0.4209100000000  0.4076510000000 1.0
C      1  0.5726980000000  0.6271550000000  0.4035220000000 1.0
C      1  0.3686450000000  0.4725510000000  0.5452280000000 1.0
C      1  0.6158870000000  0.5377210000000  0.5609070000000 1.0
C      1  0.5285730000000  0.5449140000000  0.5474160000000 1.0
C      1  0.4660890000000  0.4474640000000  0.5561110000000 1.0
C      1  0.5077950000000  0.4341730000000  0.5179010000000 1.0
C      1  0.4758940000000  0.5566080000000  0.5191040000000 1.0
C      1  0.3955320000000  0.5167360000000  0.5905460000000 1.0
C      1  0.5965430000000  0.4888420000000  0.6015540000000 1.0
C      1  0.5862650000000  0.4671370000000  0.4954990000000 1.0
C      1  0.4232980000000  0.5243490000000  0.4891740000000 1.0
C      1  0.5041880000000  0.4763550000000  0.5679430000000 1.0
C      1  0.4863000000000  0.5273500000000  0.5622060000000 1.0
C      1  0.4909110000000  0.4060460000000  0.5670280000000 1.0
C      1  0.5135560000000  0.5914250000000  0.5582810000000 1.0
C      1  0.5617830000000  0.4171080000000  0.5391230000000 1.0
C      1  0.4510680000000  0.5699180000000  0.5147440000000 1.0
C      1  0.4149930000000  0.3852980000000  0.4880150000000 1.0
C      1  0.5796220000000  0.5927250000000  0.4735740000000 1.0
C      1  0.4731360000000  0.6090090000000  0.5806990000000 1.0
C      1  0.5311180000000  0.3918210000000  0.5921440000000 1.0
C      1  0.5470900000000  0.4858290000000  0.4359540000000 1.0
C      1  0.4538030000000  0.5175370000000  0.4204520000000 1.0
C      1  0.4937080000000  0.4929330000000  0.4383120000000 1.0
C      1  0.4980700000000  0.4425990000000  0.4564150000000 1.0
C      1  0.3791470000000  0.4908200000000  0.5258030000000 1.0
C      1  0.6203350000000  0.5162540000000  0.5426860000000 1.0
C      1  0.5596910000000  0.4621080000000  0.4250900000000 1.0
C      1  0.4317880000000  0.5327910000000  0.4227240000000 1.0
C      1  0.5179420000000  0.4557400000000  0.4722550000000 1.0
C      1  0.4949910000000  0.5505770000000  0.4712420000000 1.0
C      1  0.5202820000000  0.5406200000000  0.4601410000000 1.0
C      1  0.4704760000000  0.4422680000000  0.4486460000000 1.0
C      1  0.4580520000000  0.4704970000000  0.4106900000000 1.0
C      1  0.5465760000000  0.5401270000000  0.4189550000000 1.0
C      1  0.4894620000000  0.6061650000000  0.5580240000000 1.0
C      1  0.5150050000000  0.3914260000000  0.5691400000000 1.0
C      1  0.4429480000000  0.4176070000000  0.5112620000000 1.0
C      1  0.5623790000000  0.5651880000000  0.5071450000000 1.0
C      1  0.5686410000000  0.4297990000000  0.5884820000000 1.0
C      1  0.4306130000000  0.5757750000000  0.5813700000000 1.0
C      1  0.5773840000000  0.4429690000000  0.4338110000000 1.0
C      1  0.4118050000000  0.5471110000000  0.4336240000000 1.0
C      1  0.6008950000000  0.5349130000000  0.5836200000000 1.0
C      1  0.3786170000000  0.4743410000000  0.5706490000000 1.0
C      1  0.4661310000000  0.5061200000000  0.5617550000000 1.0
C      1  0.5244330000000  0.4962310000000  0.5629320000000 1.0
C      1  0.4347980000000  0.4739500000000  0.3950470000000 1.0
C      1  0.5688230000000  0.5488220000000  0.4074950000000 1.0
C      1  0.3945200000000  0.4721530000000  0.4256200000000 1.0
C      1  0.6141900000000  0.5710830000000  0.3917500000000 1.0
C      1  0.5520130000000  0.3723750000000  0.6292740000000 1.0
C      1  0.4608930000000  0.6275300000000  0.6220280000000 1.0
C      1  0.4312490000000  0.3831280000000  0.4397300000000 1.0
C      1  0.5433410000000  0.6054500000000  0.4437680000000 1.0
C      1  0.4765450000000  0.4812350000000  0.5227550000000 1.0
C      1  0.5017240000000  0.4904330000000  0.5098680000000 1.0
C      1  0.5296990000000  0.3715630000000  0.6129710000000 1.0
C      1  0.4794110000000  0.6283430000000  0.6015630000000 1.0
C      1  0.4594920000000  0.4341760000000  0.4946550000000 1.0
C      1  0.5453700000000  0.5432020000000  0.5033640000000 1.0
C      1  0.5979090000000  0.4946090000000  0.5434270000000 1.0
C      1  0.4079290000000  0.4922330000000  0.5265920000000 1.0
C      1  0.6449040000000  0.5008200000000  0.5423540000000 1.0
C      1  0.3655080000000  0.5155450000000  0.5236390000000 1.0
C      1  0.4467960000000  0.5356420000000  0.4744200000000 1.0
C      1  0.5653130000000  0.4696400000000  0.4762100000000 1.0
C      1  0.3177330000000  0.4943460000000  0.4336130000000 1.0
C      1  0.6764030000000  0.6154440000000  0.3715080000000 1.0
C      1  0.3639220000000  0.5372770000000  0.5394470000000 1.0
C      1  0.6410880000000  0.4754350000000  0.5524900000000 1.0
C      1  0.5081180000000  0.6094210000000  0.4873120000000 1.0
C      1  0.5002270000000  0.3780310000000  0.5016180000000 1.0
C      1  0.5105230000000  0.4786060000000  0.3870400000000 1.0
C      1  0.5073340000000  0.5057890000000  0.3844200000000 1.0
C      1  0.5295670000000  0.5316280000000  0.5221700000000 1.0
C      1  0.4860120000000  0.4363340000000  0.5035860000000 1.0
C      1  0.5681750000000  0.5191090000000  0.4732850000000 1.0
C      1  0.4220680000000  0.4469020000000  0.4663970000000 1.0
C      1  0.4833820000000  0.6179870000000  0.5332140000000 1.0
C      1  0.5227070000000  0.3754950000000  0.5470880000000 1.0
C      1  0.4879680000000  0.5374910000000  0.4985580000000 1.0
C      1  0.5076020000000  0.4788950000000  0.4842190000000 1.0
C      1  0.5942880000000  0.4403380000000  0.5953630000000 1.0
C      1  0.4072420000000  0.5649100000000  0.5940230000000 1.0
C      1  0.5381520000000  0.3973880000000  0.4801220000000 1.0
C      1  0.4712180000000  0.6038840000000  0.4545530000000 1.0
C      1  0.5036610000000  0.5575260000000  0.4009920000000 1.0
C      1  0.5122430000000  0.4285630000000  0.4090860000000 1.0
C      1  0.6356070000000  0.5851280000000  0.3849500000000 1.0
C      1  0.3675660000000  0.4788220000000  0.4274150000000 1.0
C      1  0.5885950000000  0.4397720000000  0.5039280000000 1.0
C      1  0.4104660000000  0.5476350000000  0.5006610000000 1.0
C      1  0.5505090000000  0.4873980000000  0.5548990000000 1.0
C      1  0.4391150000000  0.5143550000000  0.5557550000000 1.0
C      1  0.4181970000000  0.4954400000000  0.5537480000000 1.0
C      1  0.5744630000000  0.5017630000000  0.5628540000000 1.0
C      1  0.5605550000000  0.4682700000000  0.5340200000000 1.0
C      1  0.4310830000000  0.5396450000000  0.5450180000000 1.0
C      1  0.5351950000000  0.6019900000000  0.4938540000000 1.0
C      1  0.4756340000000  0.3845680000000  0.5144600000000 1.0
C      1  0.5957480000000  0.4248590000000  0.4802530000000 1.0
C      1  0.3961680000000  0.5616600000000  0.4806920000000 1.0
C      1  0.4261930000000  0.4983380000000  0.5053230000000 1.0
C      1  0.5823890000000  0.4861340000000  0.5185620000000 1.0
C      1  0.5087740000000  0.5786500000000  0.4177910000000 1.0
C      1  0.5083150000000  0.4074310000000  0.4262430000000 1.0
C      1  0.5071600000000  0.5185000000000  0.5117680000000 1.0
C      1  0.4652610000000  0.4938740000000  0.4806760000000 1.0
C      1  0.4179490000000  0.4107150000000  0.4998460000000 1.0
C      1  0.5821010000000  0.5676860000000  0.4861830000000 1.0
C      1  0.4874780000000  0.4872560000000  0.4654060000000 1.0
C      1  0.4666900000000  0.5206810000000  0.4873700000000 1.0
C      1  0.4268730000000  0.5567840000000  0.5225060000000 1.0
C      1  0.5700310000000  0.4400830000000  0.5272030000000 1.0
C      1  0.6035860000000  0.4653300000000  0.5864310000000 1.0
C      1  0.3912270000000  0.5439960000000  0.5836300000000 1.0
C      1  0.5917510000000  0.5589450000000  0.3989080000000 1.0
C      1  0.4088180000000  0.4747180000000  0.4015790000000 1.0
C      1  0.6136780000000  0.4709660000000  0.5601580000000 1.0
C      1  0.3734640000000  0.5482160000000  0.5620100000000 1.0
C      1  0.4408260000000  0.6078260000000  0.6166940000000 1.0
C      1  0.5697130000000  0.3934220000000  0.6211690000000 1.0
C      1  0.5038320000000  0.5326120000000  0.3893160000000 1.0
C      1  0.5122530000000  0.4527390000000  0.3960780000000 1.0
C      1  0.4020430000000  0.5776850000000  0.6188890000000 1.0
C      1  0.6071170000000  0.4246820000000  0.6153150000000 1.0
C      1  0.4484250000000  0.5959350000000  0.5902260000000 1.0
C      1  0.5555590000000  0.4068300000000  0.5984250000000 1.0
END
