TITL C-3623287-7182-219 -3.18384999782547e-07 125000 -65.9812124274389 0 0 11 (Cs) n - 1
REM
REM in /home/nfs/bkarasulu/CARBON/AIRSS/Generating-Clusters/LCBOP/Higher-Symm/SD-CG/FIRE-CG
REM
REM
REM
REM
REM
REM ./C.cell (b20cbc046b6831c77cfcea5457e17084)
REM AIRSS Version 0.9.1 bugfix July 2018 build 013d7b7c2542+ Fri, 06 Jul 2018 19:26:36 +0100
REM compiler GCC version 9.2.1 20190827 (Red Hat 9.2.1-1)
REM options -cpp -mtune=generic -march=x86-64 -g -O0 -fpre-include=/usr/include/finclude/math-vector-fortran.h
REM seed -912849094 -1118378658 -672581473 -146260081 1653862780 -921737610 -557428978 1102646623 -304797273 524627776 3700582 2028847460 -1904943760 1293857648 1620668785 -1074868719 599028527 1914525300 1928752527 900787935 798436797 -883238068 -751178118 1922288968 -1504289922 -741198987 -775482304 292978441 494837150 603631499 -834659252 -1442313831 -97744075
REM
CELL 1.54180   50.00000   50.00000   50.00000   90.00000   90.00000   90.00000
LATT -1
SFAC C  
C      1  0.5000000000000  0.4549180000000  0.5143220000000 1.0
C      1  0.5000000000000  0.4543320000000  0.4876760000000 1.0
C      1  0.5000000000000  0.4682440000000  0.4649420000000 1.0
C      1  0.5000000000000  0.4922390000000  0.4533390000000 1.0
C      1  0.5000000000000  0.5186980000000  0.4565510000000 1.0
C      1  0.5000000000000  0.5392200000000  0.4735570000000 1.0
C      1  0.5000000000000  0.5472910000000  0.4989590000000 1.0
C      1  0.5000000000000  0.5403460000000  0.5246910000000 1.0
C      1  0.5000000000000  0.5205920000000  0.5425850000000 1.0
C      1  0.5000000000000  0.4943000000000  0.5469570000000 1.0
C      1  0.5000000000000  0.4698180000000  0.5364220000000 1.0
END
