TITL C-3623287-7182-1415 -2005.06558787582 125000 -1106.37800056827 0 0 185 (C1) n - 1
REM
REM in /home/nfs/bkarasulu/CARBON/AIRSS/Generating-Clusters/LCBOP/Higher-Symm/SD-CG/FIRE-CG
REM
REM
REM
REM
REM
REM ./C.cell (b20cbc046b6831c77cfcea5457e17084)
REM AIRSS Version 0.9.1 bugfix July 2018 build 013d7b7c2542+ Fri, 06 Jul 2018 19:26:36 +0100
REM compiler GCC version 9.2.1 20190827 (Red Hat 9.2.1-1)
REM options -cpp -mtune=generic -march=x86-64 -g -O0 -fpre-include=/usr/include/finclude/math-vector-fortran.h
REM seed 1570150904 1740489278 1721374843 -179641690 56824855 -970610599 -476660689 -1462025552 48200461 116014511 -1107837205 2042853777 -327883797 1576202060 -726533203 -2006904064 -1724796771 -37345892 -1528492839 -660759181 787118214 -1260811747 -1851076915 -185002707 711297230 587003266 -2136921398 10614946 35788329 443014937 -913953341 1937698971 -1337827417
REM
CELL 1.54180   50.00000   50.00000   50.00000   90.00000   90.00000   90.00000
LATT -1
SFAC C  
C      1  0.4366910000000  0.4416720000000  0.5121520000000 1.0
C      1  0.5582060000000  0.5645130000000  0.4960840000000 1.0
C      1  0.3981350000000  0.4634540000000  0.4148680000000 1.0
C      1  0.6085940000000  0.5058870000000  0.5880660000000 1.0
C      1  0.5148030000000  0.4129200000000  0.5371780000000 1.0
C      1  0.4923070000000  0.5712020000000  0.4453810000000 1.0
C      1  0.5353890000000  0.4478090000000  0.4404800000000 1.0
C      1  0.4653970000000  0.5675160000000  0.5842890000000 1.0
C      1  0.5415890000000  0.4291420000000  0.5909470000000 1.0
C      1  0.4519370000000  0.5682380000000  0.4015260000000 1.0
C      1  0.4231190000000  0.5777930000000  0.5641200000000 1.0
C      1  0.5822070000000  0.4283710000000  0.4383980000000 1.0
C      1  0.5407890000000  0.5934340000000  0.5645660000000 1.0
C      1  0.4694080000000  0.3971980000000  0.4333720000000 1.0
C      1  0.5668770000000  0.5060350000000  0.4236230000000 1.0
C      1  0.4278660000000  0.4810200000000  0.5834390000000 1.0
C      1  0.4955800000000  0.4518060000000  0.4770830000000 1.0
C      1  0.4841580000000  0.5512070000000  0.5113310000000 1.0
C      1  0.5212170000000  0.5655780000000  0.3956790000000 1.0
C      1  0.4783570000000  0.4314860000000  0.5923480000000 1.0
C      1  0.5321960000000  0.5682540000000  0.4832640000000 1.0
C      1  0.4671060000000  0.4364330000000  0.5214200000000 1.0
C      1  0.4985930000000  0.5500000000000  0.3847480000000 1.0
C      1  0.4977480000000  0.4470680000000  0.6071630000000 1.0
C      1  0.4345510000000  0.5656460000000  0.4225840000000 1.0
C      1  0.5588240000000  0.4320100000000  0.5706030000000 1.0
C      1  0.4519710000000  0.5481270000000  0.4645270000000 1.0
C      1  0.5375780000000  0.4576670000000  0.5365930000000 1.0
C      1  0.4278000000000  0.5417970000000  0.5993630000000 1.0
C      1  0.5565640000000  0.4472480000000  0.3993590000000 1.0
C      1  0.5342060000000  0.5741360000000  0.5448010000000 1.0
C      1  0.4701810000000  0.4149480000000  0.4554550000000 1.0
C      1  0.5609430000000  0.4941280000000  0.4004540000000 1.0
C      1  0.4353600000000  0.4957120000000  0.6046710000000 1.0
C      1  0.5811160000000  0.4317980000000  0.4891580000000 1.0
C      1  0.4035910000000  0.5752020000000  0.5201710000000 1.0
C      1  0.5313830000000  0.5269020000000  0.4504980000000 1.0
C      1  0.4661170000000  0.4855190000000  0.5513210000000 1.0
C      1  0.5525480000000  0.4336860000000  0.4880640000000 1.0
C      1  0.4693000000000  0.5747140000000  0.5136620000000 1.0
C      1  0.5480290000000  0.6181780000000  0.4901810000000 1.0
C      1  0.4911130000000  0.3612360000000  0.4922100000000 1.0
C      1  0.4382610000000  0.5113100000000  0.3682190000000 1.0
C      1  0.5636430000000  0.4751050000000  0.6337170000000 1.0
C      1  0.4911670000000  0.4339170000000  0.4546400000000 1.0
C      1  0.4666710000000  0.5828550000000  0.5403830000000 1.0
C      1  0.5264660000000  0.4432790000000  0.6101030000000 1.0
C      1  0.4688950000000  0.5539040000000  0.3828790000000 1.0
C      1  0.5440520000000  0.4723200000000  0.3943470000000 1.0
C      1  0.4468690000000  0.5218150000000  0.6072240000000 1.0
C      1  0.3565480000000  0.4448660000000  0.5035410000000 1.0
C      1  0.6407320000000  0.5520480000000  0.4903760000000 1.0
C      1  0.4561470000000  0.4256670000000  0.5775110000000 1.0
C      1  0.5444450000000  0.5683550000000  0.4106300000000 1.0
C      1  0.6173040000000  0.5373490000000  0.4911040000000 1.0
C      1  0.3780000000000  0.4617700000000  0.5068600000000 1.0
C      1  0.5551650000000  0.5398820000000  0.5091220000000 1.0
C      1  0.4398680000000  0.4679020000000  0.4964380000000 1.0
C      1  0.4898520000000  0.4900480000000  0.5705210000000 1.0
C      1  0.5122110000000  0.5233810000000  0.4300600000000 1.0
C      1  0.5057600000000  0.4074170000000  0.4936030000000 1.0
C      1  0.4929010000000  0.6045470000000  0.4876640000000 1.0
C      1  0.5297150000000  0.5838780000000  0.5901430000000 1.0
C      1  0.4709820000000  0.4105080000000  0.4079180000000 1.0
C      1  0.4737090000000  0.4651000000000  0.5291540000000 1.0
C      1  0.5211950000000  0.5397950000000  0.4761010000000 1.0
C      1  0.6058740000000  0.4708730000000  0.4939590000000 1.0
C      1  0.3853550000000  0.5313480000000  0.5189180000000 1.0
C      1  0.5094110000000  0.3847770000000  0.5385390000000 1.0
C      1  0.5145490000000  0.5994520000000  0.4498940000000 1.0
C      1  0.6244860000000  0.4746310000000  0.4474720000000 1.0
C      1  0.3850830000000  0.5299130000000  0.5727930000000 1.0
C      1  0.6198150000000  0.5094010000000  0.5403690000000 1.0
C      1  0.3879270000000  0.4853100000000  0.4584960000000 1.0
C      1  0.6091330000000  0.4620850000000  0.4667530000000 1.0
C      1  0.3861800000000  0.5422720000000  0.5474420000000 1.0
C      1  0.3907260000000  0.5075560000000  0.5016690000000 1.0
C      1  0.5980530000000  0.4961430000000  0.5043010000000 1.0
C      1  0.5585350000000  0.5278540000000  0.5332310000000 1.0
C      1  0.4322140000000  0.4876710000000  0.4776090000000 1.0
C      1  0.5172270000000  0.4917420000000  0.5623620000000 1.0
C      1  0.4911070000000  0.5435040000000  0.4318500000000 1.0
C      1  0.4782430000000  0.4152240000000  0.5023800000000 1.0
C      1  0.5152210000000  0.5877220000000  0.4969610000000 1.0
C      1  0.5721390000000  0.4975720000000  0.5167580000000 1.0
C      1  0.4189390000000  0.5095740000000  0.4909820000000 1.0
C      1  0.4746800000000  0.5027220000000  0.4950880000000 1.0
C      1  0.5221180000000  0.5029150000000  0.5146280000000 1.0
C      1  0.5052820000000  0.5218400000000  0.3833470000000 1.0
C      1  0.4888390000000  0.4731370000000  0.6146630000000 1.0
C      1  0.5634260000000  0.4906360000000  0.5819380000000 1.0
C      1  0.4456410000000  0.5142010000000  0.4198010000000 1.0
C      1  0.4239340000000  0.4500810000000  0.5404500000000 1.0
C      1  0.5766480000000  0.5458150000000  0.4485630000000 1.0
C      1  0.5189090000000  0.5854830000000  0.5244300000000 1.0
C      1  0.4582590000000  0.4119610000000  0.4810670000000 1.0
C      1  0.5423850000000  0.4595640000000  0.6276150000000 1.0
C      1  0.4543740000000  0.5330510000000  0.3688010000000 1.0
C      1  0.5186290000000  0.4392150000000  0.5265690000000 1.0
C      1  0.4682080000000  0.5728310000000  0.4643670000000 1.0
C      1  0.4420090000000  0.5938510000000  0.5493360000000 1.0
C      1  0.5947310000000  0.4073770000000  0.4259290000000 1.0
C      1  0.4965310000000  0.5436570000000  0.6084760000000 1.0
C      1  0.5003060000000  0.4517750000000  0.4079130000000 1.0
C      1  0.4816960000000  0.5671820000000  0.5607620000000 1.0
C      1  0.5092800000000  0.4395840000000  0.4327420000000 1.0
C      1  0.4227450000000  0.4906910000000  0.3763340000000 1.0
C      1  0.5854120000000  0.4908810000000  0.6307420000000 1.0
C      1  0.5374790000000  0.4962120000000  0.5811910000000 1.0
C      1  0.4668340000000  0.5300460000000  0.4241290000000 1.0
C      1  0.5144760000000  0.5642250000000  0.6028360000000 1.0
C      1  0.4808540000000  0.4337330000000  0.3970110000000 1.0
C      1  0.5137170000000  0.3719490000000  0.5630670000000 1.0
C      1  0.4960090000000  0.6178650000000  0.4627710000000 1.0
C      1  0.4614270000000  0.5161640000000  0.5422980000000 1.0
C      1  0.5326970000000  0.4688350000000  0.4596910000000 1.0
C      1  0.4852940000000  0.6407690000000  0.4533430000000 1.0
C      1  0.5185200000000  0.3609950000000  0.5862210000000 1.0
C      1  0.5585670000000  0.4393760000000  0.4266300000000 1.0
C      1  0.4370310000000  0.5644580000000  0.5856120000000 1.0
C      1  0.5465590000000  0.4620320000000  0.4833510000000 1.0
C      1  0.4390330000000  0.5271610000000  0.5302240000000 1.0
C      1  0.4857430000000  0.4958150000000  0.5983100000000 1.0
C      1  0.5102080000000  0.5053000000000  0.4063480000000 1.0
C      1  0.5277620000000  0.4847660000000  0.5367650000000 1.0
C      1  0.4694890000000  0.5262720000000  0.4772230000000 1.0
C      1  0.6025130000000  0.5959100000000  0.5068980000000 1.0
C      1  0.4083790000000  0.4179350000000  0.4753430000000 1.0
C      1  0.4764160000000  0.5219990000000  0.6064160000000 1.0
C      1  0.5156840000000  0.4765620000000  0.4010330000000 1.0
C      1  0.3933500000000  0.3953730000000  0.4792370000000 1.0
C      1  0.6145770000000  0.6130820000000  0.4893120000000 1.0
C      1  0.5805020000000  0.5806920000000  0.4985480000000 1.0
C      1  0.4325090000000  0.4212920000000  0.4898620000000 1.0
C      1  0.5052450000000  0.4495030000000  0.5034200000000 1.0
C      1  0.4927680000000  0.5422390000000  0.4852000000000 1.0
C      1  0.5600760000000  0.6388620000000  0.5632050000000 1.0
C      1  0.4695540000000  0.3499680000000  0.4216930000000 1.0
C      1  0.5899450000000  0.4886920000000  0.5739540000000 1.0
C      1  0.4211350000000  0.5051110000000  0.4261810000000 1.0
C      1  0.5877450000000  0.4562120000000  0.5368390000000 1.0
C      1  0.4040500000000  0.5374220000000  0.4520440000000 1.0
C      1  0.6373040000000  0.4882470000000  0.4293250000000 1.0
C      1  0.4010910000000  0.5334870000000  0.5942700000000 1.0
C      1  0.5043640000000  0.4761660000000  0.4631750000000 1.0
C      1  0.4864140000000  0.5296010000000  0.5323960000000 1.0
C      1  0.4646910000000  0.4787030000000  0.5050890000000 1.0
C      1  0.5348760000000  0.5226990000000  0.4972900000000 1.0
C      1  0.4739750000000  0.3696540000000  0.4402190000000 1.0
C      1  0.5502330000000  0.6173460000000  0.5489580000000 1.0
C      1  0.4049810000000  0.5509240000000  0.5060350000000 1.0
C      1  0.5945010000000  0.4485880000000  0.5099720000000 1.0
C      1  0.5320340000000  0.4137050000000  0.4882830000000 1.0
C      1  0.4694850000000  0.5886220000000  0.4889050000000 1.0
C      1  0.5652610000000  0.5651450000000  0.4288820000000 1.0
C      1  0.4348830000000  0.4276880000000  0.5601380000000 1.0
C      1  0.6039180000000  0.5042550000000  0.6159110000000 1.0
C      1  0.4088580000000  0.4737360000000  0.3922250000000 1.0
C      1  0.5998820000000  0.4796390000000  0.5491740000000 1.0
C      1  0.4001050000000  0.5095240000000  0.4455760000000 1.0
C      1  0.3932570000000  0.4610900000000  0.4430360000000 1.0
C      1  0.6242440000000  0.5186560000000  0.5669960000000 1.0
C      1  0.4999510000000  0.3688250000000  0.5166400000000 1.0
C      1  0.5402830000000  0.6082120000000  0.4643110000000 1.0
C      1  0.6152010000000  0.5170030000000  0.5122930000000 1.0
C      1  0.3812680000000  0.4840320000000  0.4881800000000 1.0
C      1  0.5622120000000  0.4478460000000  0.5475580000000 1.0
C      1  0.4285700000000  0.5517960000000  0.4475610000000 1.0
C      1  0.4008140000000  0.5688800000000  0.5483610000000 1.0
C      1  0.5930690000000  0.4382160000000  0.4628310000000 1.0
C      1  0.4526600000000  0.4872300000000  0.4566700000000 1.0
C      1  0.5312430000000  0.5459850000000  0.5499070000000 1.0
C      1  0.4368430000000  0.4752750000000  0.5573740000000 1.0
C      1  0.5591700000000  0.5229830000000  0.4445500000000 1.0
C      1  0.4798030000000  0.4863860000000  0.4520090000000 1.0
C      1  0.5013920000000  0.5445280000000  0.5534250000000 1.0
C      1  0.3955310000000  0.4575540000000  0.5298860000000 1.0
C      1  0.5978970000000  0.5421700000000  0.4688500000000 1.0
C      1  0.5560610000000  0.4810100000000  0.5009600000000 1.0
C      1  0.4279070000000  0.5331590000000  0.5050580000000 1.0
C      1  0.5499760000000  0.6198680000000  0.5184480000000 1.0
C      1  0.4829910000000  0.3626650000000  0.4664920000000 1.0
C      1  0.6116560000000  0.5934480000000  0.5325980000000 1.0
C      1  0.3998550000000  0.4373840000000  0.4567620000000 1.0
C      1  0.4952530000000  0.5085570000000  0.5141190000000 1.0
END
