TITL C-3623285-6872-1694 0.561501042146865 125000 -264.691156620817 0 0 45 (C1) n - 1
REM
REM in /home/nfs/bkarasulu/CARBON/AIRSS/Generating-Clusters/LCBOP/Higher-Symm/SD-CG/FIRE-CG
REM
REM
REM
REM
REM
REM ./C.cell (b20cbc046b6831c77cfcea5457e17084)
REM AIRSS Version 0.9.1 bugfix July 2018 build 013d7b7c2542+ Fri, 06 Jul 2018 19:26:36 +0100
REM compiler GCC version 9.2.1 20190827 (Red Hat 9.2.1-1)
REM options -cpp -mtune=generic -march=x86-64 -g -O0 -fpre-include=/usr/include/finclude/math-vector-fortran.h
REM seed 1204590688 1260372047 -995449481 -824106104 -822513969 1786352996 -1467370310 -1943341499 1629044528 -1166104966 2139089772 -349419842 542940468 1523110728 682113462 1156490047 1148661842 -892618271 1020079594 1694004334 1920871351 -1186486278 1787281638 -536894255 232855555 1489264766 -1842663716 -602986826 -175143269 2067257881 -1981294875 2085165769 -826856007
REM
CELL 1.54180   50.00000   50.00000   50.00000   90.00000   90.00000   90.00000
LATT -1
SFAC C  
C      1  0.5115810000000  0.5391430000000  0.5217560000000 1.0
C      1  0.4598150000000  0.4727100000000  0.4970560000000 1.0
C      1  0.5778690000000  0.4255410000000  0.4484310000000 1.0
C      1  0.5130510000000  0.5364840000000  0.5500000000000 1.0
C      1  0.4721420000000  0.4531380000000  0.5562110000000 1.0
C      1  0.5273520000000  0.5229610000000  0.5053800000000 1.0
C      1  0.4535250000000  0.5486130000000  0.5850530000000 1.0
C      1  0.5341260000000  0.5033660000000  0.4888750000000 1.0
C      1  0.5142510000000  0.4375250000000  0.4727450000000 1.0
C      1  0.5385690000000  0.5202880000000  0.4198710000000 1.0
C      1  0.4428310000000  0.4274530000000  0.4937080000000 1.0
C      1  0.4641770000000  0.4915770000000  0.4768430000000 1.0
C      1  0.5224780000000  0.5507330000000  0.6106910000000 1.0
C      1  0.4742550000000  0.5082270000000  0.4587840000000 1.0
C      1  0.4962640000000  0.5447320000000  0.6089300000000 1.0
C      1  0.5317230000000  0.4828210000000  0.4723090000000 1.0
C      1  0.4807230000000  0.5003780000000  0.5564200000000 1.0
C      1  0.4638170000000  0.4449320000000  0.4920940000000 1.0
C      1  0.4924370000000  0.5562030000000  0.5105030000000 1.0
C      1  0.5355470000000  0.5452320000000  0.5645560000000 1.0
C      1  0.4894170000000  0.4358740000000  0.4852240000000 1.0
C      1  0.5859990000000  0.4950050000000  0.4110360000000 1.0
C      1  0.5887880000000  0.4693920000000  0.4220580000000 1.0
C      1  0.5875130000000  0.4457580000000  0.4340930000000 1.0
C      1  0.4455900000000  0.5735690000000  0.5217600000000 1.0
C      1  0.3819860000000  0.5205400000000  0.5334200000000 1.0
C      1  0.4910360000000  0.5250440000000  0.5644870000000 1.0
C      1  0.4683240000000  0.4779430000000  0.5453180000000 1.0
C      1  0.5340650000000  0.4177190000000  0.4729270000000 1.0
C      1  0.5166410000000  0.4619680000000  0.4307800000000 1.0
C      1  0.5586310000000  0.4142320000000  0.4629970000000 1.0
C      1  0.4357710000000  0.5608930000000  0.5694120000000 1.0
C      1  0.6064690000000  0.5059780000000  0.3965590000000 1.0
C      1  0.5622460000000  0.5093790000000  0.4148370000000 1.0
C      1  0.4324980000000  0.5708310000000  0.5448560000000 1.0
C      1  0.5127740000000  0.4590230000000  0.4051740000000 1.0
C      1  0.5138990000000  0.5243980000000  0.4288630000000 1.0
C      1  0.4037650000000  0.5067340000000  0.5295870000000 1.0
C      1  0.4913200000000  0.5200810000000  0.4422150000000 1.0
C      1  0.4795360000000  0.5385270000000  0.5871100000000 1.0
C      1  0.4262870000000  0.4932660000000  0.5259610000000 1.0
C      1  0.4513320000000  0.4813200000000  0.5227830000000 1.0
C      1  0.5402580000000  0.5511850000000  0.5903910000000 1.0
C      1  0.4686140000000  0.5679850000000  0.5095600000000 1.0
C      1  0.5207070000000  0.4612980000000  0.4583770000000 1.0
END
