TITL C-3623287-7182-1478 2.90244836086444e-07 125000 -558.769189946658 0 0 101 (Cs) n - 1
REM
REM in /home/nfs/bkarasulu/CARBON/AIRSS/Generating-Clusters/LCBOP/Higher-Symm/SD-CG/FIRE-CG
REM
REM
REM
REM
REM
REM ./C.cell (b20cbc046b6831c77cfcea5457e17084)
REM AIRSS Version 0.9.1 bugfix July 2018 build 013d7b7c2542+ Fri, 06 Jul 2018 19:26:36 +0100
REM compiler GCC version 9.2.1 20190827 (Red Hat 9.2.1-1)
REM options -cpp -mtune=generic -march=x86-64 -g -O0 -fpre-include=/usr/include/finclude/math-vector-fortran.h
REM seed 1189779048 777981088 674852310 1404166076 2044593475 -2088876088 1199960995 680864485 1226389336 -1748042704 -1729772731 626717753 383515292 12207354 9305627 1577916746 1749058346 -1929551847 1442148165 -1436698174 -1451819927 1723325339 -1811500464 -381451415 644910039 183531554 320226286 -934712706 487953265 112138070 -1662803097 -1292887763 453756495
REM
CELL 1.54180   50.00000   50.00000   50.00000   90.00000   90.00000   90.00000
LATT -1
SFAC C  
C      1  0.4383510000000  0.4446520000000  0.5273220000000 1.0
C      1  0.5541580000000  0.4446410000000  0.5389150000000 1.0
C      1  0.5067230000000  0.4446480000000  0.4332180000000 1.0
C      1  0.4383540000000  0.5547200000000  0.5273260000000 1.0
C      1  0.5541600000000  0.5547250000000  0.5389190000000 1.0
C      1  0.5067250000000  0.5547280000000  0.4332220000000 1.0
C      1  0.5422750000000  0.5263690000000  0.5420230000000 1.0
C      1  0.5154040000000  0.5263830000000  0.4418920000000 1.0
C      1  0.4414420000000  0.5263600000000  0.5154770000000 1.0
C      1  0.5422740000000  0.4729970000000  0.5420220000000 1.0
C      1  0.5154030000000  0.4729910000000  0.4418910000000 1.0
C      1  0.4414410000000  0.4730120000000  0.5154750000000 1.0
C      1  0.4493280000000  0.4212630000000  0.5143830000000 1.0
C      1  0.5374520000000  0.4212850000000  0.5359400000000 1.0
C      1  0.5123470000000  0.4212140000000  0.4491140000000 1.0
C      1  0.4493320000000  0.5781090000000  0.5143890000000 1.0
C      1  0.5374550000000  0.5780820000000  0.5359450000000 1.0
C      1  0.5123500000000  0.5781600000000  0.4491200000000 1.0
C      1  0.5196110000000  0.5224990000000  0.5886770000000 1.0
C      1  0.5671810000000  0.5225020000000  0.4380540000000 1.0
C      1  0.4127160000000  0.5225040000000  0.4723110000000 1.0
C      1  0.5196100000000  0.4768650000000  0.5886750000000 1.0
C      1  0.5671810000000  0.4768710000000  0.4380520000000 1.0
C      1  0.4127150000000  0.4768720000000  0.4723090000000 1.0
C      1  0.5167320000000  0.5130250000000  0.4149750000000 1.0
C      1  0.4173730000000  0.5130330000000  0.5276000000000 1.0
C      1  0.5648480000000  0.5130190000000  0.5567680000000 1.0
C      1  0.5167320000000  0.4863510000000  0.4149740000000 1.0
C      1  0.4173720000000  0.4863400000000  0.5275990000000 1.0
C      1  0.5648480000000  0.4863450000000  0.5567670000000 1.0
C      1  0.4917570000000  0.4544930000000  0.4806970000000 1.0
C      1  0.4866780000000  0.4544520000000  0.5164750000000 1.0
C      1  0.5208950000000  0.4542990000000  0.5020700000000 1.0
C      1  0.4917590000000  0.5448800000000  0.4807000000000 1.0
C      1  0.4866800000000  0.5449190000000  0.5164780000000 1.0
C      1  0.5208970000000  0.5450710000000  0.5020740000000 1.0
C      1  0.4914280000000  0.4844980000000  0.5970500000000 1.0
C      1  0.5885280000000  0.4844860000000  0.4582830000000 1.0
C      1  0.4198180000000  0.4845060000000  0.4437920000000 1.0
C      1  0.4914290000000  0.5148670000000  0.5970510000000 1.0
C      1  0.5885290000000  0.5148840000000  0.4582840000000 1.0
C      1  0.4198190000000  0.5148720000000  0.4437930000000 1.0
C      1  0.4382450000000  0.4494570000000  0.5569650000000 1.0
C      1  0.5800060000000  0.4494260000000  0.5243750000000 1.0
C      1  0.4811820000000  0.4494550000000  0.4181620000000 1.0
C      1  0.4382470000000  0.5499120000000  0.5569690000000 1.0
C      1  0.5800090000000  0.5499400000000  0.5243790000000 1.0
C      1  0.4811840000000  0.5499230000000  0.4181650000000 1.0
C      1  0.4447430000000  0.5303560000000  0.4413450000000 1.0
C      1  0.4766490000000  0.5303470000000  0.5768200000000 1.0
C      1  0.5783790000000  0.5303850000000  0.4811950000000 1.0
C      1  0.4447420000000  0.4690220000000  0.4413430000000 1.0
C      1  0.4766480000000  0.4690190000000  0.5768180000000 1.0
C      1  0.5783780000000  0.4689840000000  0.4811930000000 1.0
C      1  0.4592630000000  0.4789000000000  0.4647830000000 1.0
C      1  0.4894950000000  0.4789110000000  0.5524220000000 1.0
C      1  0.5508570000000  0.4789400000000  0.4822680000000 1.0
C      1  0.4592640000000  0.5204750000000  0.4647850000000 1.0
C      1  0.4894960000000  0.5204570000000  0.5524230000000 1.0
C      1  0.5508580000000  0.5204310000000  0.4822700000000 1.0
C      1  0.5454410000000  0.4364500000000  0.4928650000000 1.0
C      1  0.4714650000000  0.4366170000000  0.4640100000000 1.0
C      1  0.4827090000000  0.4366020000000  0.5423380000000 1.0
C      1  0.5454440000000  0.5629190000000  0.4928690000000 1.0
C      1  0.4714680000000  0.5627570000000  0.4640140000000 1.0
C      1  0.4827120000000  0.5627660000000  0.5423430000000 1.0
C      1  0.4599550000000  0.5544180000000  0.4373500000000 1.0
C      1  0.4654900000000  0.5544110000000  0.5657130000000 1.0
C      1  0.5742460000000  0.5544870000000  0.4963520000000 1.0
C      1  0.4599520000000  0.4449590000000  0.4373460000000 1.0
C      1  0.4654880000000  0.4449570000000  0.5657090000000 1.0
C      1  0.5742440000000  0.4448820000000  0.4963490000000 1.0
C      1  0.4395750000000  0.5157970000000  0.4876550000000 1.0
C      1  0.5191970000000  0.5158100000000  0.5577310000000 1.0
C      1  0.5405970000000  0.5158180000000  0.4538880000000 1.0
C      1  0.4395750000000  0.4835770000000  0.4876530000000 1.0
C      1  0.5191960000000  0.4835560000000  0.5577300000000 1.0
C      1  0.5405970000000  0.4835550000000  0.4538870000000 1.0
C      1  0.4892080000000  0.4809310000000  0.4660220000000 1.0
C      1  0.4754610000000  0.4809120000000  0.5259930000000 1.0
C      1  0.5347060000000  0.4808440000000  0.5073340000000 1.0
C      1  0.4892090000000  0.5184430000000  0.4660240000000 1.0
C      1  0.4754620000000  0.5184580000000  0.5259940000000 1.0
C      1  0.5347070000000  0.5185250000000  0.5073360000000 1.0
C      1  0.5083090000000  0.4069040000000  0.4721700000000 1.0
C      1  0.4713010000000  0.4069850000000  0.5062020000000 1.0
C      1  0.5193040000000  0.4070230000000  0.5211250000000 1.0
C      1  0.5083130000000  0.5924690000000  0.4721770000000 1.0
C      1  0.4713050000000  0.5923870000000  0.5062080000000 1.0
C      1  0.5193080000000  0.5923460000000  0.5211320000000 1.0
C      1  0.5973650000000  0.4725940000000  0.5289950000000 1.0
C      1  0.4764040000000  0.4726010000000  0.4008290000000 1.0
C      1  0.4256440000000  0.4726080000000  0.5697360000000 1.0
C      1  0.5973660000000  0.5267710000000  0.5289970000000 1.0
C      1  0.4764050000000  0.5267780000000  0.4008310000000 1.0
C      1  0.4256450000000  0.5267620000000  0.5697380000000 1.0
C      1  0.4731060000000  0.4996900000000  0.3969660000000 1.0
C      1  0.4239490000000  0.4996840000000  0.5744970000000 1.0
C      1  0.6023560000000  0.4996820000000  0.5280930000000 1.0
C      1  0.4996190000000  0.5949570000000  0.4998510000000 1.0
C      1  0.4996160000000  0.4044140000000  0.4998440000000 1.0
END
