TITL C-3623284-6838-388 -3.31486502034619e-07 125000 -536.737428668049 0 0 87 (C1) n - 1
REM
REM in /home/nfs/bkarasulu/CARBON/AIRSS/Generating-Clusters/LCBOP/Higher-Symm/SD-CG/FIRE-CG
REM
REM
REM
REM
REM
REM ./C.cell (b20cbc046b6831c77cfcea5457e17084)
REM AIRSS Version 0.9.1 bugfix July 2018 build 013d7b7c2542+ Fri, 06 Jul 2018 19:26:36 +0100
REM compiler GCC version 9.2.1 20190827 (Red Hat 9.2.1-1)
REM options -cpp -mtune=generic -march=x86-64 -g -O0 -fpre-include=/usr/include/finclude/math-vector-fortran.h
REM seed -1892445830 -1130088074 197939348 1620844060 -883446921 867541592 524830340 -258548652 1636711023 585770922 -1162471350 -188492508 -963829861 -531665848 -1780554397 1566285923 -1981180627 538308678 -505964738 -1916359312 -839253397 642658907 478450176 -2003336402 244034245 663003659 -542266161 1171742230 -1728990671 849826530 -1401343266 -995545078 -1665566067
REM
CELL 1.54180   50.00000   50.00000   50.00000   90.00000   90.00000   90.00000
LATT -1
SFAC C  
C      1  0.4872960000000  0.4518440000000  0.4501120000000 1.0
C      1  0.5479510000000  0.5132980000000  0.4503900000000 1.0
C      1  0.4644240000000  0.5350210000000  0.4506590000000 1.0
C      1  0.4848350000000  0.4229070000000  0.5335060000000 1.0
C      1  0.5745920000000  0.5236600000000  0.5334230000000 1.0
C      1  0.4413040000000  0.5524220000000  0.5334590000000 1.0
C      1  0.4195490000000  0.5329220000000  0.5301350000000 1.0
C      1  0.5131700000000  0.4154350000000  0.5300970000000 1.0
C      1  0.5688140000000  0.5523540000000  0.5300540000000 1.0
C      1  0.4142090000000  0.5156260000000  0.5524330000000 1.0
C      1  0.5313560000000  0.4198150000000  0.5519850000000 1.0
C      1  0.5568790000000  0.5658810000000  0.5523980000000 1.0
C      1  0.4739800000000  0.5895760000000  0.5387810000000 1.0
C      1  0.4361410000000  0.4321950000000  0.5387070000000 1.0
C      1  0.5888920000000  0.4767190000000  0.5387910000000 1.0
C      1  0.4959620000000  0.5332530000000  0.5258640000000 1.0
C      1  0.4731800000000  0.4790950000000  0.5253620000000 1.0
C      1  0.5309750000000  0.4858290000000  0.5252200000000 1.0
C      1  0.4637760000000  0.5639190000000  0.5491880000000 1.0
C      1  0.4634520000000  0.4364170000000  0.5492120000000 1.0
C      1  0.5721340000000  0.4981560000000  0.5491010000000 1.0
C      1  0.4287880000000  0.4939480000000  0.4331360000000 1.0
C      1  0.5405040000000  0.4418930000000  0.4320970000000 1.0
C      1  0.5302360000000  0.5645170000000  0.4330580000000 1.0
C      1  0.5668320000000  0.5328490000000  0.4615220000000 1.0
C      1  0.4379460000000  0.5413680000000  0.4618410000000 1.0
C      1  0.4950310000000  0.4257480000000  0.4611140000000 1.0
C      1  0.5210870000000  0.5224940000000  0.4520460000000 1.0
C      1  0.4698550000000  0.5071330000000  0.4520640000000 1.0
C      1  0.5086850000000  0.4705430000000  0.4515780000000 1.0
C      1  0.5104750000000  0.5595260000000  0.5648010000000 1.0
C      1  0.4436160000000  0.4789950000000  0.5645660000000 1.0
C      1  0.5321420000000  0.4818590000000  0.5749480000000 1.0
C      1  0.5564870000000  0.4168580000000  0.5063130000000 1.0
C      1  0.5440840000000  0.5889740000000  0.5092340000000 1.0
C      1  0.4008930000000  0.4929510000000  0.5092260000000 1.0
C      1  0.4588580000000  0.5712490000000  0.4914620000000 1.0
C      1  0.4588290000000  0.4279740000000  0.4910570000000 1.0
C      1  0.5827690000000  0.4997580000000  0.4908290000000 1.0
C      1  0.4714310000000  0.4968700000000  0.4787600000000 1.0
C      1  0.5168830000000  0.4766470000000  0.4783180000000 1.0
C      1  0.5115230000000  0.5262500000000  0.4787970000000 1.0
C      1  0.4226410000000  0.5193160000000  0.4757570000000 1.0
C      1  0.5218140000000  0.4236540000000  0.4748170000000 1.0
C      1  0.5555040000000  0.5570000000000  0.4755930000000 1.0
C      1  0.4871200000000  0.5534110000000  0.4489320000000 1.0
C      1  0.4600570000000  0.4622210000000  0.4486860000000 1.0
C      1  0.5525180000000  0.4845550000000  0.4483000000000 1.0
C      1  0.4362570000000  0.4462900000000  0.4914390000000 1.0
C      1  0.5784570000000  0.4711000000000  0.4907030000000 1.0
C      1  0.4858790000000  0.5818340000000  0.4916620000000 1.0
C      1  0.5898150000000  0.5185580000000  0.4707520000000 1.0
C      1  0.4389910000000  0.5683250000000  0.4713710000000 1.0
C      1  0.4713560000000  0.4128040000000  0.4705600000000 1.0
C      1  0.5299770000000  0.5753580000000  0.5521750000000 1.0
C      1  0.4199590000000  0.4876890000000  0.5520950000000 1.0
C      1  0.5566630000000  0.4300790000000  0.5504640000000 1.0
C      1  0.5312140000000  0.4693870000000  0.4333530000000 1.0
C      1  0.5109610000000  0.5427730000000  0.4339360000000 1.0
C      1  0.4572680000000  0.4883160000000  0.4339360000000 1.0
C      1  0.4129250000000  0.5189310000000  0.5037210000000 1.0
C      1  0.5275400000000  0.4156130000000  0.5028140000000 1.0
C      1  0.5601630000000  0.5653080000000  0.5036390000000 1.0
C      1  0.4715780000000  0.5267690000000  0.5131040000000 1.0
C      1  0.4906750000000  0.4612680000000  0.5122380000000 1.0
C      1  0.5377810000000  0.5102860000000  0.5122790000000 1.0
C      1  0.4120380000000  0.4741690000000  0.5273740000000 1.0
C      1  0.5690870000000  0.4341130000000  0.5249640000000 1.0
C      1  0.5222970000000  0.5889650000000  0.5274260000000 1.0
C      1  0.5619880000000  0.4622600000000  0.4684380000000 1.0
C      1  0.5017860000000  0.5724050000000  0.4693740000000 1.0
C      1  0.4363920000000  0.4650780000000  0.4692870000000 1.0
C      1  0.5155900000000  0.4711270000000  0.5059410000000 1.0
C      1  0.5167010000000  0.5271910000000  0.5065480000000 1.0
C      1  0.4678200000000  0.5002880000000  0.5065490000000 1.0
C      1  0.4797750000000  0.4358790000000  0.5083470000000 1.0
C      1  0.5652050000000  0.5133950000000  0.5082650000000 1.0
C      1  0.4553980000000  0.5490200000000  0.5086840000000 1.0
C      1  0.4243980000000  0.4495680000000  0.5182560000000 1.0
C      1  0.5817210000000  0.4586070000000  0.5171860000000 1.0
C      1  0.4948210000000  0.5907110000000  0.5183040000000 1.0
C      1  0.5442640000000  0.4875240000000  0.5511700000000 1.0
C      1  0.4892820000000  0.5475610000000  0.5505560000000 1.0
C      1  0.4645820000000  0.4666310000000  0.5503480000000 1.0
C      1  0.4220160000000  0.4920870000000  0.4620890000000 1.0
C      1  0.5456590000000  0.4365570000000  0.4609140000000 1.0
C      1  0.5322470000000  0.5712700000000  0.4620110000000 1.0
END
