TITL C-3623285-6872-117 -537559.281545238 125000 -1220.80089583781 0 0 200 (C1) n - 1
REM
REM in /home/nfs/bkarasulu/CARBON/AIRSS/Generating-Clusters/LCBOP/Higher-Symm/SD-CG/FIRE-CG
REM
REM
REM
REM
REM
REM ./C.cell (b20cbc046b6831c77cfcea5457e17084)
REM AIRSS Version 0.9.1 bugfix July 2018 build 013d7b7c2542+ Fri, 06 Jul 2018 19:26:36 +0100
REM compiler GCC version 9.2.1 20190827 (Red Hat 9.2.1-1)
REM options -cpp -mtune=generic -march=x86-64 -g -O0 -fpre-include=/usr/include/finclude/math-vector-fortran.h
REM seed -1861586171 88704694 -708217146 1186624638 -1697839420 -880243113 -1137632469 -373868987 -54727496 1811088035 -1064641845 -125701067 -10013943 -509689131 1611740159 372289334 1043672873 52596879 -739926661 -2018163630 -1466717088 672694378 2102132695 -897570977 780449534 48312494 -244303795 -548356696 360520642 -1022768862 669288454 260454798 1906803729
REM
CELL 1.54180   50.00000   50.00000   50.00000   90.00000   90.00000   90.00000
LATT -1
SFAC C  
C      1  0.4737240000000  0.4395450000000  0.5612920000000 1.0
C      1  0.4362770000000  0.5723550000000  0.4780040000000 1.0
C      1  0.5819240000000  0.4870690000000  0.4257120000000 1.0
C      1  0.5133170000000  0.4433890000000  0.4366260000000 1.0
C      1  0.5252130000000  0.5546730000000  0.5622950000000 1.0
C      1  0.4731230000000  0.5573470000000  0.4515260000000 1.0
C      1  0.5552370000000  0.5710270000000  0.5150360000000 1.0
C      1  0.5526720000000  0.4447660000000  0.4876830000000 1.0
C      1  0.4431480000000  0.4349080000000  0.5262800000000 1.0
C      1  0.4395880000000  0.4697800000000  0.5560920000000 1.0
C      1  0.4183480000000  0.5129810000000  0.4194920000000 1.0
C      1  0.5569620000000  0.5143780000000  0.5647600000000 1.0
C      1  0.4747180000000  0.5521090000000  0.5575710000000 1.0
C      1  0.4472930000000  0.4498660000000  0.4777560000000 1.0
C      1  0.5814650000000  0.5160100000000  0.4258010000000 1.0
C      1  0.5205790000000  0.5636450000000  0.4320840000000 1.0
C      1  0.5299580000000  0.4351160000000  0.5698770000000 1.0
C      1  0.4866770000000  0.4329630000000  0.4294950000000 1.0
C      1  0.5681330000000  0.4235180000000  0.5370330000000 1.0
C      1  0.5221180000000  0.5361260000000  0.4700370000000 1.0
C      1  0.4436890000000  0.5709910000000  0.5196410000000 1.0
C      1  0.4408400000000  0.5234530000000  0.5627960000000 1.0
C      1  0.4187690000000  0.4843500000000  0.4208270000000 1.0
C      1  0.5756850000000  0.4602880000000  0.5692330000000 1.0
C      1  0.4515560000000  0.5249550000000  0.4790820000000 1.0
C      1  0.5138570000000  0.4767770000000  0.4485360000000 1.0
C      1  0.4685670000000  0.4302900000000  0.5140740000000 1.0
C      1  0.5550400000000  0.5112250000000  0.5361720000000 1.0
C      1  0.5338490000000  0.4882920000000  0.4726090000000 1.0
C      1  0.4404090000000  0.4866710000000  0.5330210000000 1.0
C      1  0.4880450000000  0.4645180000000  0.5629770000000 1.0
C      1  0.4842960000000  0.5339330000000  0.4394230000000 1.0
C      1  0.5141820000000  0.5280930000000  0.5566580000000 1.0
C      1  0.5285610000000  0.4430250000000  0.5007070000000 1.0
C      1  0.5284400000000  0.5644570000000  0.5089490000000 1.0
C      1  0.4617120000000  0.5542760000000  0.4794200000000 1.0
C      1  0.4607560000000  0.4973840000000  0.4719640000000 1.0
C      1  0.5144640000000  0.5348370000000  0.4415610000000 1.0
C      1  0.4696680000000  0.5624030000000  0.5072740000000 1.0
C      1  0.5486610000000  0.4840320000000  0.5278720000000 1.0
C      1  0.5374380000000  0.5147080000000  0.4793700000000 1.0
C      1  0.4416670000000  0.5142020000000  0.5359790000000 1.0
C      1  0.4864710000000  0.5278890000000  0.5603420000000 1.0
C      1  0.4807460000000  0.4871120000000  0.4514880000000 1.0
C      1  0.5179790000000  0.4622210000000  0.5585160000000 1.0
C      1  0.5190410000000  0.5602080000000  0.4838250000000 1.0
C      1  0.5276860000000  0.4646200000000  0.5290540000000 1.0
C      1  0.4698810000000  0.4364580000000  0.4867300000000 1.0
C      1  0.3845680000000  0.4707060000000  0.5405840000000 1.0
C      1  0.4680990000000  0.5617910000000  0.3951980000000 1.0
C      1  0.5549660000000  0.3940070000000  0.4717540000000 1.0
C      1  0.5979750000000  0.4713240000000  0.4481870000000 1.0
C      1  0.6072550000000  0.5347560000000  0.5467160000000 1.0
C      1  0.3982390000000  0.5257380000000  0.4385220000000 1.0
C      1  0.5371680000000  0.5556350000000  0.5919770000000 1.0
C      1  0.5272620000000  0.4441340000000  0.4078820000000 1.0
C      1  0.4680380000000  0.4453190000000  0.6112270000000 1.0
C      1  0.4485100000000  0.3842400000000  0.5316390000000 1.0
C      1  0.4387650000000  0.6009340000000  0.4695710000000 1.0
C      1  0.5579610000000  0.6002970000000  0.5261210000000 1.0
C      1  0.3947920000000  0.5290670000000  0.5544500000000 1.0
C      1  0.4741330000000  0.4419370000000  0.4033660000000 1.0
C      1  0.5609630000000  0.6068160000000  0.4699780000000 1.0
C      1  0.5966190000000  0.5285210000000  0.4497040000000 1.0
C      1  0.6018100000000  0.4714090000000  0.5539860000000 1.0
C      1  0.4017850000000  0.4696730000000  0.4428730000000 1.0
C      1  0.5279740000000  0.4400370000000  0.6060900000000 1.0
C      1  0.5287230000000  0.5643000000000  0.4028290000000 1.0
C      1  0.4785240000000  0.5568090000000  0.6069380000000 1.0
C      1  0.4470340000000  0.6000990000000  0.5294900000000 1.0
C      1  0.4424150000000  0.3919790000000  0.4694310000000 1.0
C      1  0.5576750000000  0.3947900000000  0.5334270000000 1.0
C      1  0.4703100000000  0.4884700000000  0.4204600000000 1.0
C      1  0.4845830000000  0.4131570000000  0.4737400000000 1.0
C      1  0.4375310000000  0.4783710000000  0.4818540000000 1.0
C      1  0.5291760000000  0.4815330000000  0.5828300000000 1.0
C      1  0.5291040000000  0.5190320000000  0.4181570000000 1.0
C      1  0.4813840000000  0.5132350000000  0.5848720000000 1.0
C      1  0.5100480000000  0.4047300000000  0.5322680000000 1.0
C      1  0.5143090000000  0.5932480000000  0.4686670000000 1.0
C      1  0.4872380000000  0.5845770000000  0.5132280000000 1.0
C      1  0.5736370000000  0.4735800000000  0.5146070000000 1.0
C      1  0.5635310000000  0.5215540000000  0.4884870000000 1.0
C      1  0.4182310000000  0.5305490000000  0.5141990000000 1.0
C      1  0.4707260000000  0.5188210000000  0.4156810000000 1.0
C      1  0.4869000000000  0.6023750000000  0.4613540000000 1.0
C      1  0.4207680000000  0.5297210000000  0.4848190000000 1.0
C      1  0.5300540000000  0.5104530000000  0.5774560000000 1.0
C      1  0.5293420000000  0.4895670000000  0.4205130000000 1.0
C      1  0.4747510000000  0.4843710000000  0.5847100000000 1.0
C      1  0.5138520000000  0.5866350000000  0.5237700000000 1.0
C      1  0.5131940000000  0.4170820000000  0.4791120000000 1.0
C      1  0.4850510000000  0.4082790000000  0.5215340000000 1.0
C      1  0.5726640000000  0.5271240000000  0.5157910000000 1.0
C      1  0.5627280000000  0.4722750000000  0.4859700000000 1.0
C      1  0.4232890000000  0.4767750000000  0.5103120000000 1.0
C      1  0.5162590000000  0.4086130000000  0.5617140000000 1.0
C      1  0.4206060000000  0.5572110000000  0.5265550000000 1.0
C      1  0.5587790000000  0.5292420000000  0.4149340000000 1.0
C      1  0.4747460000000  0.4138550000000  0.4454000000000 1.0
C      1  0.4900010000000  0.5844080000000  0.5671480000000 1.0
C      1  0.5289570000000  0.5869040000000  0.4443830000000 1.0
C      1  0.5909540000000  0.5700170000000  0.4819240000000 1.0
C      1  0.5872870000000  0.4390320000000  0.5179640000000 1.0
C      1  0.4199230000000  0.4340990000000  0.4818320000000 1.0
C      1  0.4274310000000  0.5059210000000  0.5813460000000 1.0
C      1  0.4435030000000  0.4733360000000  0.4170650000000 1.0
C      1  0.5620900000000  0.4696260000000  0.5915830000000 1.0
C      1  0.5177700000000  0.5819290000000  0.5528180000000 1.0
C      1  0.4165230000000  0.4446970000000  0.5122050000000 1.0
C      1  0.5576640000000  0.4757700000000  0.4192200000000 1.0
C      1  0.4738270000000  0.5867660000000  0.4375230000000 1.0
C      1  0.4822290000000  0.4126820000000  0.5733520000000 1.0
C      1  0.5263830000000  0.4244770000000  0.4535630000000 1.0
C      1  0.5804710000000  0.4300490000000  0.4882560000000 1.0
C      1  0.5798800000000  0.5566760000000  0.5139380000000 1.0
C      1  0.4140910000000  0.5566770000000  0.4717630000000 1.0
C      1  0.4431070000000  0.4799990000000  0.5841150000000 1.0
C      1  0.4413600000000  0.5277480000000  0.4118470000000 1.0
C      1  0.5766010000000  0.5283670000000  0.5799880000000 1.0
C      1  0.5843020000000  0.5126800000000  0.4721850000000 1.0
C      1  0.5138440000000  0.4674760000000  0.6065420000000 1.0
C      1  0.4704720000000  0.6078590000000  0.5093510000000 1.0
C      1  0.3942390000000  0.5172110000000  0.5261290000000 1.0
C      1  0.4127050000000  0.4851790000000  0.4662140000000 1.0
C      1  0.5958990000000  0.4881890000000  0.5285740000000 1.0
C      1  0.4866750000000  0.4712470000000  0.4013460000000 1.0
C      1  0.4932230000000  0.5307710000000  0.6056340000000 1.0
C      1  0.5152690000000  0.5364560000000  0.3945730000000 1.0
C      1  0.5345570000000  0.6105390000000  0.4844110000000 1.0
C      1  0.5318920000000  0.3941210000000  0.5168140000000 1.0
C      1  0.4683470000000  0.3879030000000  0.4837180000000 1.0
C      1  0.5849160000000  0.4845990000000  0.4716270000000 1.0
C      1  0.5234340000000  0.5290650000000  0.6021500000000 1.0
C      1  0.4705070000000  0.3848470000000  0.5120850000000 1.0
C      1  0.3949860000000  0.4892190000000  0.5201340000000 1.0
C      1  0.4057750000000  0.5122950000000  0.4664500000000 1.0
C      1  0.5998980000000  0.5161090000000  0.5252170000000 1.0
C      1  0.4851090000000  0.5362560000000  0.3929090000000 1.0
C      1  0.4857310000000  0.4693420000000  0.6093030000000 1.0
C      1  0.5150590000000  0.4721470000000  0.3999030000000 1.0
C      1  0.5306660000000  0.3943440000000  0.4885070000000 1.0
C      1  0.5320270000000  0.6100660000000  0.5135060000000 1.0
C      1  0.4664260000000  0.6109540000000  0.4802480000000 1.0
C      1  0.5164330000000  0.4244830000000  0.3881580000000 1.0
C      1  0.4246950000000  0.3915640000000  0.5152190000000 1.0
C      1  0.3728340000000  0.5095850000000  0.4329240000000 1.0
C      1  0.4824170000000  0.4203920000000  0.6035480000000 1.0
C      1  0.4828460000000  0.5839120000000  0.4074560000000 1.0
C      1  0.5220270000000  0.5784450000000  0.6043610000000 1.0
C      1  0.5780000000000  0.3996810000000  0.4879670000000 1.0
C      1  0.5825950000000  0.6089280000000  0.5118450000000 1.0
C      1  0.4201880000000  0.6155750000000  0.4889080000000 1.0
C      1  0.6035190000000  0.5213160000000  0.5722500000000 1.0
C      1  0.6245770000000  0.4862820000000  0.4465640000000 1.0
C      1  0.3850890000000  0.4826710000000  0.5665750000000 1.0
C      1  0.5094240000000  0.5864550000000  0.3949840000000 1.0
C      1  0.4240630000000  0.6152100000000  0.5165610000000 1.0
C      1  0.3744520000000  0.4817150000000  0.4366590000000 1.0
C      1  0.4942760000000  0.5792400000000  0.5968460000000 1.0
C      1  0.4890310000000  0.4250640000000  0.3837280000000 1.0
C      1  0.5091620000000  0.4191510000000  0.6146030000000 1.0
C      1  0.5839190000000  0.5984010000000  0.4851730000000 1.0
C      1  0.5782270000000  0.3852010000000  0.5130840000000 1.0
C      1  0.4232390000000  0.4034740000000  0.4878500000000 1.0
C      1  0.6121170000000  0.4935930000000  0.5726600000000 1.0
C      1  0.6239390000000  0.5143610000000  0.4471650000000 1.0
C      1  0.3990520000000  0.5069940000000  0.5738030000000 1.0
C      1  0.5516610000000  0.4119830000000  0.4491090000000 1.0
C      1  0.3921520000000  0.4447640000000  0.5304310000000 1.0
C      1  0.4412340000000  0.5562140000000  0.4064560000000 1.0
C      1  0.4595400000000  0.3913340000000  0.5583310000000 1.0
C      1  0.4423310000000  0.5941770000000  0.4389070000000 1.0
C      1  0.5545980000000  0.5931710000000  0.5545760000000 1.0
C      1  0.5894800000000  0.4412640000000  0.4539410000000 1.0
C      1  0.5927420000000  0.5607460000000  0.5426440000000 1.0
C      1  0.4075270000000  0.5550670000000  0.4434270000000 1.0
C      1  0.5668870000000  0.5552790000000  0.5849560000000 1.0
C      1  0.5562670000000  0.4470940000000  0.4164520000000 1.0
C      1  0.4417800000000  0.4566860000000  0.6042960000000 1.0
C      1  0.5565870000000  0.5931470000000  0.4450830000000 1.0
C      1  0.4116560000000  0.5544410000000  0.5536880000000 1.0
C      1  0.4452390000000  0.4448560000000  0.4127290000000 1.0
C      1  0.4561400000000  0.5917790000000  0.5593870000000 1.0
C      1  0.4467990000000  0.4065930000000  0.4441560000000 1.0
C      1  0.5430150000000  0.3900300000000  0.5617850000000 1.0
C      1  0.5899920000000  0.5582310000000  0.4545900000000 1.0
C      1  0.6099520000000  0.4458310000000  0.5381250000000 1.0
C      1  0.4100380000000  0.4398960000000  0.4504640000000 1.0
C      1  0.5556760000000  0.4496990000000  0.6107030000000 1.0
C      1  0.5597360000000  0.5583240000000  0.4099460000000 1.0
C      1  0.4504690000000  0.5584220000000  0.5991960000000 1.0
C      1  0.5698140000000  0.4303940000000  0.4364900000000 1.0
C      1  0.4422890000000  0.5592100000000  0.5704200000000 1.0
C      1  0.4262810000000  0.5715710000000  0.4263800000000 1.0
C      1  0.4473400000000  0.4434490000000  0.5521800000000 1.0
C      1  0.5597580000000  0.4376650000000  0.5598270000000 1.0
C      1  0.5729160000000  0.5721700000000  0.4337390000000 1.0
C      1  0.5739760000000  0.5736270000000  0.5631750000000 1.0
C      1  0.4306640000000  0.4274570000000  0.4318310000000 1.0
END
