TITL C-3623284-6838-410 -4.17670859421131e-08 125000 -1193.01216296 0 0 199 (C1) n - 1
REM
REM in /home/nfs/bkarasulu/CARBON/AIRSS/Generating-Clusters/LCBOP/Higher-Symm/SD-CG/FIRE-CG
REM
REM
REM
REM
REM
REM ./C.cell (b20cbc046b6831c77cfcea5457e17084)
REM AIRSS Version 0.9.1 bugfix July 2018 build 013d7b7c2542+ Fri, 06 Jul 2018 19:26:36 +0100
REM compiler GCC version 9.2.1 20190827 (Red Hat 9.2.1-1)
REM options -cpp -mtune=generic -march=x86-64 -g -O0 -fpre-include=/usr/include/finclude/math-vector-fortran.h
REM seed -472423186 1425942414 1609782252 -892344555 62417871 -1439755171 -1341649835 53560323 326141353 1519238782 967110293 576294255 -1326523129 664666586 770674877 -1380295534 -2009988576 -1338422978 997062931 1861263818 -1079178913 880297841 815477766 421340368 -339873028 1532157117 1210238192 -478653758 -1132204921 345381434 -21516674 -1602463297 1933733373
REM
CELL 1.54180   50.00000   50.00000   50.00000   90.00000   90.00000   90.00000
LATT -1
SFAC C  
C      1  0.4082050000000  0.4651260000000  0.5788310000000 1.0
C      1  0.4596690000000  0.4611610000000  0.3870360000000 1.0
C      1  0.6229320000000  0.4769480000000  0.5435630000000 1.0
C      1  0.5042590000000  0.5409000000000  0.6337180000000 1.0
C      1  0.3931720000000  0.5728080000000  0.4313730000000 1.0
C      1  0.6172290000000  0.5443600000000  0.4277710000000 1.0
C      1  0.5967040000000  0.4734750000000  0.4120640000000 1.0
C      1  0.5249140000000  0.4825330000000  0.5892210000000 1.0
C      1  0.3654150000000  0.4919560000000  0.4642220000000 1.0
C      1  0.4641570000000  0.5116290000000  0.3745520000000 1.0
C      1  0.6144400000000  0.5274350000000  0.5359970000000 1.0
C      1  0.4038680000000  0.5141740000000  0.5825720000000 1.0
C      1  0.5332920000000  0.5736110000000  0.5321200000000 1.0
C      1  0.4699790000000  0.5726870000000  0.5370880000000 1.0
C      1  0.5179880000000  0.5906010000000  0.4601670000000 1.0
C      1  0.5584150000000  0.5006940000000  0.5399670000000 1.0
C      1  0.4266220000000  0.4927520000000  0.5179760000000 1.0
C      1  0.5172260000000  0.4898040000000  0.4217390000000 1.0
C      1  0.5299490000000  0.5034990000000  0.6068100000000 1.0
C      1  0.3564390000000  0.5121980000000  0.4799280000000 1.0
C      1  0.5922990000000  0.5009540000000  0.4056470000000 1.0
C      1  0.5570280000000  0.5610740000000  0.4043210000000 1.0
C      1  0.5394830000000  0.5709250000000  0.5984360000000 1.0
C      1  0.3983040000000  0.5702560000000  0.5102720000000 1.0
C      1  0.5475150000000  0.3863170000000  0.4782120000000 1.0
C      1  0.5079660000000  0.3918570000000  0.5397400000000 1.0
C      1  0.4602950000000  0.3858070000000  0.4839000000000 1.0
C      1  0.6011650000000  0.5520290000000  0.4725350000000 1.0
C      1  0.4646750000000  0.5576230000000  0.6105110000000 1.0
C      1  0.4395840000000  0.5639850000000  0.4250530000000 1.0
C      1  0.5229630000000  0.4694420000000  0.4405110000000 1.0
C      1  0.5441240000000  0.4770510000000  0.5465790000000 1.0
C      1  0.4419770000000  0.4745520000000  0.5041780000000 1.0
C      1  0.5546850000000  0.4512800000000  0.5427330000000 1.0
C      1  0.4445580000000  0.4498970000000  0.5171810000000 1.0
C      1  0.5121170000000  0.4440030000000  0.4379550000000 1.0
C      1  0.4870390000000  0.5816950000000  0.4188360000000 1.0
C      1  0.5987100000000  0.5738370000000  0.5223890000000 1.0
C      1  0.4017130000000  0.5630280000000  0.5715210000000 1.0
C      1  0.4895920000000  0.4519740000000  0.5328360000000 1.0
C      1  0.4832530000000  0.4394230000000  0.4747520000000 1.0
C      1  0.5477680000000  0.4508360000000  0.4963210000000 1.0
C      1  0.4705140000000  0.4966330000000  0.4296950000000 1.0
C      1  0.5730830000000  0.4990640000000  0.5159760000000 1.0
C      1  0.4597990000000  0.5055710000000  0.5570870000000 1.0
C      1  0.5530420000000  0.5246030000000  0.5549680000000 1.0
C      1  0.4155930000000  0.5175530000000  0.5139480000000 1.0
C      1  0.5263540000000  0.5164710000000  0.4232620000000 1.0
C      1  0.4080670000000  0.4845160000000  0.4197540000000 1.0
C      1  0.6099390000000  0.4637870000000  0.4729130000000 1.0
C      1  0.4682590000000  0.4594930000000  0.6042410000000 1.0
C      1  0.3768060000000  0.5465500000000  0.5122000000000 1.0
C      1  0.5611630000000  0.5356510000000  0.3889650000000 1.0
C      1  0.5548890000000  0.5450490000000  0.6073310000000 1.0
C      1  0.4506450000000  0.4788910000000  0.5608610000000 1.0
C      1  0.4580090000000  0.4715190000000  0.4338720000000 1.0
C      1  0.5877780000000  0.4752430000000  0.5127800000000 1.0
C      1  0.4005520000000  0.5357110000000  0.5642170000000 1.0
C      1  0.4774740000000  0.5271620000000  0.3565380000000 1.0
C      1  0.5967730000000  0.5506190000000  0.5406180000000 1.0
C      1  0.5703770000000  0.5471730000000  0.5519440000000 1.0
C      1  0.4081100000000  0.5303510000000  0.5376330000000 1.0
C      1  0.5116960000000  0.5376320000000  0.4114400000000 1.0
C      1  0.4527730000000  0.5975390000000  0.4568770000000 1.0
C      1  0.5815740000000  0.5930390000000  0.4750630000000 1.0
C      1  0.4634170000000  0.6033320000000  0.5826000000000 1.0
C      1  0.4351170000000  0.4579740000000  0.5726350000000 1.0
C      1  0.4591910000000  0.4510570000000  0.4134580000000 1.0
C      1  0.6082180000000  0.4601370000000  0.5251880000000 1.0
C      1  0.4623640000000  0.4842500000000  0.6166010000000 1.0
C      1  0.4022170000000  0.5105860000000  0.4109330000000 1.0
C      1  0.6216580000000  0.4893530000000  0.4705100000000 1.0
C      1  0.5238940000000  0.6005030000000  0.5388740000000 1.0
C      1  0.4596570000000  0.5925790000000  0.5223490000000 1.0
C      1  0.5272180000000  0.6078430000000  0.4415960000000 1.0
C      1  0.6119120000000  0.5212750000000  0.5080910000000 1.0
C      1  0.4295500000000  0.5141490000000  0.5946460000000 1.0
C      1  0.4495570000000  0.5227530000000  0.3963820000000 1.0
C      1  0.6288450000000  0.5056140000000  0.4922250000000 1.0
C      1  0.4372170000000  0.4967550000000  0.6153630000000 1.0
C      1  0.4213930000000  0.5227940000000  0.3944700000000 1.0
C      1  0.4172150000000  0.5781050000000  0.4202140000000 1.0
C      1  0.6181720000000  0.5570830000000  0.4520320000000 1.0
C      1  0.4910210000000  0.5635300000000  0.6219900000000 1.0
C      1  0.4870050000000  0.5855070000000  0.5798090000000 1.0
C      1  0.4394580000000  0.5776000000000  0.4734630000000 1.0
C      1  0.5665320000000  0.5764690000000  0.4560040000000 1.0
C      1  0.6226210000000  0.5037720000000  0.5501620000000 1.0
C      1  0.3935560000000  0.4879240000000  0.5800400000000 1.0
C      1  0.4636300000000  0.4835000000000  0.3728790000000 1.0
C      1  0.4431500000000  0.4044730000000  0.4677280000000 1.0
C      1  0.5659690000000  0.4045020000000  0.4673250000000 1.0
C      1  0.5054890000000  0.4079190000000  0.5648590000000 1.0
C      1  0.5479060000000  0.5190700000000  0.4429950000000 1.0
C      1  0.5238770000000  0.5291510000000  0.5629870000000 1.0
C      1  0.4104230000000  0.5243510000000  0.4867840000000 1.0
C      1  0.5728560000000  0.4407830000000  0.5621520000000 1.0
C      1  0.4194700000000  0.4395920000000  0.5273250000000 1.0
C      1  0.5151610000000  0.4332330000000  0.4112420000000 1.0
C      1  0.5833030000000  0.5209520000000  0.5015040000000 1.0
C      1  0.4504750000000  0.5234800000000  0.5773690000000 1.0
C      1  0.4606420000000  0.5221320000000  0.4233820000000 1.0
C      1  0.5201370000000  0.5529420000000  0.5174310000000 1.0
C      1  0.4749630000000  0.5494610000000  0.4944310000000 1.0
C      1  0.5179410000000  0.5628750000000  0.4712630000000 1.0
C      1  0.5012940000000  0.4648180000000  0.5107480000000 1.0
C      1  0.4862250000000  0.4615870000000  0.4881240000000 1.0
C      1  0.5275870000000  0.4688920000000  0.5044540000000 1.0
C      1  0.5320560000000  0.3892190000000  0.4281820000000 1.0
C      1  0.5528220000000  0.3946010000000  0.5643520000000 1.0
C      1  0.4229010000000  0.3931780000000  0.5089780000000 1.0
C      1  0.3860500000000  0.5263160000000  0.4277470000000 1.0
C      1  0.6149220000000  0.5028320000000  0.4470990000000 1.0
C      1  0.4838060000000  0.5020010000000  0.6188400000000 1.0
C      1  0.4996990000000  0.4266480000000  0.4570160000000 1.0
C      1  0.5510570000000  0.4351140000000  0.5192640000000 1.0
C      1  0.4678370000000  0.4356350000000  0.5248870000000 1.0
C      1  0.5690470000000  0.5606740000000  0.4311410000000 1.0
C      1  0.5083850000000  0.5685830000000  0.5966260000000 1.0
C      1  0.4128410000000  0.5702360000000  0.4833830000000 1.0
C      1  0.5545960000000  0.5702180000000  0.5522620000000 1.0
C      1  0.4150190000000  0.5851920000000  0.5597940000000 1.0
C      1  0.5086290000000  0.5656290000000  0.4082600000000 1.0
C      1  0.5897050000000  0.4559330000000  0.4313700000000 1.0
C      1  0.5146060000000  0.4583460000000  0.5999670000000 1.0
C      1  0.3874660000000  0.4769180000000  0.4605200000000 1.0
C      1  0.5668370000000  0.4622310000000  0.6040650000000 1.0
C      1  0.3831820000000  0.4623410000000  0.5073530000000 1.0
C      1  0.5534610000000  0.4554210000000  0.3924250000000 1.0
C      1  0.5714810000000  0.3995680000000  0.5433410000000 1.0
C      1  0.4371040000000  0.3987140000000  0.5330170000000 1.0
C      1  0.5034320000000  0.3919580000000  0.4254350000000 1.0
C      1  0.5724480000000  0.5318540000000  0.4365460000000 1.0
C      1  0.5085740000000  0.5380440000000  0.5860610000000 1.0
C      1  0.4030210000000  0.5459930000000  0.4701930000000 1.0
C      1  0.5216710000000  0.5227220000000  0.5156320000000 1.0
C      1  0.4714210000000  0.5230240000000  0.5081900000000 1.0
C      1  0.5042500000000  0.5393200000000  0.4572710000000 1.0
C      1  0.6040330000000  0.4315090000000  0.5239250000000 1.0
C      1  0.4429650000000  0.4297270000000  0.5704600000000 1.0
C      1  0.4657390000000  0.4232050000000  0.4173890000000 1.0
C      1  0.4237520000000  0.4198900000000  0.5485640000000 1.0
C      1  0.4937750000000  0.4138840000000  0.4070020000000 1.0
C      1  0.5909500000000  0.4214070000000  0.5494000000000 1.0
C      1  0.4712890000000  0.5955700000000  0.4364930000000 1.0
C      1  0.5916430000000  0.5891540000000  0.5006470000000 1.0
C      1  0.4369610000000  0.5992330000000  0.5739840000000 1.0
C      1  0.5603430000000  0.4574980000000  0.4716680000000 1.0
C      1  0.4956450000000  0.4611490000000  0.5587390000000 1.0
C      1  0.4393220000000  0.4745680000000  0.4554330000000 1.0
C      1  0.5756860000000  0.5421440000000  0.4845310000000 1.0
C      1  0.4610300000000  0.5484800000000  0.5829990000000 1.0
C      1  0.4545000000000  0.5445780000000  0.4409380000000 1.0
C      1  0.5440340000000  0.4331150000000  0.4078500000000 1.0
C      1  0.5594510000000  0.4395420000000  0.5869600000000 1.0
C      1  0.4014310000000  0.4392310000000  0.5055890000000 1.0
C      1  0.5336210000000  0.6083250000000  0.5638980000000 1.0
C      1  0.4343570000000  0.6014180000000  0.5195830000000 1.0
C      1  0.5357980000000  0.6039900000000  0.4161330000000 1.0
C      1  0.5528610000000  0.4088010000000  0.4335060000000 1.0
C      1  0.5339630000000  0.4131060000000  0.5766160000000 1.0
C      1  0.4193890000000  0.4121210000000  0.4865400000000 1.0
C      1  0.4644520000000  0.4087590000000  0.5356430000000 1.0
C      1  0.4892540000000  0.4006560000000  0.4491140000000 1.0
C      1  0.5626310000000  0.4088770000000  0.5172670000000 1.0
C      1  0.5688620000000  0.5070170000000  0.3897810000000 1.0
C      1  0.5562340000000  0.5147000000000  0.6091770000000 1.0
C      1  0.3677430000000  0.5171550000000  0.5062690000000 1.0
C      1  0.4574870000000  0.5538030000000  0.4703030000000 1.0
C      1  0.5521600000000  0.5573900000000  0.4747190000000 1.0
C      1  0.4744610000000  0.5643910000000  0.5631760000000 1.0
C      1  0.4809680000000  0.3793370000000  0.4997120000000 1.0
C      1  0.5286070000000  0.3796650000000  0.4959840000000 1.0
C      1  0.5059760000000  0.3828270000000  0.5126180000000 1.0
C      1  0.4730420000000  0.5050360000000  0.4840760000000 1.0
C      1  0.5430040000000  0.5034410000000  0.4670340000000 1.0
C      1  0.5088160000000  0.5104030000000  0.5431000000000 1.0
C      1  0.4896750000000  0.4531810000000  0.5868990000000 1.0
C      1  0.4118110000000  0.4759490000000  0.4466330000000 1.0
C      1  0.5864250000000  0.4550900000000  0.4596050000000 1.0
C      1  0.5996650000000  0.5198740000000  0.4276180000000 1.0
C      1  0.5064270000000  0.5198100000000  0.6120340000000 1.0
C      1  0.3898170000000  0.5481320000000  0.4450700000000 1.0
C      1  0.4703780000000  0.4144080000000  0.5647330000000 1.0
C      1  0.4601730000000  0.4083190000000  0.4430210000000 1.0
C      1  0.5839950000000  0.4136430000000  0.4988280000000 1.0
C      1  0.5551460000000  0.4818000000000  0.3844800000000 1.0
C      1  0.5723150000000  0.4895530000000  0.6084440000000 1.0
C      1  0.3753640000000  0.4885180000000  0.5145470000000 1.0
C      1  0.4516650000000  0.4852190000000  0.4796960000000 1.0
C      1  0.5429670000000  0.4759790000000  0.4591480000000 1.0
C      1  0.5169740000000  0.4830160000000  0.5583100000000 1.0
C      1  0.5490330000000  0.5865570000000  0.5759580000000 1.0
C      1  0.4120850000000  0.5872570000000  0.5305240000000 1.0
C      1  0.5340790000000  0.5786490000000  0.4033500000000 1.0
C      1  0.4981460000000  0.5146690000000  0.4720270000000 1.0
C      1  0.5233520000000  0.5111890000000  0.4879110000000 1.0
C      1  0.4783190000000  0.5134310000000  0.5359810000000 1.0
C      1  0.5019420000000  0.5615670000000  0.4969510000000 1.0
END
