TITL C-3623285-6872-1871 -3.15750734436428e-07 125000 -885.042705206098 0 0 143 (D3) n - 1
REM
REM in /home/nfs/bkarasulu/CARBON/AIRSS/Generating-Clusters/LCBOP/Higher-Symm/SD-CG/FIRE-CG
REM
REM
REM
REM
REM
REM ./C.cell (b20cbc046b6831c77cfcea5457e17084)
REM AIRSS Version 0.9.1 bugfix July 2018 build 013d7b7c2542+ Fri, 06 Jul 2018 19:26:36 +0100
REM compiler GCC version 9.2.1 20190827 (Red Hat 9.2.1-1)
REM options -cpp -mtune=generic -march=x86-64 -g -O0 -fpre-include=/usr/include/finclude/math-vector-fortran.h
REM seed 2021239305 1233699179 86551480 2002977728 -1183457115 1582747913 1856480071 -2146410889 2030685464 -1928248017 968339423 -1273430302 1720545582 -582546869 1316817348 -564445799 1584851835 26786452 -712069163 1357086041 401923840 -781133815 -2083096213 623321197 -1357501623 2012578040 -496926130 1243883359 -1698966109 1807080657 1259462486 -1691302197 673064754
REM
CELL 1.54180   50.00000   50.00000   50.00000   90.00000   90.00000   90.00000
LATT -1
SFAC C  
C      1  0.4586400000000  0.5252380000000  0.4719780000000 1.0
C      1  0.4586360000000  0.4629910000000  0.4924520000000 1.0
C      1  0.4586390000000  0.5118450000000  0.5361230000000 1.0
C      1  0.5409950000000  0.5252330000000  0.5283910000000 1.0
C      1  0.5409910000000  0.4629860000000  0.5079180000000 1.0
C      1  0.5409950000000  0.5118400000000  0.4642460000000 1.0
C      1  0.5583500000000  0.4114590000000  0.4742030000000 1.0
C      1  0.5583560000000  0.5217970000000  0.5898710000000 1.0
C      1  0.5583600000000  0.5667990000000  0.4364820000000 1.0
C      1  0.4412710000000  0.4114670000000  0.5261680000000 1.0
C      1  0.4412780000000  0.5218030000000  0.4104980000000 1.0
C      1  0.4412800000000  0.5668080000000  0.5638860000000 1.0
C      1  0.4361780000000  0.6059540000000  0.4505220000000 1.0
C      1  0.4361660000000  0.4040540000000  0.4332780000000 1.0
C      1  0.4361700000000  0.4900700000000  0.6167520000000 1.0
C      1  0.5634670000000  0.6059470000000  0.5498450000000 1.0
C      1  0.5634540000000  0.4040470000000  0.5670920000000 1.0
C      1  0.5634610000000  0.4900600000000  0.3836180000000 1.0
C      1  0.4974770000000  0.4864250000000  0.4486700000000 1.0
C      1  0.4974750000000  0.4622090000000  0.5377180000000 1.0
C      1  0.4974800000000  0.5514340000000  0.5141660000000 1.0
C      1  0.5021530000000  0.4864250000000  0.5516990000000 1.0
C      1  0.5021530000000  0.4622080000000  0.4626520000000 1.0
C      1  0.5021580000000  0.5514330000000  0.4862030000000 1.0
C      1  0.5609410000000  0.4902590000000  0.4720580000000 1.0
C      1  0.5609400000000  0.4805400000000  0.5227000000000 1.0
C      1  0.5609430000000  0.5292560000000  0.5057970000000 1.0
C      1  0.4386900000000  0.4902670000000  0.5283110000000 1.0
C      1  0.4386890000000  0.4805470000000  0.4776690000000 1.0
C      1  0.4386920000000  0.5292640000000  0.4945720000000 1.0
C      1  0.5382330000000  0.3976930000000  0.6075980000000 1.0
C      1  0.5382490000000  0.6442050000000  0.5350960000000 1.0
C      1  0.5382380000000  0.4581610000000  0.3578610000000 1.0
C      1  0.4613860000000  0.3976960000000  0.3927730000000 1.0
C      1  0.4614010000000  0.6442100000000  0.4652710000000 1.0
C      1  0.4613880000000  0.4581680000000  0.6425090000000 1.0
C      1  0.5155240000000  0.6013530000000  0.5394430000000 1.0
C      1  0.5155180000000  0.4833540000000  0.3927990000000 1.0
C      1  0.5155120000000  0.4153570000000  0.5683120000000 1.0
C      1  0.4841200000000  0.6013550000000  0.4609250000000 1.0
C      1  0.4841120000000  0.4833570000000  0.6075700000000 1.0
C      1  0.4841090000000  0.4153580000000  0.4320580000000 1.0
C      1  0.5293000000000  0.4923090000000  0.5609810000000 1.0
C      1  0.5293040000000  0.5565270000000  0.4764640000000 1.0
C      1  0.5292980000000  0.4512240000000  0.4631090000000 1.0
C      1  0.4703310000000  0.4923120000000  0.4393880000000 1.0
C      1  0.4703350000000  0.5565310000000  0.5239040000000 1.0
C      1  0.4703280000000  0.4512290000000  0.5372610000000 1.0
C      1  0.4242250000000  0.4071030000000  0.5040460000000 1.0
C      1  0.4242330000000  0.5498340000000  0.5787270000000 1.0
C      1  0.4242340000000  0.5431440000000  0.4177780000000 1.0
C      1  0.5753960000000  0.4070930000000  0.4963240000000 1.0
C      1  0.5754050000000  0.5498230000000  0.4216410000000 1.0
C      1  0.5754040000000  0.5431360000000  0.5825900000000 1.0
C      1  0.5393520000000  0.4768140000000  0.3778870000000 1.0
C      1  0.5393460000000  0.4057100000000  0.5814300000000 1.0
C      1  0.5393600000000  0.6175350000000  0.5412370000000 1.0
C      1  0.4602770000000  0.4768210000000  0.6224820000000 1.0
C      1  0.4602740000000  0.4057130000000  0.4189400000000 1.0
C      1  0.4602870000000  0.6175400000000  0.4591300000000 1.0
C      1  0.4557620000000  0.3751480000000  0.4821020000000 1.0
C      1  0.4557720000000  0.5468040000000  0.6173710000000 1.0
C      1  0.4557750000000  0.5781230000000  0.4010790000000 1.0
C      1  0.5438540000000  0.3751430000000  0.5182690000000 1.0
C      1  0.5438660000000  0.5467970000000  0.3829970000000 1.0
C      1  0.5438660000000  0.5781190000000  0.5992890000000 1.0
C      1  0.5028490000000  0.6017860000000  0.5134670000000 1.0
C      1  0.5028410000000  0.4606430000000  0.4054130000000 1.0
C      1  0.5028390000000  0.4376370000000  0.5816730000000 1.0
C      1  0.4967950000000  0.6017860000000  0.4869010000000 1.0
C      1  0.4967860000000  0.4606450000000  0.5949560000000 1.0
C      1  0.4967850000000  0.4376360000000  0.4186970000000 1.0
C      1  0.4655770000000  0.5090570000000  0.4164710000000 1.0
C      1  0.4655710000000  0.4230100000000  0.5342180000000 1.0
C      1  0.4655790000000  0.5680050000000  0.5498630000000 1.0
C      1  0.5340560000000  0.5090540000000  0.5838980000000 1.0
C      1  0.5340520000000  0.4230060000000  0.4661520000000 1.0
C      1  0.5340610000000  0.5680000000000  0.4505050000000 1.0
C      1  0.4775470000000  0.3793140000000  0.4668560000000 1.0
C      1  0.4775550000000  0.5315150000000  0.6213860000000 1.0
C      1  0.4775600000000  0.5892420000000  0.4123110000000 1.0
C      1  0.5220700000000  0.3793110000000  0.5335150000000 1.0
C      1  0.5220810000000  0.5315110000000  0.3789820000000 1.0
C      1  0.5220830000000  0.5892400000000  0.5880570000000 1.0
C      1  0.5956970000000  0.5352330000000  0.4347510000000 1.0
C      1  0.5956900000000  0.4257400000000  0.5024040000000 1.0
C      1  0.5956970000000  0.5390760000000  0.5634010000000 1.0
C      1  0.4039390000000  0.5352460000000  0.5656170000000 1.0
C      1  0.4039330000000  0.4257520000000  0.4979660000000 1.0
C      1  0.4039400000000  0.5390870000000  0.4369680000000 1.0
C      1  0.4914580000000  0.4019580000000  0.4572990000000 1.0
C      1  0.4914640000000  0.5119150000000  0.6065530000000 1.0
C      1  0.4914690000000  0.5861950000000  0.4367010000000 1.0
C      1  0.5081620000000  0.4019580000000  0.5430720000000 1.0
C      1  0.5081700000000  0.5119120000000  0.3938150000000 1.0
C      1  0.5081730000000  0.5861950000000  0.5636670000000 1.0
C      1  0.4900560000000  0.5639860000000  0.5637250000000 1.0
C      1  0.4900550000000  0.5230680000000  0.4130200000000 1.0
C      1  0.4900470000000  0.4130140000000  0.5238080000000 1.0
C      1  0.5095830000000  0.5639840000000  0.4366440000000 1.0
C      1  0.5095800000000  0.5230680000000  0.5873480000000 1.0
C      1  0.5095740000000  0.4130120000000  0.4765620000000 1.0
C      1  0.4322110000000  0.3905870000000  0.4821810000000 1.0
C      1  0.4322200000000  0.5391550000000  0.6039630000000 1.0
C      1  0.4322230000000  0.5703370000000  0.4144080000000 1.0
C      1  0.5674070000000  0.3905790000000  0.5181890000000 1.0
C      1  0.5674170000000  0.5391450000000  0.3964060000000 1.0
C      1  0.5674180000000  0.5703300000000  0.5859600000000 1.0
C      1  0.4534630000000  0.4992650000000  0.4603230000000 1.0
C      1  0.4534600000000  0.4658840000000  0.5207730000000 1.0
C      1  0.4534640000000  0.5349260000000  0.5194570000000 1.0
C      1  0.5461690000000  0.4992600000000  0.5400460000000 1.0
C      1  0.5461680000000  0.4658780000000  0.4795970000000 1.0
C      1  0.5461720000000  0.5349200000000  0.4809120000000 1.0
C      1  0.4007660000000  0.4461890000000  0.4809040000000 1.0
C      1  0.4007690000000  0.5102510000000  0.5564500000000 1.0
C      1  0.4007720000000  0.5436450000000  0.4631980000000 1.0
C      1  0.5988590000000  0.4461770000000  0.5194660000000 1.0
C      1  0.5988640000000  0.5102380000000  0.4439190000000 1.0
C      1  0.5988650000000  0.5436330000000  0.5371710000000 1.0
C      1  0.5843150000000  0.4652840000000  0.5315550000000 1.0
C      1  0.5843200000000  0.5445500000000  0.5145800000000 1.0
C      1  0.5843170000000  0.4902160000000  0.4544210000000 1.0
C      1  0.4153120000000  0.4652940000000  0.4688150000000 1.0
C      1  0.4153170000000  0.5445600000000  0.4857890000000 1.0
C      1  0.4153130000000  0.4902280000000  0.5459480000000 1.0
C      1  0.4237430000000  0.5130550000000  0.6109870000000 1.0
C      1  0.4237490000000  0.5894710000000  0.4335000000000 1.0
C      1  0.4237370000000  0.3975550000000  0.4560650000000 1.0
C      1  0.5758910000000  0.5130440000000  0.3893820000000 1.0
C      1  0.5758940000000  0.5894630000000  0.5668680000000 1.0
C      1  0.5758820000000  0.3975460000000  0.5443050000000 1.0
C      1  0.5163970000000  0.5094500000000  0.4497230000000 1.0
C      1  0.5163930000000  0.4516060000000  0.5172500000000 1.0
C      1  0.5163980000000  0.5390080000000  0.5335810000000 1.0
C      1  0.4832360000000  0.5094530000000  0.5506460000000 1.0
C      1  0.4832330000000  0.4516080000000  0.4831200000000 1.0
C      1  0.4832390000000  0.5390090000000  0.4667870000000 1.0
C      1  0.4998180000000  0.5349900000000  0.5607490000000 1.0
C      1  0.4998180000000  0.5349890000000  0.4396200000000 1.0
C      1  0.4998120000000  0.4300880000000  0.5001850000000 1.0
C      1  0.4302810000000  0.5000270000000  0.5001840000000 1.0
C      1  0.5693500000000  0.5000180000000  0.5001850000000 1.0
END
