TITL C-3623289-7120-1381 -9.91370557256597e-07 125000 -1083.42035755411 0 0 170 (C1) n - 1
REM
REM in /home/nfs/bkarasulu/CARBON/AIRSS/Generating-Clusters/LCBOP/Higher-Symm/SD-CG/FIRE-CG
REM
REM
REM
REM
REM
REM ./C.cell (b20cbc046b6831c77cfcea5457e17084)
REM AIRSS Version 0.9.1 bugfix July 2018 build 013d7b7c2542+ Fri, 06 Jul 2018 19:26:36 +0100
REM compiler GCC version 9.2.1 20190827 (Red Hat 9.2.1-1)
REM options -cpp -mtune=generic -march=x86-64 -g -O0 -fpre-include=/usr/include/finclude/math-vector-fortran.h
REM seed -1057014831 1509617868 1067571870 -829911857 -93093283 -1980370616 894536063 1851025130 457015026 -649033228 -900950706 -1721908515 -737904417 -1862094919 2143513402 -848421174 -487025403 208284278 -1581342499 -128464366 -1000890811 -1823427162 899971801 -2109819242 2087318426 -510467713 -1080941357 1585164053 -3951935 1495350152 1393776681 -2069386461 -1325894521
REM
CELL 1.54180   50.00000   50.00000   50.00000   90.00000   90.00000   90.00000
LATT -1
SFAC C  
C      1  0.5394040000000  0.4501790000000  0.5370420000000 1.0
C      1  0.4354170000000  0.4906690000000  0.5367300000000 1.0
C      1  0.5227050000000  0.5600310000000  0.5374840000000 1.0
C      1  0.5351220000000  0.4538520000000  0.4729280000000 1.0
C      1  0.4364700000000  0.4903780000000  0.4647860000000 1.0
C      1  0.5227980000000  0.5537760000000  0.4730980000000 1.0
C      1  0.4712260000000  0.4230490000000  0.5157360000000 1.0
C      1  0.4468100000000  0.5626570000000  0.5155640000000 1.0
C      1  0.5805220000000  0.5147840000000  0.5183490000000 1.0
C      1  0.4709820000000  0.4225710000000  0.4874850000000 1.0
C      1  0.4472780000000  0.5621800000000  0.4873770000000 1.0
C      1  0.5816330000000  0.5145310000000  0.4902910000000 1.0
C      1  0.4999810000000  0.4240200000000  0.5643910000000 1.0
C      1  0.4331820000000  0.5377400000000  0.5646910000000 1.0
C      1  0.5642510000000  0.5383830000000  0.5668670000000 1.0
C      1  0.5023730000000  0.4262130000000  0.4399040000000 1.0
C      1  0.4347970000000  0.5372500000000  0.4378360000000 1.0
C      1  0.5644760000000  0.5388840000000  0.4415460000000 1.0
C      1  0.5483520000000  0.5421710000000  0.5426490000000 1.0
C      1  0.5111110000000  0.4368100000000  0.5405980000000 1.0
C      1  0.4381420000000  0.5217230000000  0.5407890000000 1.0
C      1  0.5481550000000  0.5426470000000  0.4654710000000 1.0
C      1  0.5125710000000  0.4382020000000  0.4644720000000 1.0
C      1  0.4385970000000  0.5212070000000  0.4618330000000 1.0
C      1  0.4242300000000  0.4699880000000  0.4858660000000 1.0
C      1  0.5132280000000  0.5772130000000  0.4867320000000 1.0
C      1  0.5601830000000  0.4501940000000  0.4869220000000 1.0
C      1  0.4237470000000  0.4701500000000  0.5151820000000 1.0
C      1  0.5111530000000  0.5797540000000  0.5153730000000 1.0
C      1  0.5628310000000  0.4506770000000  0.5156710000000 1.0
C      1  0.4369750000000  0.4830270000000  0.4150490000000 1.0
C      1  0.5188960000000  0.5704810000000  0.4163300000000 1.0
C      1  0.5534850000000  0.4508540000000  0.4164740000000 1.0
C      1  0.4339450000000  0.4827500000000  0.5863440000000 1.0
C      1  0.5164820000000  0.5662620000000  0.5865100000000 1.0
C      1  0.5468070000000  0.4511660000000  0.5864070000000 1.0
C      1  0.3503180000000  0.4737560000000  0.5136580000000 1.0
C      1  0.5494500000000  0.6387060000000  0.5042130000000 1.0
C      1  0.5951350000000  0.3884020000000  0.5037330000000 1.0
C      1  0.3507770000000  0.4735970000000  0.4849410000000 1.0
C      1  0.5533070000000  0.6361890000000  0.4759250000000 1.0
C      1  0.5918240000000  0.3867830000000  0.4753060000000 1.0
C      1  0.4587100000000  0.4685540000000  0.5830930000000 1.0
C      1  0.4919120000000  0.5515490000000  0.5833310000000 1.0
C      1  0.5464070000000  0.4798840000000  0.5841600000000 1.0
C      1  0.4617280000000  0.4690490000000  0.4191020000000 1.0
C      1  0.4951970000000  0.5545210000000  0.4226320000000 1.0
C      1  0.5515760000000  0.4791720000000  0.4235480000000 1.0
C      1  0.5304170000000  0.6327960000000  0.4598570000000 1.0
C      1  0.6007330000000  0.4085960000000  0.4598670000000 1.0
C      1  0.3616410000000  0.4506000000000  0.4729890000000 1.0
C      1  0.5233790000000  0.6428480000000  0.5137020000000 1.0
C      1  0.6113920000000  0.4088000000000  0.5140720000000 1.0
C      1  0.3607800000000  0.4508890000000  0.5262030000000 1.0
C      1  0.5761570000000  0.6134470000000  0.4398240000000 1.0
C      1  0.5615940000000  0.3791530000000  0.4382630000000 1.0
C      1  0.3700310000000  0.4987750000000  0.4485610000000 1.0
C      1  0.5600790000000  0.6158590000000  0.5460300000000 1.0
C      1  0.5689530000000  0.3896730000000  0.5449190000000 1.0
C      1  0.3684000000000  0.4993210000000  0.5503670000000 1.0
C      1  0.4794050000000  0.4704430000000  0.4868740000000 1.0
C      1  0.4825500000000  0.5297050000000  0.4875880000000 1.0
C      1  0.5355460000000  0.4997230000000  0.4887740000000 1.0
C      1  0.4796230000000  0.4705100000000  0.5161510000000 1.0
C      1  0.4832130000000  0.5310410000000  0.5167980000000 1.0
C      1  0.5350040000000  0.4988870000000  0.5177670000000 1.0
C      1  0.5534260000000  0.4378920000000  0.5616050000000 1.0
C      1  0.4184800000000  0.4844630000000  0.5619610000000 1.0
C      1  0.5254700000000  0.5785820000000  0.5619760000000 1.0
C      1  0.5686380000000  0.4293690000000  0.4292160000000 1.0
C      1  0.4206050000000  0.4842730000000  0.4388650000000 1.0
C      1  0.5293840000000  0.5943960000000  0.4294500000000 1.0
C      1  0.4295640000000  0.5042900000000  0.6040650000000 1.0
C      1  0.5370500000000  0.5602400000000  0.6048410000000 1.0
C      1  0.5309710000000  0.4356170000000  0.6037870000000 1.0
C      1  0.4329730000000  0.5048470000000  0.3976060000000 1.0
C      1  0.5384930000000  0.5573640000000  0.4004040000000 1.0
C      1  0.5325040000000  0.4409530000000  0.3999950000000 1.0
C      1  0.5729590000000  0.4908690000000  0.5827510000000 1.0
C      1  0.4550510000000  0.4400870000000  0.5812630000000 1.0
C      1  0.4692490000000  0.5691380000000  0.5808060000000 1.0
C      1  0.5768570000000  0.4930780000000  0.4240880000000 1.0
C      1  0.4580340000000  0.4405770000000  0.4212600000000 1.0
C      1  0.4704990000000  0.5695460000000  0.4221280000000 1.0
C      1  0.5254780000000  0.4889280000000  0.5659620000000 1.0
C      1  0.4764710000000  0.4826920000000  0.5649150000000 1.0
C      1  0.4953500000000  0.5286080000000  0.5655190000000 1.0
C      1  0.5283160000000  0.4886150000000  0.4395040000000 1.0
C      1  0.4788660000000  0.4834740000000  0.4377700000000 1.0
C      1  0.4984410000000  0.5296610000000  0.4388820000000 1.0
C      1  0.5600380000000  0.5489210000000  0.4159510000000 1.0
C      1  0.5143760000000  0.4257790000000  0.4147870000000 1.0
C      1  0.4278210000000  0.5284080000000  0.4121210000000 1.0
C      1  0.5599740000000  0.5506820000000  0.5916700000000 1.0
C      1  0.5122940000000  0.4203670000000  0.5893170000000 1.0
C      1  0.4255200000000  0.5283180000000  0.5899830000000 1.0
C      1  0.5929220000000  0.4715420000000  0.5731510000000 1.0
C      1  0.4282970000000  0.4322870000000  0.5723010000000 1.0
C      1  0.4762480000000  0.5959650000000  0.5711520000000 1.0
C      1  0.5997850000000  0.4761860000000  0.4314190000000 1.0
C      1  0.4309790000000  0.4325820000000  0.4289640000000 1.0
C      1  0.4734530000000  0.5978700000000  0.4295630000000 1.0
C      1  0.5305460000000  0.4457690000000  0.3733210000000 1.0
C      1  0.4339020000000  0.5033390000000  0.3705070000000 1.0
C      1  0.5363160000000  0.5536570000000  0.3735720000000 1.0
C      1  0.5334510000000  0.4353220000000  0.6308300000000 1.0
C      1  0.4292180000000  0.5021130000000  0.6311390000000 1.0
C      1  0.5350170000000  0.5633580000000  0.6317520000000 1.0
C      1  0.5526770000000  0.5205830000000  0.5253920000000 1.0
C      1  0.4901710000000  0.4443530000000  0.5233610000000 1.0
C      1  0.4553600000000  0.5357220000000  0.5236360000000 1.0
C      1  0.5542380000000  0.5204430000000  0.4818950000000 1.0
C      1  0.4895180000000  0.4441420000000  0.4799570000000 1.0
C      1  0.4551990000000  0.5348700000000  0.4799250000000 1.0
C      1  0.5690190000000  0.6276990000000  0.5222410000000 1.0
C      1  0.5753900000000  0.3765310000000  0.5210090000000 1.0
C      1  0.3517950000000  0.4987380000000  0.5278110000000 1.0
C      1  0.5780860000000  0.6260990000000  0.4649510000000 1.0
C      1  0.5709800000000  0.3706110000000  0.4634530000000 1.0
C      1  0.3527030000000  0.4984230000000  0.4705700000000 1.0
C      1  0.5984130000000  0.4758830000000  0.4612770000000 1.0
C      1  0.4302540000000  0.4275800000000  0.4576820000000 1.0
C      1  0.4731240000000  0.5968820000000  0.4594490000000 1.0
C      1  0.5971830000000  0.4753280000000  0.5446110000000 1.0
C      1  0.4289030000000  0.4276990000000  0.5434860000000 1.0
C      1  0.4716920000000  0.5974460000000  0.5424380000000 1.0
C      1  0.5000160000000  0.5962530000000  0.4691990000000 1.0
C      1  0.5837460000000  0.4528180000000  0.4699410000000 1.0
C      1  0.4141000000000  0.4449280000000  0.4732970000000 1.0
C      1  0.4938440000000  0.6015640000000  0.5252390000000 1.0
C      1  0.5900860000000  0.4546640000000  0.5264630000000 1.0
C      1  0.4132260000000  0.4451180000000  0.5275030000000 1.0
C      1  0.4493920000000  0.5788230000000  0.5384970000000 1.0
C      1  0.5925190000000  0.5040850000000  0.5414150000000 1.0
C      1  0.4560470000000  0.4177790000000  0.5389440000000 1.0
C      1  0.4513100000000  0.5780420000000  0.4645270000000 1.0
C      1  0.5933780000000  0.5040690000000  0.4670620000000 1.0
C      1  0.4571290000000  0.4175500000000  0.4633970000000 1.0
C      1  0.5567460000000  0.6016740000000  0.4252230000000 1.0
C      1  0.5613840000000  0.4021520000000  0.4241180000000 1.0
C      1  0.3930430000000  0.4898770000000  0.4383920000000 1.0
C      1  0.5427730000000  0.6006610000000  0.5595590000000 1.0
C      1  0.5640460000000  0.4119560000000  0.5588020000000 1.0
C      1  0.3910000000000  0.4904210000000  0.5614190000000 1.0
C      1  0.4715440000000  0.4230630000000  0.5640330000000 1.0
C      1  0.4461430000000  0.5631320000000  0.5638290000000 1.0
C      1  0.5797030000000  0.5143330000000  0.5664980000000 1.0
C      1  0.4739140000000  0.4237550000000  0.4393610000000 1.0
C      1  0.4480730000000  0.5622390000000  0.4392770000000 1.0
C      1  0.5809560000000  0.5156110000000  0.4423680000000 1.0
C      1  0.5865290000000  0.4313210000000  0.4514600000000 1.0
C      1  0.3863520000000  0.4406530000000  0.4716800000000 1.0
C      1  0.5179680000000  0.6091430000000  0.4512060000000 1.0
C      1  0.6088250000000  0.4343520000000  0.5212600000000 1.0
C      1  0.3854270000000  0.4409380000000  0.5283830000000 1.0
C      1  0.5022920000000  0.6278860000000  0.5202120000000 1.0
C      1  0.5596220000000  0.3565720000000  0.5086170000000 1.0
C      1  0.3443180000000  0.5213160000000  0.5125180000000 1.0
C      1  0.5945460000000  0.6238130000000  0.5106720000000 1.0
C      1  0.5576490000000  0.3536950000000  0.4817030000000 1.0
C      1  0.3447440000000  0.5211650000000  0.4853710000000 1.0
C      1  0.5988300000000  0.6232110000000  0.4838800000000 1.0
C      1  0.5312270000000  0.4800280000000  0.5386530000000 1.0
C      1  0.4655240000000  0.4827490000000  0.5376740000000 1.0
C      1  0.5008810000000  0.5378080000000  0.5381750000000 1.0
C      1  0.5308350000000  0.4816610000000  0.4676400000000 1.0
C      1  0.4668190000000  0.4831310000000  0.4646920000000 1.0
C      1  0.5012970000000  0.5357250000000  0.4672130000000 1.0
C      1  0.5020940000000  0.5007800000000  0.4334290000000 1.0
C      1  0.4990420000000  0.5001520000000  0.5697740000000 1.0
END
