TITL C-3623287-7182-1524 -54759.5232569604 125000 -878.818033679751 0 0 146 (C1) n - 1
REM
REM in /home/nfs/bkarasulu/CARBON/AIRSS/Generating-Clusters/LCBOP/Higher-Symm/SD-CG/FIRE-CG
REM
REM
REM
REM
REM
REM ./C.cell (b20cbc046b6831c77cfcea5457e17084)
REM AIRSS Version 0.9.1 bugfix July 2018 build 013d7b7c2542+ Fri, 06 Jul 2018 19:26:36 +0100
REM compiler GCC version 9.2.1 20190827 (Red Hat 9.2.1-1)
REM options -cpp -mtune=generic -march=x86-64 -g -O0 -fpre-include=/usr/include/finclude/math-vector-fortran.h
REM seed 2131762358 -2132248369 -1501712276 -673286417 689971538 438364016 854770347 753055406 667272484 -1191850362 -1182949332 -2086169655 -1999034245 2060262065 319537377 -1459183151 -1282252990 -920690778 1736879929 1742991996 -1584179066 1705393643 -1807620701 -480316354 -1134657267 1867505690 -973102235 1094220822 1398503185 -1104886730 -46324940 -1869062278 1925978377
REM
CELL 1.54180   50.00000   50.00000   50.00000   90.00000   90.00000   90.00000
LATT -1
SFAC C  
C      1  0.5995220000000  0.4971060000000  0.4737730000000 1.0
C      1  0.4100510000000  0.5064570000000  0.4714330000000 1.0
C      1  0.4004380000000  0.4979080000000  0.5270480000000 1.0
C      1  0.5883440000000  0.5057310000000  0.5287270000000 1.0
C      1  0.5355920000000  0.5117690000000  0.5980220000000 1.0
C      1  0.4599620000000  0.4928420000000  0.6039500000000 1.0
C      1  0.4668940000000  0.5081030000000  0.4047210000000 1.0
C      1  0.5422750000000  0.4891810000000  0.3973220000000 1.0
C      1  0.5371640000000  0.4633030000000  0.4493310000000 1.0
C      1  0.4513670000000  0.5389300000000  0.4349880000000 1.0
C      1  0.4632230000000  0.4587370000000  0.5590510000000 1.0
C      1  0.5476580000000  0.5400840000000  0.5592530000000 1.0
C      1  0.4106800000000  0.4615860000000  0.5576830000000 1.0
C      1  0.5952630000000  0.5464330000000  0.5578500000000 1.0
C      1  0.5865730000000  0.4610330000000  0.4431250000000 1.0
C      1  0.4025200000000  0.5476810000000  0.4433770000000 1.0
C      1  0.5510460000000  0.5290110000000  0.4844950000000 1.0
C      1  0.4572280000000  0.4539040000000  0.4883820000000 1.0
C      1  0.4464380000000  0.5300970000000  0.5133750000000 1.0
C      1  0.5423400000000  0.4540960000000  0.5104610000000 1.0
C      1  0.4399380000000  0.5112280000000  0.4735210000000 1.0
C      1  0.5399550000000  0.5089480000000  0.4423970000000 1.0
C      1  0.5584760000000  0.5098200000000  0.5250360000000 1.0
C      1  0.4578900000000  0.5047700000000  0.5569380000000 1.0
C      1  0.5188170000000  0.5613800000000  0.5938250000000 1.0
C      1  0.4777400000000  0.4489850000000  0.5820400000000 1.0
C      1  0.4863080000000  0.5589200000000  0.4095860000000 1.0
C      1  0.5216480000000  0.4397930000000  0.4044320000000 1.0
C      1  0.5752340000000  0.5765110000000  0.4433150000000 1.0
C      1  0.4340460000000  0.4224310000000  0.4459880000000 1.0
C      1  0.4300170000000  0.5758620000000  0.5620960000000 1.0
C      1  0.5655700000000  0.4243630000000  0.5539260000000 1.0
C      1  0.5093790000000  0.4012700000000  0.4898080000000 1.0
C      1  0.4937450000000  0.5671790000000  0.4865840000000 1.0
C      1  0.4911420000000  0.4011990000000  0.5091170000000 1.0
C      1  0.5057720000000  0.5658160000000  0.5123260000000 1.0
C      1  0.4516450000000  0.4263080000000  0.4906800000000 1.0
C      1  0.5454820000000  0.5538400000000  0.4719590000000 1.0
C      1  0.5479000000000  0.4264460000000  0.5088820000000 1.0
C      1  0.4529200000000  0.5546650000000  0.5264740000000 1.0
C      1  0.5607020000000  0.4547570000000  0.4395990000000 1.0
C      1  0.4260710000000  0.5501780000000  0.4307730000000 1.0
C      1  0.4357740000000  0.4536440000000  0.5617780000000 1.0
C      1  0.5709000000000  0.5497990000000  0.5689730000000 1.0
C      1  0.4889380000000  0.3885080000000  0.4474150000000 1.0
C      1  0.5195090000000  0.6094540000000  0.4560390000000 1.0
C      1  0.5114440000000  0.3895590000000  0.5529040000000 1.0
C      1  0.4814560000000  0.6072540000000  0.5473680000000 1.0
C      1  0.5950670000000  0.5440500000000  0.4807770000000 1.0
C      1  0.4055690000000  0.4570060000000  0.4822720000000 1.0
C      1  0.4045280000000  0.5451570000000  0.5207270000000 1.0
C      1  0.5935430000000  0.4569720000000  0.5186390000000 1.0
C      1  0.5900210000000  0.5525400000000  0.5088250000000 1.0
C      1  0.4060480000000  0.4501150000000  0.5113530000000 1.0
C      1  0.4090490000000  0.5535710000000  0.4921860000000 1.0
C      1  0.5937220000000  0.4495260000000  0.4893600000000 1.0
C      1  0.4333640000000  0.4700030000000  0.4326200000000 1.0
C      1  0.5766170000000  0.5281140000000  0.4277250000000 1.0
C      1  0.5673710000000  0.4720290000000  0.5677230000000 1.0
C      1  0.4253510000000  0.5280330000000  0.5742350000000 1.0
C      1  0.4698530000000  0.5279550000000  0.5604660000000 1.0
C      1  0.5208330000000  0.4682040000000  0.5537940000000 1.0
C      1  0.5278790000000  0.5322170000000  0.4333520000000 1.0
C      1  0.4829860000000  0.4622670000000  0.4456430000000 1.0
C      1  0.4835990000000  0.5101240000000  0.6055820000000 1.0
C      1  0.5092230000000  0.4999100000000  0.5955240000000 1.0
C      1  0.5171290000000  0.5044340000000  0.3960930000000 1.0
C      1  0.4916070000000  0.4934590000000  0.4035260000000 1.0
C      1  0.5230090000000  0.5487100000000  0.4552610000000 1.0
C      1  0.4793720000000  0.4600590000000  0.4729040000000 1.0
C      1  0.4754710000000  0.5466340000000  0.5413450000000 1.0
C      1  0.5211860000000  0.4610780000000  0.5268260000000 1.0
C      1  0.5020250000000  0.4755910000000  0.5127630000000 1.0
C      1  0.4985910000000  0.5426280000000  0.5269670000000 1.0
C      1  0.4959740000000  0.4775010000000  0.4865070000000 1.0
C      1  0.4997390000000  0.5450300000000  0.4698360000000 1.0
C      1  0.4593550000000  0.5229710000000  0.4573730000000 1.0
C      1  0.5263570000000  0.4886520000000  0.4543090000000 1.0
C      1  0.5382780000000  0.5208070000000  0.5410920000000 1.0
C      1  0.4717480000000  0.4832480000000  0.5470990000000 1.0
C      1  0.5274640000000  0.4356530000000  0.5815230000000 1.0
C      1  0.4691280000000  0.5593240000000  0.5902450000000 1.0
C      1  0.4716560000000  0.4321840000000  0.4166840000000 1.0
C      1  0.5366760000000  0.5709160000000  0.4153760000000 1.0
C      1  0.4453450000000  0.4421380000000  0.4284610000000 1.0
C      1  0.5645560000000  0.5583440000000  0.4231360000000 1.0
C      1  0.5544570000000  0.4443640000000  0.5712520000000 1.0
C      1  0.4399310000000  0.5551140000000  0.5792520000000 1.0
C      1  0.5063920000000  0.5764330000000  0.4218710000000 1.0
C      1  0.5016790000000  0.4262120000000  0.4205000000000 1.0
C      1  0.4956200000000  0.5721090000000  0.5795200000000 1.0
C      1  0.4984800000000  0.4302400000000  0.5754830000000 1.0
C      1  0.5515630000000  0.5044820000000  0.4982600000000 1.0
C      1  0.4488210000000  0.4767240000000  0.5038390000000 1.0
C      1  0.4475250000000  0.5049850000000  0.5002510000000 1.0
C      1  0.5505890000000  0.4762900000000  0.4943280000000 1.0
C      1  0.5804190000000  0.4253840000000  0.4787670000000 1.0
C      1  0.4283600000000  0.5742160000000  0.4843900000000 1.0
C      1  0.4202550000000  0.4264840000000  0.5219420000000 1.0
C      1  0.5710030000000  0.5733130000000  0.5160590000000 1.0
C      1  0.4477720000000  0.4181910000000  0.5183240000000 1.0
C      1  0.5481890000000  0.5835620000000  0.5269550000000 1.0
C      1  0.5526480000000  0.4176550000000  0.4815100000000 1.0
C      1  0.4509650000000  0.5849510000000  0.4732450000000 1.0
C      1  0.5921770000000  0.5225000000000  0.4589180000000 1.0
C      1  0.4122570000000  0.4761920000000  0.4594090000000 1.0
C      1  0.4083630000000  0.5231410000000  0.5425570000000 1.0
C      1  0.5865220000000  0.4763050000000  0.5418550000000 1.0
C      1  0.4911200000000  0.4097800000000  0.5552700000000 1.0
C      1  0.5020070000000  0.5888420000000  0.5550570000000 1.0
C      1  0.5094950000000  0.4084790000000  0.4432340000000 1.0
C      1  0.4981490000000  0.5929120000000  0.4461580000000 1.0
C      1  0.5972800000000  0.5353100000000  0.5319430000000 1.0
C      1  0.4013700000000  0.4700010000000  0.5326810000000 1.0
C      1  0.4009590000000  0.5364240000000  0.4691020000000 1.0
C      1  0.5975670000000  0.4693390000000  0.4676940000000 1.0
C      1  0.4476080000000  0.4101420000000  0.4675800000000 1.0
C      1  0.5583460000000  0.5789610000000  0.4660780000000 1.0
C      1  0.5523540000000  0.4111860000000  0.5325830000000 1.0
C      1  0.4421680000000  0.5793640000000  0.5366330000000 1.0
C      1  0.4913750000000  0.4731260000000  0.4227900000000 1.0
C      1  0.5207530000000  0.5304190000000  0.4062170000000 1.0
C      1  0.5107290000000  0.4802900000000  0.5754510000000 1.0
C      1  0.4771040000000  0.5376780000000  0.6084940000000 1.0
C      1  0.4672470000000  0.4647700000000  0.6039800000000 1.0
C      1  0.5335960000000  0.5400570000000  0.6022830000000 1.0
C      1  0.5375060000000  0.4606850000000  0.3965950000000 1.0
C      1  0.4685130000000  0.5364760000000  0.4124040000000 1.0
C      1  0.5199840000000  0.5823600000000  0.5317800000000 1.0
C      1  0.4737030000000  0.4103640000000  0.5305970000000 1.0
C      1  0.4793230000000  0.5850600000000  0.4684340000000 1.0
C      1  0.5269970000000  0.4100560000000  0.4680660000000 1.0
C      1  0.5660990000000  0.5055520000000  0.4080360000000 1.0
C      1  0.4442390000000  0.4914410000000  0.4153630000000 1.0
C      1  0.4349660000000  0.5064080000000  0.5935860000000 1.0
C      1  0.5571930000000  0.4943730000000  0.5858140000000 1.0
C      1  0.5353480000000  0.3900740000000  0.5403830000000 1.0
C      1  0.4579460000000  0.6027660000000  0.5347650000000 1.0
C      1  0.4651980000000  0.3893450000000  0.4602270000000 1.0
C      1  0.5429770000000  0.6026710000000  0.4676650000000 1.0
C      1  0.4868680000000  0.5205780000000  0.4657040000000 1.0
C      1  0.5040350000000  0.4975660000000  0.4693870000000 1.0
C      1  0.5108000000000  0.5180600000000  0.5330780000000 1.0
C      1  0.4931350000000  0.4945050000000  0.5310740000000 1.0
C      1  0.3967040000000  0.5012870000000  0.4987700000000 1.0
C      1  0.6029590000000  0.5004140000000  0.5020910000000 1.0
END
