TITL C-3623284-6838-614 -0.000424020769476889 125000 -1121.69901244248 0 0 186 (C1) n - 1
REM
REM in /home/nfs/bkarasulu/CARBON/AIRSS/Generating-Clusters/LCBOP/Higher-Symm/SD-CG/FIRE-CG
REM
REM
REM
REM
REM
REM ./C.cell (b20cbc046b6831c77cfcea5457e17084)
REM AIRSS Version 0.9.1 bugfix July 2018 build 013d7b7c2542+ Fri, 06 Jul 2018 19:26:36 +0100
REM compiler GCC version 9.2.1 20190827 (Red Hat 9.2.1-1)
REM options -cpp -mtune=generic -march=x86-64 -g -O0 -fpre-include=/usr/include/finclude/math-vector-fortran.h
REM seed -830762085 -1371534365 1182538884 578004162 914090151 2040184053 868147538 -889687098 1121501736 1167393767 1656550520 -1584107390 -1390358404 130543654 -1099698772 -1012098724 -1170534442 2115712519 -451904254 -485708034 1763328919 -265697544 -495129939 904635959 1126797097 -1685537991 -1992728777 316223777 1056765139 1691515067 202610616 -249099883 496526210
REM
CELL 1.54180   50.00000   50.00000   50.00000   90.00000   90.00000   90.00000
LATT -1
SFAC C  
C      1  0.5181460000000  0.3813730000000  0.4646180000000 1.0
C      1  0.5457180000000  0.6203240000000  0.4935490000000 1.0
C      1  0.5280920000000  0.3849200000000  0.5384420000000 1.0
C      1  0.4835940000000  0.6203380000000  0.5429180000000 1.0
C      1  0.4582500000000  0.3830010000000  0.5077450000000 1.0
C      1  0.4740560000000  0.6185410000000  0.4664800000000 1.0
C      1  0.4429060000000  0.4343740000000  0.4032100000000 1.0
C      1  0.5464480000000  0.5559720000000  0.3939410000000 1.0
C      1  0.6125630000000  0.4486740000000  0.4923600000000 1.0
C      1  0.5672450000000  0.5550560000000  0.5905170000000 1.0
C      1  0.4406310000000  0.4356640000000  0.5975340000000 1.0
C      1  0.3905880000000  0.5552590000000  0.5091990000000 1.0
C      1  0.5880520000000  0.5575060000000  0.6400840000000 1.0
C      1  0.3976160000000  0.4164350000000  0.6234310000000 1.0
C      1  0.3403420000000  0.5586210000000  0.4902510000000 1.0
C      1  0.4394990000000  0.4161380000000  0.3527180000000 1.0
C      1  0.5820100000000  0.5639900000000  0.3543290000000 1.0
C      1  0.6641640000000  0.4442260000000  0.5069500000000 1.0
C      1  0.4482410000000  0.4630480000000  0.5971180000000 1.0
C      1  0.4029570000000  0.5305300000000  0.5174590000000 1.0
C      1  0.4407080000000  0.4619750000000  0.4102890000000 1.0
C      1  0.5361300000000  0.5297380000000  0.4009620000000 1.0
C      1  0.6003540000000  0.4735110000000  0.4837930000000 1.0
C      1  0.5659150000000  0.5303710000000  0.5753850000000 1.0
C      1  0.4521450000000  0.5230630000000  0.5634160000000 1.0
C      1  0.4284050000000  0.4835730000000  0.4866780000000 1.0
C      1  0.4732750000000  0.5210270000000  0.4305560000000 1.0
C      1  0.5476520000000  0.4762670000000  0.4382610000000 1.0
C      1  0.5748830000000  0.5242620000000  0.5100920000000 1.0
C      1  0.5246950000000  0.4830840000000  0.5734200000000 1.0
C      1  0.5045310000000  0.4655500000000  0.5832090000000 1.0
C      1  0.4382200000000  0.5455760000000  0.5526540000000 1.0
C      1  0.4281180000000  0.4648150000000  0.4650360000000 1.0
C      1  0.4905460000000  0.5416070000000  0.4218850000000 1.0
C      1  0.5627880000000  0.4578980000000  0.4533300000000 1.0
C      1  0.5731440000000  0.5461790000000  0.5278350000000 1.0
C      1  0.4918360000000  0.5221910000000  0.4949830000000 1.0
C      1  0.5039450000000  0.4854210000000  0.4724310000000 1.0
C      1  0.5154910000000  0.5108200000000  0.4806380000000 1.0
C      1  0.4901550000000  0.4731720000000  0.4944780000000 1.0
C      1  0.4903330000000  0.5113070000000  0.5227260000000 1.0
C      1  0.4780130000000  0.4855720000000  0.5174350000000 1.0
C      1  0.6391860000000  0.4462770000000  0.4998110000000 1.0
C      1  0.5772090000000  0.5564760000000  0.6164090000000 1.0
C      1  0.4185620000000  0.4256410000000  0.6109580000000 1.0
C      1  0.3646570000000  0.5570720000000  0.4994950000000 1.0
C      1  0.4409410000000  0.4248740000000  0.3772260000000 1.0
C      1  0.5648280000000  0.5601680000000  0.3735440000000 1.0
C      1  0.4679900000000  0.5217610000000  0.6147090000000 1.0
C      1  0.3990770000000  0.4726130000000  0.5473870000000 1.0
C      1  0.4148210000000  0.5184610000000  0.4314350000000 1.0
C      1  0.5074050000000  0.4709570000000  0.3868060000000 1.0
C      1  0.5964610000000  0.5302330000000  0.4478850000000 1.0
C      1  0.5923410000000  0.4724930000000  0.5606280000000 1.0
C      1  0.4968530000000  0.5421900000000  0.3776050000000 1.0
C      1  0.6049630000000  0.4583090000000  0.4396790000000 1.0
C      1  0.6072720000000  0.5438320000000  0.5565580000000 1.0
C      1  0.4847610000000  0.4559970000000  0.6258720000000 1.0
C      1  0.3945470000000  0.5437440000000  0.5620390000000 1.0
C      1  0.3982870000000  0.4536320000000  0.4294160000000 1.0
C      1  0.4809190000000  0.4925890000000  0.4259240000000 1.0
C      1  0.5523500000000  0.5057340000000  0.4450160000000 1.0
C      1  0.5735360000000  0.4957190000000  0.5199110000000 1.0
C      1  0.5218800000000  0.5099400000000  0.5627420000000 1.0
C      1  0.4438860000000  0.4941410000000  0.5555370000000 1.0
C      1  0.4399860000000  0.5100940000000  0.4907100000000 1.0
C      1  0.4618290000000  0.4721590000000  0.6206710000000 1.0
C      1  0.3979630000000  0.5209020000000  0.5447990000000 1.0
C      1  0.4135300000000  0.4713050000000  0.4128790000000 1.0
C      1  0.5124400000000  0.5195110000000  0.3864730000000 1.0
C      1  0.6018850000000  0.4824670000000  0.4555290000000 1.0
C      1  0.5913290000000  0.5207780000000  0.5633910000000 1.0
C      1  0.4629010000000  0.4382950000000  0.4804920000000 1.0
C      1  0.4988940000000  0.5645700000000  0.4603060000000 1.0
C      1  0.5312460000000  0.4386730000000  0.4787210000000 1.0
C      1  0.5343160000000  0.5653920000000  0.5142160000000 1.0
C      1  0.5013770000000  0.4414610000000  0.5431440000000 1.0
C      1  0.4707020000000  0.5651300000000  0.5273290000000 1.0
C      1  0.4899690000000  0.4180310000000  0.5311180000000 1.0
C      1  0.4731120000000  0.5870230000000  0.5091580000000 1.0
C      1  0.4797230000000  0.4152910000000  0.4774870000000 1.0
C      1  0.5110130000000  0.5886160000000  0.4698480000000 1.0
C      1  0.5291050000000  0.4166780000000  0.4966120000000 1.0
C      1  0.5204760000000  0.5889340000000  0.5223580000000 1.0
C      1  0.5539140000000  0.4581460000000  0.4812370000000 1.0
C      1  0.5447210000000  0.5475820000000  0.5351720000000 1.0
C      1  0.4849190000000  0.4603370000000  0.5614860000000 1.0
C      1  0.4477670000000  0.5471520000000  0.5248420000000 1.0
C      1  0.4561140000000  0.4581280000000  0.4579210000000 1.0
C      1  0.5123000000000  0.5446940000000  0.4415030000000 1.0
C      1  0.5439220000000  0.4677950000000  0.5565770000000 1.0
C      1  0.4801830000000  0.5336990000000  0.5673990000000 1.0
C      1  0.4315050000000  0.4665410000000  0.5114350000000 1.0
C      1  0.4587930000000  0.5335970000000  0.4534330000000 1.0
C      1  0.5221050000000  0.4625680000000  0.4325920000000 1.0
C      1  0.5632990000000  0.5346970000000  0.4847570000000 1.0
C      1  0.4468930000000  0.5764150000000  0.4735050000000 1.0
C      1  0.4996320000000  0.4202510000000  0.4379340000000 1.0
C      1  0.5516200000000  0.5756260000000  0.4623380000000 1.0
C      1  0.5546460000000  0.4296440000000  0.5311540000000 1.0
C      1  0.5059120000000  0.5767210000000  0.5662000000000 1.0
C      1  0.4447400000000  0.4243990000000  0.5298960000000 1.0
C      1  0.4597880000000  0.4708390000000  0.4303660000000 1.0
C      1  0.5348940000000  0.5267370000000  0.4297590000000 1.0
C      1  0.5740570000000  0.4759490000000  0.4960030000000 1.0
C      1  0.5423510000000  0.5292890000000  0.5584740000000 1.0
C      1  0.4584190000000  0.4724770000000  0.5716540000000 1.0
C      1  0.4304770000000  0.5292010000000  0.5092820000000 1.0
C      1  0.4690280000000  0.5616750000000  0.4618120000000 1.0
C      1  0.5181180000000  0.4380650000000  0.4511920000000 1.0
C      1  0.5475040000000  0.5612780000000  0.4876160000000 1.0
C      1  0.5314970000000  0.4433650000000  0.5430220000000 1.0
C      1  0.4850350000000  0.5615380000000  0.5535310000000 1.0
C      1  0.4472080000000  0.4407190000000  0.5061010000000 1.0
C      1  0.4275330000000  0.4178390000000  0.4476500000000 1.0
C      1  0.5073200000000  0.5835900000000  0.4065970000000 1.0
C      1  0.5851990000000  0.4177510000000  0.4659150000000 1.0
C      1  0.5773270000000  0.5858480000000  0.5535440000000 1.0
C      1  0.4868630000000  0.4197900000000  0.5911580000000 1.0
C      1  0.4155940000000  0.5853740000000  0.5394050000000 1.0
C      1  0.6190620000000  0.5869310000000  0.4862720000000 1.0
C      1  0.5667440000000  0.4258060000000  0.6122300000000 1.0
C      1  0.5191700000000  0.5615770000000  0.6284190000000 1.0
C      1  0.3716850000000  0.4230400000000  0.5015990000000 1.0
C      1  0.4172510000000  0.5868280000000  0.4199890000000 1.0
C      1  0.5492290000000  0.4102460000000  0.3888390000000 1.0
C      1  0.5484860000000  0.5816130000000  0.4360070000000 1.0
C      1  0.5764010000000  0.4240030000000  0.5156880000000 1.0
C      1  0.5310280000000  0.5834610000000  0.5737810000000 1.0
C      1  0.4494730000000  0.4161000000000  0.5552470000000 1.0
C      1  0.4258690000000  0.5825830000000  0.4895540000000 1.0
C      1  0.4752370000000  0.4118960000000  0.4299630000000 1.0
C      1  0.5626160000000  0.6193100000000  0.5145050000000 1.0
C      1  0.5189810000000  0.3869370000000  0.5636640000000 1.0
C      1  0.4569590000000  0.6188700000000  0.5471450000000 1.0
C      1  0.4395840000000  0.3846640000000  0.4882550000000 1.0
C      1  0.4816320000000  0.6168470000000  0.4405210000000 1.0
C      1  0.5447740000000  0.3828110000000  0.4603290000000 1.0
C      1  0.4776490000000  0.3954810000000  0.5220320000000 1.0
C      1  0.4725390000000  0.6077680000000  0.4913850000000 1.0
C      1  0.4951030000000  0.3933170000000  0.4724300000000 1.0
C      1  0.5260700000000  0.6095400000000  0.4784930000000 1.0
C      1  0.5304080000000  0.3958290000000  0.5139030000000 1.0
C      1  0.5063640000000  0.6096660000000  0.5328620000000 1.0
C      1  0.6040470000000  0.5667250000000  0.4795310000000 1.0
C      1  0.5690010000000  0.4428900000000  0.5926830000000 1.0
C      1  0.5062780000000  0.5491350000000  0.6094500000000 1.0
C      1  0.3878030000000  0.4409200000000  0.5115780000000 1.0
C      1  0.4241140000000  0.5649120000000  0.4323350000000 1.0
C      1  0.5351230000000  0.4312690000000  0.3950220000000 1.0
C      1  0.4941480000000  0.6052090000000  0.4195790000000 1.0
C      1  0.5687240000000  0.3951010000000  0.4615950000000 1.0
C      1  0.5730780000000  0.6081380000000  0.5366350000000 1.0
C      1  0.5044500000000  0.3993290000000  0.5825360000000 1.0
C      1  0.4326720000000  0.6073670000000  0.5450310000000 1.0
C      1  0.4281580000000  0.3974260000000  0.4674270000000 1.0
C      1  0.4051070000000  0.4591930000000  0.5235100000000 1.0
C      1  0.4308830000000  0.5390260000000  0.4412170000000 1.0
C      1  0.5211460000000  0.4536480000000  0.4040160000000 1.0
C      1  0.5889480000000  0.5453480000000  0.4700360000000 1.0
C      1  0.5690950000000  0.4602740000000  0.5709480000000 1.0
C      1  0.4854870000000  0.5350770000000  0.5971320000000 1.0
C      1  0.5021690000000  0.4817700000000  0.4443120000000 1.0
C      1  0.5436120000000  0.5147000000000  0.4735050000000 1.0
C      1  0.5482420000000  0.4861980000000  0.5328400000000 1.0
C      1  0.4976540000000  0.5165920000000  0.5498650000000 1.0
C      1  0.4513200000000  0.4832010000000  0.5276210000000 1.0
C      1  0.4646930000000  0.5191080000000  0.4791990000000 1.0
C      1  0.5916320000000  0.4969250000000  0.5464520000000 1.0
C      1  0.4605640000000  0.4992480000000  0.6267940000000 1.0
C      1  0.4117020000000  0.4968460000000  0.5537440000000 1.0
C      1  0.4085720000000  0.4985760000000  0.4149920000000 1.0
C      1  0.4987600000000  0.4958660000000  0.3950720000000 1.0
C      1  0.5853630000000  0.5047780000000  0.4456980000000 1.0
C      1  0.4586780000000  0.4197150000000  0.5820050000000 1.0
C      1  0.4083730000000  0.5781310000000  0.5117740000000 1.0
C      1  0.4476780000000  0.4175520000000  0.4260030000000 1.0
C      1  0.5358940000000  0.5775860000000  0.4105580000000 1.0
C      1  0.5936360000000  0.4263970000000  0.4927310000000 1.0
C      1  0.5590850000000  0.5784810000000  0.5752480000000 1.0
C      1  0.5911160000000  0.5629760000000  0.5424840000000 1.0
C      1  0.4977180000000  0.4450180000000  0.6029030000000 1.0
C      1  0.4157760000000  0.5627020000000  0.5577750000000 1.0
C      1  0.4128100000000  0.4434260000000  0.4517300000000 1.0
C      1  0.4920280000000  0.5599130000000  0.3996660000000 1.0
C      1  0.5842220000000  0.4397330000000  0.4470150000000 1.0
END
