TITL C-3623282-6910-1951 23086.9795284121 125000 -1212.33529182872 0 0 196 (C1) n - 1
REM
REM in /home/nfs/bkarasulu/CARBON/AIRSS/Generating-Clusters/LCBOP/Higher-Symm/SD-CG/FIRE-CG
REM
REM
REM
REM
REM
REM ./C.cell (b20cbc046b6831c77cfcea5457e17084)
REM AIRSS Version 0.9.1 bugfix July 2018 build 013d7b7c2542+ Fri, 06 Jul 2018 19:26:36 +0100
REM compiler GCC version 9.2.1 20190827 (Red Hat 9.2.1-1)
REM options -cpp -mtune=generic -march=x86-64 -g -O0 -fpre-include=/usr/include/finclude/math-vector-fortran.h
REM seed 62665858 -388489256 -52681768 1311599811 -1601543625 -693520658 1633703469 669212893 154189078 904524575 850054063 1568679359 162887518 1289940323 118225300 -118774199 512094798 208334300 808235839 -1543844116 -2028673762 -1021656355 1124626889 -590231223 1661561888 1344805608 1521192050 -1894411921 1585895995 -1907459163 -1665425896 208558828 410895217
REM
CELL 1.54180   50.00000   50.00000   50.00000   90.00000   90.00000   90.00000
LATT -1
SFAC C  
C      1  0.5799120000000  0.5171420000000  0.4178750000000 1.0
C      1  0.5363880000000  0.5215190000000  0.6175210000000 1.0
C      1  0.3811020000000  0.5240580000000  0.4732710000000 1.0
C      1  0.4198780000000  0.4842260000000  0.4168660000000 1.0
C      1  0.4681330000000  0.4824480000000  0.6103680000000 1.0
C      1  0.6202730000000  0.4790160000000  0.4736390000000 1.0
C      1  0.4315880000000  0.4969690000000  0.4905970000000 1.0
C      1  0.5413200000000  0.4987390000000  0.4474330000000 1.0
C      1  0.5262280000000  0.4953850000000  0.5638790000000 1.0
C      1  0.5679140000000  0.5048920000000  0.4912890000000 1.0
C      1  0.4580420000000  0.5033280000000  0.4463830000000 1.0
C      1  0.4748780000000  0.5012840000000  0.5624410000000 1.0
C      1  0.5513840000000  0.4489330000000  0.4643060000000 1.0
C      1  0.5053970000000  0.4462810000000  0.5619620000000 1.0
C      1  0.4409230000000  0.4496640000000  0.4714250000000 1.0
C      1  0.4445770000000  0.5510890000000  0.4621150000000 1.0
C      1  0.4946770000000  0.5504470000000  0.5650470000000 1.0
C      1  0.5558120000000  0.5539930000000  0.4736640000000 1.0
C      1  0.5082380000000  0.4264140000000  0.5797270000000 1.0
C      1  0.4233740000000  0.4302480000000  0.4654630000000 1.0
C      1  0.5658300000000  0.4289150000000  0.4538790000000 1.0
C      1  0.4926550000000  0.5700070000000  0.5832750000000 1.0
C      1  0.5724180000000  0.5738180000000  0.4666450000000 1.0
C      1  0.4319090000000  0.5696430000000  0.4472740000000 1.0
C      1  0.5652610000000  0.4129890000000  0.5591180000000 1.0
C      1  0.4139890000000  0.4130070000000  0.5250600000000 1.0
C      1  0.5190110000000  0.4133410000000  0.4175850000000 1.0
C      1  0.4375060000000  0.5867530000000  0.5613750000000 1.0
C      1  0.5821500000000  0.5875460000000  0.5261810000000 1.0
C      1  0.4784550000000  0.5864400000000  0.4068610000000 1.0
C      1  0.5137250000000  0.5387890000000  0.4341360000000 1.0
C      1  0.5504010000000  0.5370320000000  0.5479770000000 1.0
C      1  0.4358700000000  0.5381190000000  0.5202370000000 1.0
C      1  0.4856580000000  0.4634030000000  0.4344710000000 1.0
C      1  0.4493990000000  0.4618620000000  0.5449540000000 1.0
C      1  0.5670520000000  0.4636960000000  0.5204270000000 1.0
C      1  0.4548270000000  0.3905190000000  0.5033570000000 1.0
C      1  0.5127910000000  0.3917140000000  0.4643030000000 1.0
C      1  0.5284550000000  0.3910370000000  0.5308080000000 1.0
C      1  0.5387390000000  0.6088090000000  0.5082760000000 1.0
C      1  0.4779150000000  0.6116630000000  0.4505700000000 1.0
C      1  0.4754180000000  0.6091070000000  0.5352430000000 1.0
C      1  0.4646020000000  0.4121650000000  0.5508390000000 1.0
C      1  0.4718710000000  0.4131830000000  0.4423830000000 1.0
C      1  0.5661740000000  0.4126110000000  0.5040770000000 1.0
C      1  0.5362160000000  0.5885090000000  0.5546960000000 1.0
C      1  0.5261590000000  0.5884430000000  0.4439090000000 1.0
C      1  0.4374580000000  0.5873770000000  0.5046780000000 1.0
C      1  0.5764970000000  0.5970390000000  0.4796610000000 1.0
C      1  0.4802470000000  0.5938540000000  0.5813530000000 1.0
C      1  0.4384040000000  0.5912690000000  0.4324590000000 1.0
C      1  0.4171890000000  0.4070810000000  0.4777320000000 1.0
C      1  0.5221500000000  0.4034720000000  0.5774030000000 1.0
C      1  0.5564950000000  0.4049590000000  0.4458250000000 1.0
C      1  0.4234860000000  0.4621890000000  0.5269980000000 1.0
C      1  0.5144770000000  0.4626090000000  0.4224510000000 1.0
C      1  0.5629620000000  0.4626760000000  0.5517960000000 1.0
C      1  0.5755400000000  0.5379280000000  0.5288420000000 1.0
C      1  0.4854280000000  0.5383760000000  0.4203740000000 1.0
C      1  0.4398730000000  0.5375800000000  0.5514560000000 1.0
C      1  0.5403990000000  0.3986360000000  0.5562990000000 1.0
C      1  0.4268990000000  0.3992580000000  0.5032330000000 1.0
C      1  0.5289740000000  0.4002060000000  0.4413570000000 1.0
C      1  0.4627170000000  0.6005630000000  0.5601280000000 1.0
C      1  0.5668810000000  0.6013480000000  0.5059150000000 1.0
C      1  0.4644780000000  0.6015040000000  0.4268600000000 1.0
C      1  0.3837830000000  0.5321010000000  0.4460260000000 1.0
C      1  0.5856940000000  0.5196240000000  0.4457290000000 1.0
C      1  0.5113350000000  0.5295910000000  0.6284110000000 1.0
C      1  0.6173700000000  0.4706730000000  0.4465810000000 1.0
C      1  0.4135500000000  0.4826170000000  0.4447450000000 1.0
C      1  0.4953210000000  0.4802480000000  0.6017690000000 1.0
C      1  0.5591650000000  0.4756290000000  0.4085300000000 1.0
C      1  0.5583440000000  0.4827040000000  0.5968120000000 1.0
C      1  0.3869600000000  0.4846250000000  0.5021500000000 1.0
C      1  0.4407540000000  0.5254090000000  0.4065540000000 1.0
C      1  0.4493310000000  0.5238380000000  0.5970870000000 1.0
C      1  0.6124580000000  0.5177910000000  0.5028280000000 1.0
C      1  0.4856860000000  0.4471220000000  0.3633270000000 1.0
C      1  0.6280070000000  0.4481930000000  0.5571020000000 1.0
C      1  0.3883750000000  0.4479230000000  0.5824250000000 1.0
C      1  0.5178440000000  0.5497030000000  0.3615890000000 1.0
C      1  0.3746310000000  0.5530010000000  0.5569280000000 1.0
C      1  0.6123790000000  0.5536890000000  0.5822860000000 1.0
C      1  0.3946920000000  0.5261480000000  0.4219510000000 1.0
C      1  0.6117110000000  0.5229710000000  0.4558560000000 1.0
C      1  0.4849070000000  0.5240860000000  0.6301770000000 1.0
C      1  0.6056230000000  0.4757200000000  0.4227570000000 1.0
C      1  0.3874650000000  0.4799660000000  0.4550190000000 1.0
C      1  0.5170890000000  0.4773470000000  0.6193720000000 1.0
C      1  0.5639110000000  0.5432890000000  0.5753460000000 1.0
C      1  0.4054320000000  0.5443890000000  0.5182900000000 1.0
C      1  0.5321090000000  0.5422720000000  0.4091940000000 1.0
C      1  0.4367080000000  0.4574000000000  0.5730580000000 1.0
C      1  0.5975390000000  0.4577680000000  0.5186000000000 1.0
C      1  0.4682250000000  0.4590670000000  0.4089310000000 1.0
C      1  0.4982270000000  0.4850320000000  0.3304330000000 1.0
C      1  0.6491260000000  0.4884930000000  0.5819220000000 1.0
C      1  0.3563910000000  0.4880860000000  0.5891980000000 1.0
C      1  0.5070760000000  0.5101090000000  0.3300590000000 1.0
C      1  0.3526850000000  0.5135000000000  0.5822930000000 1.0
C      1  0.6450990000000  0.5139640000000  0.5884340000000 1.0
C      1  0.5274120000000  0.4787030000000  0.4936110000000 1.0
C      1  0.4927800000000  0.4766030000000  0.5260790000000 1.0
C      1  0.4798400000000  0.4786760000000  0.4805800000000 1.0
C      1  0.4720610000000  0.5228930000000  0.4916200000000 1.0
C      1  0.5072500000000  0.5215920000000  0.5283490000000 1.0
C      1  0.5185450000000  0.5237240000000  0.4806650000000 1.0
C      1  0.4624650000000  0.5223900000000  0.4247010000000 1.0
C      1  0.5848030000000  0.5209030000000  0.5084480000000 1.0
C      1  0.4543550000000  0.5208890000000  0.5692230000000 1.0
C      1  0.5372810000000  0.4789160000000  0.4264130000000 1.0
C      1  0.4145720000000  0.4806750000000  0.5075770000000 1.0
C      1  0.5496460000000  0.4795650000000  0.5699690000000 1.0
C      1  0.5176470000000  0.5887460000000  0.5082400000000 1.0
C      1  0.4915320000000  0.5895410000000  0.5211430000000 1.0
C      1  0.4780540000000  0.5915690000000  0.4707150000000 1.0
C      1  0.4738740000000  0.4107070000000  0.4957290000000 1.0
C      1  0.5163100000000  0.4113700000000  0.5144010000000 1.0
C      1  0.5036060000000  0.4104080000000  0.4871080000000 1.0
C      1  0.4473750000000  0.5166560000000  0.5034200000000 1.0
C      1  0.5208360000000  0.5174120000000  0.4533550000000 1.0
C      1  0.5296580000000  0.5158500000000  0.5446290000000 1.0
C      1  0.5530640000000  0.4844730000000  0.5040970000000 1.0
C      1  0.4785790000000  0.4850420000000  0.4531860000000 1.0
C      1  0.4700560000000  0.4827790000000  0.5415590000000 1.0
C      1  0.4915120000000  0.5435950000000  0.5374510000000 1.0
C      1  0.4705290000000  0.5447210000000  0.4731040000000 1.0
C      1  0.5343240000000  0.5456030000000  0.4903270000000 1.0
C      1  0.5094410000000  0.4549230000000  0.5350890000000 1.0
C      1  0.5263590000000  0.4561580000000  0.4759350000000 1.0
C      1  0.4626400000000  0.4569680000000  0.4885740000000 1.0
C      1  0.4903340000000  0.4624540000000  0.3420730000000 1.0
C      1  0.6434460000000  0.4650000000000  0.5708100000000 1.0
C      1  0.3689540000000  0.4646420000000  0.5896410000000 1.0
C      1  0.5144450000000  0.5332170000000  0.3409770000000 1.0
C      1  0.3587870000000  0.5366660000000  0.5707330000000 1.0
C      1  0.6322520000000  0.5372540000000  0.5889010000000 1.0
C      1  0.4676680000000  0.4362930000000  0.5073940000000 1.0
C      1  0.5052000000000  0.4371180000000  0.4717830000000 1.0
C      1  0.5262250000000  0.4370750000000  0.5203720000000 1.0
C      1  0.5293320000000  0.5630730000000  0.5120470000000 1.0
C      1  0.4889450000000  0.5657460000000  0.4675780000000 1.0
C      1  0.4783930000000  0.5638450000000  0.5219710000000 1.0
C      1  0.4486830000000  0.4663790000000  0.5970640000000 1.0
C      1  0.4414300000000  0.4681950000000  0.4070070000000 1.0
C      1  0.6130820000000  0.4631490000000  0.4959080000000 1.0
C      1  0.5520440000000  0.5374650000000  0.6001110000000 1.0
C      1  0.5588100000000  0.5332180000000  0.4075870000000 1.0
C      1  0.3896830000000  0.5394280000000  0.4955200000000 1.0
C      1  0.5006670000000  0.6288520000000  0.4555910000000 1.0
C      1  0.5304300000000  0.6296630000000  0.5262570000000 1.0
C      1  0.4626910000000  0.6272510000000  0.5171650000000 1.0
C      1  0.4924680000000  0.3716590000000  0.4599120000000 1.0
C      1  0.4666400000000  0.3723540000000  0.5222540000000 1.0
C      1  0.5394140000000  0.3710870000000  0.5131040000000 1.0
C      1  0.5837930000000  0.4893250000000  0.4104010000000 1.0
C      1  0.5407130000000  0.4929090000000  0.6165100000000 1.0
C      1  0.3787810000000  0.4954480000000  0.4772570000000 1.0
C      1  0.4160070000000  0.5120570000000  0.4090810000000 1.0
C      1  0.4633830000000  0.5102600000000  0.6174850000000 1.0
C      1  0.6211020000000  0.5076290000000  0.4778300000000 1.0
C      1  0.5886830000000  0.5574580000000  0.5680850000000 1.0
C      1  0.3989660000000  0.5570550000000  0.5439950000000 1.0
C      1  0.5148630000000  0.5545020000000  0.3888510000000 1.0
C      1  0.4112720000000  0.4437080000000  0.5670730000000 1.0
C      1  0.6039350000000  0.4439130000000  0.5437230000000 1.0
C      1  0.4865290000000  0.4442720000000  0.3910440000000 1.0
C      1  0.5207760000000  0.3527910000000  0.5038360000000 1.0
C      1  0.4848910000000  0.3539310000000  0.5126230000000 1.0
C      1  0.4935060000000  0.3511210000000  0.4780820000000 1.0
C      1  0.4785740000000  0.6468160000000  0.5062760000000 1.0
C      1  0.5137810000000  0.6481300000000  0.5141730000000 1.0
C      1  0.5009890000000  0.6448780000000  0.4784610000000 1.0
C      1  0.5376120000000  0.5634790000000  0.5399700000000 1.0
C      1  0.4508110000000  0.5639310000000  0.5137780000000 1.0
C      1  0.5115060000000  0.5648200000000  0.4497370000000 1.0
C      1  0.4620160000000  0.4359100000000  0.5354060000000 1.0
C      1  0.5540660000000  0.4372460000000  0.5131420000000 1.0
C      1  0.4859740000000  0.4370910000000  0.4499050000000 1.0
C      1  0.5883950000000  0.5629340000000  0.5391830000000 1.0
C      1  0.4239040000000  0.5619100000000  0.5586560000000 1.0
C      1  0.4889350000000  0.5607620000000  0.4008420000000 1.0
C      1  0.4099000000000  0.4379920000000  0.5382030000000 1.0
C      1  0.5788730000000  0.4380040000000  0.5578690000000 1.0
C      1  0.5115050000000  0.4381360000000  0.4055430000000 1.0
C      1  0.5324910000000  0.6158270000000  0.5518460000000 1.0
C      1  0.4405470000000  0.6143620000000  0.5049160000000 1.0
C      1  0.5240990000000  0.6154100000000  0.4463480000000 1.0
C      1  0.4674090000000  0.3852950000000  0.5476300000000 1.0
C      1  0.5619330000000  0.3854450000000  0.5017080000000 1.0
C      1  0.4721500000000  0.3859270000000  0.4454270000000 1.0
C      1  0.4998480000000  0.4939350000000  0.5766420000000 1.0
C      1  0.5660170000000  0.5060790000000  0.4621030000000 1.0
C      1  0.4332440000000  0.4962320000000  0.4611300000000 1.0
C      1  0.5001190000000  0.5014080000000  0.5005620000000 1.0
END
