TITL C-3623282-6910-650 0.0210706480675918 125000 -898.439214218784 0 0 151 (C1) n - 1
REM
REM in /home/nfs/bkarasulu/CARBON/AIRSS/Generating-Clusters/LCBOP/Higher-Symm/SD-CG/FIRE-CG
REM
REM
REM
REM
REM
REM ./C.cell (b20cbc046b6831c77cfcea5457e17084)
REM AIRSS Version 0.9.1 bugfix July 2018 build 013d7b7c2542+ Fri, 06 Jul 2018 19:26:36 +0100
REM compiler GCC version 9.2.1 20190827 (Red Hat 9.2.1-1)
REM options -cpp -mtune=generic -march=x86-64 -g -O0 -fpre-include=/usr/include/finclude/math-vector-fortran.h
REM seed -1358364132 1024749610 -15961219 25750856 -310382493 -657715517 662389264 1332258758 1171291065 1126714571 1151372743 1879125361 2023530429 2042112635 1226162301 -1280817841 1912235399 -484699684 -875460513 898061524 -2131446974 183648433 -764271399 2055603757 -660284114 -393913739 1312092516 1450899219 -971746120 1374428813 -359872603 -1372511575 -227720214
REM
CELL 1.54180   50.00000   50.00000   50.00000   90.00000   90.00000   90.00000
LATT -1
SFAC C  
C      1  0.5251390000000  0.4750510000000  0.6264370000000 1.0
C      1  0.4827070000000  0.5265400000000  0.6281010000000 1.0
C      1  0.5256880000000  0.4739900000000  0.3693170000000 1.0
C      1  0.4786790000000  0.5231910000000  0.3714140000000 1.0
C      1  0.4141810000000  0.5418860000000  0.4283700000000 1.0
C      1  0.5848490000000  0.4590840000000  0.4274770000000 1.0
C      1  0.4150800000000  0.5262990000000  0.5724190000000 1.0
C      1  0.5870160000000  0.4713820000000  0.5731430000000 1.0
C      1  0.4547290000000  0.4648480000000  0.3965130000000 1.0
C      1  0.5484580000000  0.5334570000000  0.4007890000000 1.0
C      1  0.4533750000000  0.4690630000000  0.5982270000000 1.0
C      1  0.5506460000000  0.5346100000000  0.5948680000000 1.0
C      1  0.5645350000000  0.5048160000000  0.5188680000000 1.0
C      1  0.4349720000000  0.4965510000000  0.5159070000000 1.0
C      1  0.5459010000000  0.4978160000000  0.5000350000000 1.0
C      1  0.4527620000000  0.5053100000000  0.4970410000000 1.0
C      1  0.5309070000000  0.5433110000000  0.5397660000000 1.0
C      1  0.4676530000000  0.4518450000000  0.5573320000000 1.0
C      1  0.5246210000000  0.5349120000000  0.4607280000000 1.0
C      1  0.4764940000000  0.4634430000000  0.4528200000000 1.0
C      1  0.4992270000000  0.4202560000000  0.5293680000000 1.0
C      1  0.4962210000000  0.5846100000000  0.5295060000000 1.0
C      1  0.5209150000000  0.4030830000000  0.4668020000000 1.0
C      1  0.4850940000000  0.5947540000000  0.4659420000000 1.0
C      1  0.6033220000000  0.4624370000000  0.4849130000000 1.0
C      1  0.3948410000000  0.5424580000000  0.4850030000000 1.0
C      1  0.6055730000000  0.4637180000000  0.5146280000000 1.0
C      1  0.3927270000000  0.5399130000000  0.5145090000000 1.0
C      1  0.4577560000000  0.5617190000000  0.5869470000000 1.0
C      1  0.5444650000000  0.4351590000000  0.5846080000000 1.0
C      1  0.4596610000000  0.5705430000000  0.4125990000000 1.0
C      1  0.5422020000000  0.4252440000000  0.4117580000000 1.0
C      1  0.5249390000000  0.4475290000000  0.4459100000000 1.0
C      1  0.4753090000000  0.5495480000000  0.4482710000000 1.0
C      1  0.5235070000000  0.4554250000000  0.5508470000000 1.0
C      1  0.4756410000000  0.5462480000000  0.5495330000000 1.0
C      1  0.5621500000000  0.4138130000000  0.4332650000000 1.0
C      1  0.4403690000000  0.5848720000000  0.4329570000000 1.0
C      1  0.5696110000000  0.4248740000000  0.5722640000000 1.0
C      1  0.4323390000000  0.5730490000000  0.5745710000000 1.0
C      1  0.4253600000000  0.4567550000000  0.4430220000000 1.0
C      1  0.5717870000000  0.5523980000000  0.4474670000000 1.0
C      1  0.4204640000000  0.4507810000000  0.5547650000000 1.0
C      1  0.5801860000000  0.5551040000000  0.5514640000000 1.0
C      1  0.4824640000000  0.4509710000000  0.4773620000000 1.0
C      1  0.5177000000000  0.5453820000000  0.4866700000000 1.0
C      1  0.4660440000000  0.4567580000000  0.4988190000000 1.0
C      1  0.5319280000000  0.5471420000000  0.5112440000000 1.0
C      1  0.5080890000000  0.5054370000000  0.5289280000000 1.0
C      1  0.4782860000000  0.4735210000000  0.5173960000000 1.0
C      1  0.5227000000000  0.4950590000000  0.4850200000000 1.0
C      1  0.4756630000000  0.5023410000000  0.4815080000000 1.0
C      1  0.4662240000000  0.4756740000000  0.5428620000000 1.0
C      1  0.5290010000000  0.5153350000000  0.5448260000000 1.0
C      1  0.4691960000000  0.4914320000000  0.4553450000000 1.0
C      1  0.5291910000000  0.5068990000000  0.4594220000000 1.0
C      1  0.5614550000000  0.4817690000000  0.5657710000000 1.0
C      1  0.4406090000000  0.5161600000000  0.5642080000000 1.0
C      1  0.5597610000000  0.4733530000000  0.4271190000000 1.0
C      1  0.4378460000000  0.5253740000000  0.4299140000000 1.0
C      1  0.5097100000000  0.5994860000000  0.4819220000000 1.0
C      1  0.4982640000000  0.3977540000000  0.4869050000000 1.0
C      1  0.5183990000000  0.5964480000000  0.5172580000000 1.0
C      1  0.4794860000000  0.4074510000000  0.5107220000000 1.0
C      1  0.5219540000000  0.5343570000000  0.6013700000000 1.0
C      1  0.4827420000000  0.4663030000000  0.6052420000000 1.0
C      1  0.5197350000000  0.5328580000000  0.3945970000000 1.0
C      1  0.4838890000000  0.4628220000000  0.3906760000000 1.0
C      1  0.4364530000000  0.4221090000000  0.4849130000000 1.0
C      1  0.5459150000000  0.5880160000000  0.4828670000000 1.0
C      1  0.4493980000000  0.4175670000000  0.5113600000000 1.0
C      1  0.5473800000000  0.5883290000000  0.5126330000000 1.0
C      1  0.4907840000000  0.5524530000000  0.4897440000000 1.0
C      1  0.5085600000000  0.4461720000000  0.4861890000000 1.0
C      1  0.4823380000000  0.5670270000000  0.5114550000000 1.0
C      1  0.5144930000000  0.4373950000000  0.5113550000000 1.0
C      1  0.4113410000000  0.5530700000000  0.5775260000000 1.0
C      1  0.5907670000000  0.4443280000000  0.5764990000000 1.0
C      1  0.4154390000000  0.5694730000000  0.4305360000000 1.0
C      1  0.5857340000000  0.4315020000000  0.4305630000000 1.0
C      1  0.4647530000000  0.5490630000000  0.5247860000000 1.0
C      1  0.5326660000000  0.4540860000000  0.5248380000000 1.0
C      1  0.4691170000000  0.5438950000000  0.4740240000000 1.0
C      1  0.5308120000000  0.4551240000000  0.4715710000000 1.0
C      1  0.4714860000000  0.4330100000000  0.5764780000000 1.0
C      1  0.5268810000000  0.5597260000000  0.5625480000000 1.0
C      1  0.4778930000000  0.4457720000000  0.4314670000000 1.0
C      1  0.5217740000000  0.5492830000000  0.4370130000000 1.0
C      1  0.4277140000000  0.5872460000000  0.4886690000000 1.0
C      1  0.5736920000000  0.4155720000000  0.4871440000000 1.0
C      1  0.4227030000000  0.5838100000000  0.5212580000000 1.0
C      1  0.5780250000000  0.4182780000000  0.5191220000000 1.0
C      1  0.5682430000000  0.5465470000000  0.5771170000000 1.0
C      1  0.4324710000000  0.4599730000000  0.5813580000000 1.0
C      1  0.5647060000000  0.5444190000000  0.4202870000000 1.0
C      1  0.4356180000000  0.4574430000000  0.4153140000000 1.0
C      1  0.5667720000000  0.5749940000000  0.5319710000000 1.0
C      1  0.4338450000000  0.4305730000000  0.5350250000000 1.0
C      1  0.5599180000000  0.5745150000000  0.4623790000000 1.0
C      1  0.4283560000000  0.4352250000000  0.4622520000000 1.0
C      1  0.5821760000000  0.4483170000000  0.5225110000000 1.0
C      1  0.4164080000000  0.5540090000000  0.5229530000000 1.0
C      1  0.5812330000000  0.4442230000000  0.4775980000000 1.0
C      1  0.4183040000000  0.5591860000000  0.4781810000000 1.0
C      1  0.5412240000000  0.4624320000000  0.5718500000000 1.0
C      1  0.4607670000000  0.5357230000000  0.5712730000000 1.0
C      1  0.5403400000000  0.4533270000000  0.4223760000000 1.0
C      1  0.4596780000000  0.5429570000000  0.4251660000000 1.0
C      1  0.6053150000000  0.4879650000000  0.4721900000000 1.0
C      1  0.3912240000000  0.5176540000000  0.4714350000000 1.0
C      1  0.6168610000000  0.4868280000000  0.5285310000000 1.0
C      1  0.3826190000000  0.5159000000000  0.5272810000000 1.0
C      1  0.5011630000000  0.5127250000000  0.3839200000000 1.0
C      1  0.5031610000000  0.4834390000000  0.3824540000000 1.0
C      1  0.5029680000000  0.5151630000000  0.6128960000000 1.0
C      1  0.5031510000000  0.4859090000000  0.6133790000000 1.0
C      1  0.4919560000000  0.4388730000000  0.5964040000000 1.0
C      1  0.5112590000000  0.5582440000000  0.5879760000000 1.0
C      1  0.4925780000000  0.4394150000000  0.4072820000000 1.0
C      1  0.5092230000000  0.5551700000000  0.4110330000000 1.0
C      1  0.6087240000000  0.5151160000000  0.5282180000000 1.0
C      1  0.3915500000000  0.4880470000000  0.5260460000000 1.0
C      1  0.5948680000000  0.5133940000000  0.4800810000000 1.0
C      1  0.4054360000000  0.4930750000000  0.4758730000000 1.0
C      1  0.5546390000000  0.5016060000000  0.5460140000000 1.0
C      1  0.4453270000000  0.4960040000000  0.5434870000000 1.0
C      1  0.5485110000000  0.4954180000000  0.4413760000000 1.0
C      1  0.4431480000000  0.5009940000000  0.4446290000000 1.0
C      1  0.4868580000000  0.5742520000000  0.5548810000000 1.0
C      1  0.5097070000000  0.4290530000000  0.5553040000000 1.0
C      1  0.4888870000000  0.5762110000000  0.4448490000000 1.0
C      1  0.5125380000000  0.4201210000000  0.4440000000000 1.0
C      1  0.4428550000000  0.5441170000000  0.4842100000000 1.0
C      1  0.5558440000000  0.4575470000000  0.4836470000000 1.0
C      1  0.4411110000000  0.5429700000000  0.5127890000000 1.0
C      1  0.5568550000000  0.4584480000000  0.5126190000000 1.0
C      1  0.5133020000000  0.4182820000000  0.4142720000000 1.0
C      1  0.4888040000000  0.5763300000000  0.4154350000000 1.0
C      1  0.5160010000000  0.4261950000000  0.5847700000000 1.0
C      1  0.4860480000000  0.5726670000000  0.5841500000000 1.0
C      1  0.4497430000000  0.5955230000000  0.4651530000000 1.0
C      1  0.5528660000000  0.4052320000000  0.4645010000000 1.0
C      1  0.4301890000000  0.5894610000000  0.5496010000000 1.0
C      1  0.5714480000000  0.4100980000000  0.5466830000000 1.0
C      1  0.6033700000000  0.5386990000000  0.5439190000000 1.0
C      1  0.3980520000000  0.4672480000000  0.5449300000000 1.0
C      1  0.5879090000000  0.5341620000000  0.4623570000000 1.0
C      1  0.4217170000000  0.4834410000000  0.4539460000000 1.0
C      1  0.5883820000000  0.5148450000000  0.5079410000000 1.0
C      1  0.4104250000000  0.4877130000000  0.5041330000000 1.0
C      1  0.4968730000000  0.4940320000000  0.5031590000000 1.0
END
