TITL C-3623282-6910-1416 2503.57763407945 125000 -776.286600940086 0 0 130 (C1) n - 1
REM
REM in /home/nfs/bkarasulu/CARBON/AIRSS/Generating-Clusters/LCBOP/Higher-Symm/SD-CG/FIRE-CG
REM
REM
REM
REM
REM
REM ./C.cell (b20cbc046b6831c77cfcea5457e17084)
REM AIRSS Version 0.9.1 bugfix July 2018 build 013d7b7c2542+ Fri, 06 Jul 2018 19:26:36 +0100
REM compiler GCC version 9.2.1 20190827 (Red Hat 9.2.1-1)
REM options -cpp -mtune=generic -march=x86-64 -g -O0 -fpre-include=/usr/include/finclude/math-vector-fortran.h
REM seed 1962045908 650027286 -739186302 -905718903 1930016754 -774512361 1877875594 -1660943717 -1805774407 -1014585602 -189688083 -1297279113 1893292368 -87378441 108796827 1308489350 1406752902 771138768 -396765461 1942405592 -1507119886 -873261964 252761227 71920818 1016132077 -663194431 -712782681 -1470728208 184745350 -1684979475 -1765271960 -1647682782 -258465291
REM
CELL 1.54180   50.00000   50.00000   50.00000   90.00000   90.00000   90.00000
LATT -1
SFAC C  
C      1  0.5841420000000  0.4648090000000  0.4541700000000 1.0
C      1  0.4238400000000  0.4485050000000  0.4519670000000 1.0
C      1  0.4933570000000  0.5904220000000  0.4538930000000 1.0
C      1  0.4240670000000  0.5481480000000  0.5761840000000 1.0
C      1  0.5722970000000  0.5451770000000  0.5681200000000 1.0
C      1  0.4998860000000  0.4149440000000  0.5632200000000 1.0
C      1  0.4976360000000  0.5735400000000  0.5256800000000 1.0
C      1  0.5790100000000  0.4683340000000  0.5268150000000 1.0
C      1  0.4443070000000  0.4430020000000  0.5233150000000 1.0
C      1  0.4800360000000  0.5389870000000  0.4065450000000 1.0
C      1  0.5453130000000  0.5092640000000  0.4211270000000 1.0
C      1  0.4813530000000  0.4567530000000  0.4134770000000 1.0
C      1  0.4959950000000  0.5938470000000  0.5040860000000 1.0
C      1  0.5860350000000  0.4567280000000  0.5022740000000 1.0
C      1  0.4252780000000  0.4453160000000  0.5023400000000 1.0
C      1  0.5211780000000  0.4314910000000  0.5733920000000 1.0
C      1  0.4303220000000  0.5190080000000  0.5822740000000 1.0
C      1  0.5458200000000  0.5545110000000  0.5749080000000 1.0
C      1  0.4740790000000  0.4950300000000  0.5711970000000 1.0
C      1  0.5084720000000  0.5261590000000  0.5673850000000 1.0
C      1  0.5173610000000  0.4783900000000  0.5690700000000 1.0
C      1  0.5766950000000  0.5231660000000  0.5066590000000 1.0
C      1  0.4808700000000  0.4187250000000  0.5031340000000 1.0
C      1  0.4443300000000  0.5590730000000  0.5067370000000 1.0
C      1  0.4367800000000  0.5381300000000  0.4238320000000 1.0
C      1  0.5809630000000  0.5354210000000  0.4378190000000 1.0
C      1  0.4849920000000  0.4239710000000  0.4499200000000 1.0
C      1  0.4716980000000  0.5679580000000  0.5786550000000 1.0
C      1  0.5664870000000  0.4957770000000  0.5770440000000 1.0
C      1  0.4618060000000  0.4454960000000  0.5764100000000 1.0
C      1  0.4365750000000  0.4649110000000  0.4059340000000 1.0
C      1  0.5053810000000  0.5770630000000  0.4092930000000 1.0
C      1  0.5729530000000  0.4623190000000  0.4086250000000 1.0
C      1  0.4442340000000  0.5685600000000  0.5637180000000 1.0
C      1  0.5792230000000  0.5176490000000  0.5599370000000 1.0
C      1  0.4732590000000  0.4248370000000  0.5561270000000 1.0
C      1  0.5008540000000  0.4636970000000  0.4601390000000 1.0
C      1  0.4583650000000  0.5218480000000  0.4641840000000 1.0
C      1  0.5202670000000  0.5122950000000  0.4652300000000 1.0
C      1  0.5252760000000  0.4574370000000  0.4009710000000 1.0
C      1  0.4489180000000  0.5107770000000  0.4187430000000 1.0
C      1  0.5282000000000  0.5323660000000  0.4159880000000 1.0
C      1  0.5355220000000  0.3982790000000  0.4999600000000 1.0
C      1  0.4083500000000  0.5158440000000  0.5013630000000 1.0
C      1  0.5663060000000  0.5776220000000  0.5059630000000 1.0
C      1  0.4355990000000  0.4374690000000  0.4766320000000 1.0
C      1  0.4803490000000  0.5890170000000  0.4807490000000 1.0
C      1  0.5856940000000  0.4762490000000  0.4808300000000 1.0
C      1  0.5100520000000  0.4132260000000  0.5053010000000 1.0
C      1  0.4360620000000  0.5288000000000  0.5061490000000 1.0
C      1  0.5627750000000  0.5485380000000  0.5070200000000 1.0
C      1  0.5217570000000  0.6074790000000  0.5037020000000 1.0
C      1  0.5809370000000  0.4282620000000  0.5005580000000 1.0
C      1  0.4058530000000  0.4657840000000  0.5072310000000 1.0
C      1  0.4713900000000  0.5431380000000  0.5948540000000 1.0
C      1  0.5472690000000  0.5091660000000  0.5948160000000 1.0
C      1  0.4833690000000  0.4526140000000  0.5954360000000 1.0
C      1  0.4878640000000  0.4940400000000  0.5201110000000 1.0
C      1  0.4960520000000  0.5229930000000  0.5201090000000 1.0
C      1  0.5135110000000  0.4802210000000  0.5204590000000 1.0
C      1  0.4905110000000  0.5365300000000  0.5445190000000 1.0
C      1  0.5300890000000  0.4812260000000  0.5432810000000 1.0
C      1  0.4703930000000  0.4850030000000  0.5438540000000 1.0
C      1  0.4203270000000  0.4993830000000  0.5423100000000 1.0
C      1  0.5275100000000  0.5717650000000  0.5333290000000 1.0
C      1  0.5461800000000  0.4290810000000  0.5332700000000 1.0
C      1  0.5358230000000  0.5470410000000  0.5173960000000 1.0
C      1  0.5221650000000  0.4361970000000  0.5179570000000 1.0
C      1  0.4397310000000  0.5209800000000  0.5348160000000 1.0
C      1  0.4108420000000  0.5280380000000  0.4355980000000 1.0
C      1  0.5677030000000  0.5587330000000  0.4440020000000 1.0
C      1  0.5160910000000  0.4216970000000  0.4444050000000 1.0
C      1  0.5051270000000  0.4711320000000  0.4237660000000 1.0
C      1  0.4664420000000  0.5029430000000  0.4422540000000 1.0
C      1  0.4961260000000  0.5032630000000  0.4373760000000 1.0
C      1  0.4604970000000  0.5677960000000  0.4837610000000 1.0
C      1  0.5711450000000  0.5024120000000  0.4865400000000 1.0
C      1  0.4689460000000  0.4341860000000  0.4777800000000 1.0
C      1  0.5268840000000  0.5729250000000  0.5632370000000 1.0
C      1  0.5472930000000  0.4372260000000  0.5612190000000 1.0
C      1  0.4236500000000  0.4918840000000  0.5703760000000 1.0
C      1  0.4751000000000  0.4655850000000  0.4750790000000 1.0
C      1  0.4684600000000  0.5476930000000  0.4647950000000 1.0
C      1  0.5454560000000  0.5011620000000  0.4730940000000 1.0
C      1  0.4787800000000  0.4557250000000  0.6222050000000 1.0
C      1  0.4785520000000  0.5413060000000  0.6210700000000 1.0
C      1  0.5447690000000  0.5024430000000  0.6212140000000 1.0
C      1  0.4605650000000  0.5577690000000  0.4190840000000 1.0
C      1  0.5738890000000  0.5095670000000  0.4274330000000 1.0
C      1  0.4683470000000  0.4356920000000  0.4290910000000 1.0
C      1  0.4391660000000  0.4438540000000  0.4276010000000 1.0
C      1  0.4809400000000  0.5801980000000  0.4273240000000 1.0
C      1  0.5832950000000  0.4809030000000  0.4291910000000 1.0
C      1  0.5002120000000  0.5276080000000  0.4239830000000 1.0
C      1  0.5352420000000  0.4847150000000  0.4332450000000 1.0
C      1  0.4628460000000  0.4650790000000  0.3936150000000 1.0
C      1  0.4602840000000  0.5201250000000  0.5784240000000 1.0
C      1  0.5321530000000  0.5309860000000  0.5827880000000 1.0
C      1  0.5096900000000  0.4551500000000  0.5836800000000 1.0
C      1  0.5143860000000  0.5355660000000  0.5033930000000 1.0
C      1  0.5205010000000  0.4597380000000  0.5030440000000 1.0
C      1  0.4710450000000  0.4881640000000  0.4960930000000 1.0
C      1  0.5234920000000  0.4613870000000  0.4749370000000 1.0
C      1  0.4536060000000  0.5106470000000  0.4893600000000 1.0
C      1  0.5120120000000  0.5356580000000  0.4756220000000 1.0
C      1  0.4282070000000  0.4909210000000  0.4132060000000 1.0
C      1  0.5294890000000  0.5616290000000  0.4156160000000 1.0
C      1  0.5490400000000  0.4457370000000  0.4105610000000 1.0
C      1  0.5235270000000  0.5887780000000  0.4534000000000 1.0
C      1  0.5686860000000  0.4389590000000  0.4519640000000 1.0
C      1  0.4068090000000  0.4729120000000  0.4507520000000 1.0
C      1  0.5427320000000  0.4756710000000  0.4599780000000 1.0
C      1  0.4581710000000  0.4772090000000  0.4534110000000 1.0
C      1  0.4952070000000  0.5474300000000  0.4571010000000 1.0
C      1  0.4507350000000  0.4669650000000  0.5358880000000 1.0
C      1  0.4618290000000  0.5316840000000  0.5497650000000 1.0
C      1  0.5570340000000  0.4805790000000  0.5358550000000 1.0
C      1  0.4082260000000  0.4972170000000  0.4344610000000 1.0
C      1  0.5430390000000  0.5724720000000  0.4388310000000 1.0
C      1  0.5448510000000  0.4309170000000  0.4361860000000 1.0
C      1  0.4052280000000  0.4919330000000  0.5183000000000 1.0
C      1  0.5433980000000  0.5929250000000  0.5165610000000 1.0
C      1  0.5598160000000  0.4128110000000  0.5124110000000 1.0
C      1  0.4649680000000  0.4238600000000  0.5278540000000 1.0
C      1  0.4426520000000  0.5715520000000  0.5338800000000 1.0
C      1  0.5872930000000  0.5161050000000  0.5324850000000 1.0
C      1  0.4373210000000  0.4650580000000  0.5772560000000 1.0
C      1  0.4992410000000  0.5780140000000  0.5740340000000 1.0
C      1  0.5630350000000  0.4613490000000  0.5742030000000 1.0
C      1  0.5011220000000  0.4997900000000  0.5752720000000 1.0
END
