TITL C-3623283-6828-1869 2.0046329794413e-07 125000 -352.523267429351 0 0 59 (C1) n - 1
REM
REM in /home/nfs/bkarasulu/CARBON/AIRSS/Generating-Clusters/LCBOP/Higher-Symm/SD-CG/FIRE-CG
REM
REM
REM
REM
REM
REM ./C.cell (b20cbc046b6831c77cfcea5457e17084)
REM AIRSS Version 0.9.1 bugfix July 2018 build 013d7b7c2542+ Fri, 06 Jul 2018 19:26:36 +0100
REM compiler GCC version 9.2.1 20190827 (Red Hat 9.2.1-1)
REM options -cpp -mtune=generic -march=x86-64 -g -O0 -fpre-include=/usr/include/finclude/math-vector-fortran.h
REM seed 115377991 1556142690 -1986108845 -2047307472 469328273 74362946 -1772615324 -1802495591 -1699856661 -1894184655 444923607 -1106287642 1547600011 865445571 1562889912 -711938327 -1214131464 -179357513 -1031633464 -970228125 -1270768619 1285182723 1098436334 1796590409 -148752677 167478271 -1353956470 -418249894 -894267327 -322029140 1686594573 1950886761 114650906
REM
CELL 1.54180   50.00000   50.00000   50.00000   90.00000   90.00000   90.00000
LATT -1
SFAC C  
C      1  0.5074540000000  0.5541830000000  0.4471250000000 1.0
C      1  0.4934170000000  0.5501830000000  0.5489860000000 1.0
C      1  0.5309120000000  0.5521230000000  0.4345290000000 1.0
C      1  0.4705510000000  0.5527820000000  0.5627550000000 1.0
C      1  0.5122310000000  0.5793470000000  0.5035270000000 1.0
C      1  0.4849670000000  0.5806010000000  0.5006010000000 1.0
C      1  0.5185010000000  0.4924830000000  0.5081060000000 1.0
C      1  0.4797410000000  0.4977680000000  0.4787140000000 1.0
C      1  0.4870770000000  0.4313470000000  0.4617940000000 1.0
C      1  0.5131950000000  0.4301320000000  0.5437690000000 1.0
C      1  0.5384890000000  0.4328310000000  0.4723610000000 1.0
C      1  0.4632910000000  0.4314550000000  0.5293710000000 1.0
C      1  0.5151410000000  0.5208570000000  0.5142530000000 1.0
C      1  0.4815850000000  0.5260740000000  0.4792870000000 1.0
C      1  0.5581300000000  0.5592230000000  0.5236890000000 1.0
C      1  0.4365870000000  0.5617700000000  0.4829210000000 1.0
C      1  0.4522430000000  0.4896270000000  0.4742870000000 1.0
C      1  0.5449690000000  0.4866870000000  0.5204460000000 1.0
C      1  0.4677680000000  0.5364090000000  0.5025830000000 1.0
C      1  0.5318830000000  0.5359050000000  0.4953970000000 1.0
C      1  0.5150510000000  0.4801990000000  0.4127720000000 1.0
C      1  0.4852930000000  0.4837920000000  0.5921320000000 1.0
C      1  0.4499280000000  0.4645430000000  0.4617820000000 1.0
C      1  0.5464560000000  0.4653450000000  0.5385870000000 1.0
C      1  0.5620610000000  0.5019820000000  0.4659850000000 1.0
C      1  0.4413520000000  0.5012940000000  0.5340800000000 1.0
C      1  0.5273500000000  0.5199580000000  0.5613240000000 1.0
C      1  0.4644770000000  0.5381740000000  0.4356180000000 1.0
C      1  0.4615550000000  0.5642730000000  0.4982070000000 1.0
C      1  0.5356420000000  0.5629110000000  0.5052980000000 1.0
C      1  0.5125850000000  0.4265000000000  0.4688300000000 1.0
C      1  0.4885590000000  0.4246570000000  0.5348910000000 1.0
C      1  0.4679150000000  0.4472430000000  0.4481280000000 1.0
C      1  0.5310050000000  0.4487330000000  0.5554150000000 1.0
C      1  0.4257080000000  0.5369380000000  0.4754580000000 1.0
C      1  0.5692990000000  0.5342110000000  0.5293210000000 1.0
C      1  0.5635370000000  0.5092470000000  0.5152190000000 1.0
C      1  0.4342500000000  0.5104990000000  0.4851590000000 1.0
C      1  0.5174260000000  0.4774370000000  0.4605160000000 1.0
C      1  0.4864930000000  0.4783370000000  0.5457230000000 1.0
C      1  0.5694110000000  0.4748040000000  0.4709660000000 1.0
C      1  0.4341310000000  0.4742320000000  0.5297110000000 1.0
C      1  0.5260510000000  0.4564200000000  0.5821880000000 1.0
C      1  0.4737690000000  0.4531510000000  0.4210920000000 1.0
C      1  0.5078130000000  0.4696490000000  0.5968980000000 1.0
C      1  0.4927330000000  0.4662730000000  0.4073650000000 1.0
C      1  0.4523990000000  0.5339170000000  0.5690310000000 1.0
C      1  0.5480930000000  0.5320870000000  0.4298500000000 1.0
C      1  0.4843210000000  0.5402470000000  0.4545580000000 1.0
C      1  0.5117470000000  0.5303530000000  0.5411400000000 1.0
C      1  0.5593180000000  0.4498630000000  0.4729600000000 1.0
C      1  0.4432790000000  0.4491300000000  0.5277680000000 1.0
C      1  0.4736800000000  0.4898300000000  0.5672280000000 1.0
C      1  0.5281000000000  0.4876510000000  0.4363610000000 1.0
C      1  0.5552550000000  0.5190280000000  0.4878410000000 1.0
C      1  0.4467930000000  0.5178100000000  0.5116980000000 1.0
C      1  0.4525090000000  0.5073920000000  0.5598120000000 1.0
C      1  0.5490880000000  0.5063710000000  0.4408100000000 1.0
C      1  0.5042800000000  0.4845230000000  0.4842080000000 1.0
END
