TITL C-3623289-7120-1091 0.0470420113525206 125000 -347.585598331669 0 0 59 (C1) n - 1
REM
REM in /home/nfs/bkarasulu/CARBON/AIRSS/Generating-Clusters/LCBOP/Higher-Symm/SD-CG/FIRE-CG
REM
REM
REM
REM
REM
REM ./C.cell (b20cbc046b6831c77cfcea5457e17084)
REM AIRSS Version 0.9.1 bugfix July 2018 build 013d7b7c2542+ Fri, 06 Jul 2018 19:26:36 +0100
REM compiler GCC version 9.2.1 20190827 (Red Hat 9.2.1-1)
REM options -cpp -mtune=generic -march=x86-64 -g -O0 -fpre-include=/usr/include/finclude/math-vector-fortran.h
REM seed -1137851126 983059850 247346886 800314776 1327696873 -1447949668 1726563707 -213994061 -1965897941 365985704 137814616 -1040767097 -632578498 -2034744052 1665623180 -1782676044 -135419321 -1917543993 -1502510682 -234894720 -409277414 -780642245 -915707946 477601391 -648290113 35196576 850536912 -146434327 1533111870 2143663112 -1010190036 -672284110 35742408
REM
CELL 1.54180   50.00000   50.00000   50.00000   90.00000   90.00000   90.00000
LATT -1
SFAC C  
C      1  0.5483210000000  0.5176020000000  0.4890160000000 1.0
C      1  0.4778930000000  0.5218360000000  0.4967320000000 1.0
C      1  0.4756100000000  0.4646150000000  0.4977610000000 1.0
C      1  0.5072490000000  0.4640780000000  0.5356520000000 1.0
C      1  0.5342660000000  0.5263080000000  0.5486420000000 1.0
C      1  0.4520410000000  0.5162300000000  0.5471070000000 1.0
C      1  0.5545130000000  0.5620210000000  0.5305260000000 1.0
C      1  0.4267190000000  0.5207400000000  0.5001860000000 1.0
C      1  0.5213180000000  0.4300370000000  0.5032490000000 1.0
C      1  0.4661950000000  0.4290130000000  0.5208550000000 1.0
C      1  0.5751530000000  0.5121100000000  0.5249590000000 1.0
C      1  0.4552090000000  0.5542060000000  0.5235000000000 1.0
C      1  0.5485650000000  0.4422130000000  0.5058390000000 1.0
C      1  0.5294550000000  0.5731730000000  0.5289590000000 1.0
C      1  0.4368640000000  0.4933010000000  0.4923010000000 1.0
C      1  0.4410370000000  0.4427590000000  0.4789700000000 1.0
C      1  0.5782680000000  0.4823470000000  0.4850910000000 1.0
C      1  0.4913750000000  0.5686810000000  0.4962090000000 1.0
C      1  0.5720330000000  0.4787090000000  0.4574730000000 1.0
C      1  0.4902490000000  0.5730120000000  0.4678310000000 1.0
C      1  0.4469870000000  0.4366980000000  0.4517950000000 1.0
C      1  0.4631690000000  0.5021460000000  0.4807290000000 1.0
C      1  0.4994500000000  0.4736950000000  0.4868260000000 1.0
C      1  0.5413010000000  0.5351880000000  0.4687540000000 1.0
C      1  0.5658640000000  0.4656390000000  0.5071860000000 1.0
C      1  0.5013550000000  0.5699110000000  0.5248460000000 1.0
C      1  0.4306360000000  0.4638410000000  0.4964650000000 1.0
C      1  0.4703540000000  0.5491390000000  0.4994490000000 1.0
C      1  0.4660050000000  0.4366010000000  0.4931530000000 1.0
C      1  0.5771230000000  0.5115550000000  0.4951110000000 1.0
C      1  0.4635470000000  0.4729430000000  0.5235860000000 1.0
C      1  0.5337670000000  0.4997860000000  0.5103910000000 1.0
C      1  0.4899930000000  0.5123070000000  0.5204450000000 1.0
C      1  0.5582620000000  0.4875930000000  0.5264570000000 1.0
C      1  0.4785890000000  0.5567420000000  0.5436990000000 1.0
C      1  0.4474810000000  0.4506720000000  0.5298150000000 1.0
C      1  0.4993190000000  0.4701380000000  0.4587280000000 1.0
C      1  0.5099820000000  0.5005960000000  0.4238530000000 1.0
C      1  0.4681400000000  0.5086290000000  0.4530120000000 1.0
C      1  0.4727500000000  0.4329860000000  0.4429600000000 1.0
C      1  0.5564210000000  0.4872430000000  0.4370810000000 1.0
C      1  0.4730900000000  0.5588640000000  0.4513360000000 1.0
C      1  0.5170470000000  0.5174080000000  0.5271540000000 1.0
C      1  0.4686160000000  0.4975870000000  0.5334030000000 1.0
C      1  0.5163140000000  0.4765860000000  0.5090830000000 1.0
C      1  0.5116990000000  0.4265150000000  0.4755000000000 1.0
C      1  0.5404770000000  0.5319380000000  0.4421030000000 1.0
C      1  0.4320990000000  0.5366610000000  0.4733890000000 1.0
C      1  0.5370250000000  0.5067830000000  0.4296260000000 1.0
C      1  0.4553060000000  0.5358950000000  0.4528140000000 1.0
C      1  0.4977380000000  0.4413600000000  0.4542910000000 1.0
C      1  0.4999970000000  0.4820520000000  0.5591680000000 1.0
C      1  0.5216230000000  0.5235170000000  0.5734440000000 1.0
C      1  0.4741360000000  0.5310710000000  0.5617020000000 1.0
C      1  0.4366540000000  0.5319410000000  0.5270800000000 1.0
C      1  0.5004360000000  0.4355480000000  0.5265420000000 1.0
C      1  0.5603490000000  0.5347300000000  0.5381010000000 1.0
C      1  0.4957780000000  0.5108570000000  0.5705770000000 1.0
C      1  0.4902140000000  0.4924820000000  0.4423270000000 1.0
END
