TITL C-3623283-6828-881 0.000406956804246171 125000 -360.218807043233 0 0 60 (C1) n - 1
REM
REM in /home/nfs/bkarasulu/CARBON/AIRSS/Generating-Clusters/LCBOP/Higher-Symm/SD-CG/FIRE-CG
REM
REM
REM
REM
REM
REM ./C.cell (b20cbc046b6831c77cfcea5457e17084)
REM AIRSS Version 0.9.1 bugfix July 2018 build 013d7b7c2542+ Fri, 06 Jul 2018 19:26:36 +0100
REM compiler GCC version 9.2.1 20190827 (Red Hat 9.2.1-1)
REM options -cpp -mtune=generic -march=x86-64 -g -O0 -fpre-include=/usr/include/finclude/math-vector-fortran.h
REM seed -698895912 640410946 296289288 1210111121 1811311940 1542642501 -1425337077 785409530 217858172 1519320637 -303515219 1383409965 1586777681 1081950184 26878618 1997013989 -2121426919 -609265296 -492178426 -310767830 -1698932604 -1706317495 -769644173 680958804 -128837307 -200327557 2098251364 -426462839 1836558323 -187120878 -1187333393 -550994240 -430206787
REM
CELL 1.54180   50.00000   50.00000   50.00000   90.00000   90.00000   90.00000
LATT -1
SFAC C  
C      1  0.4625770000000  0.4427440000000  0.5216270000000 1.0
C      1  0.4377210000000  0.5216640000000  0.4560560000000 1.0
C      1  0.5214490000000  0.4576360000000  0.4317320000000 1.0
C      1  0.5357070000000  0.5669470000000  0.5205340000000 1.0
C      1  0.4600060000000  0.5584270000000  0.4782530000000 1.0
C      1  0.5353830000000  0.4324940000000  0.4793980000000 1.0
C      1  0.5613760000000  0.4769410000000  0.4572200000000 1.0
C      1  0.4385820000000  0.4777120000000  0.5440310000000 1.0
C      1  0.5631160000000  0.5204480000000  0.5415580000000 1.0
C      1  0.4758020000000  0.5400280000000  0.4331000000000 1.0
C      1  0.5216790000000  0.5454630000000  0.5651280000000 1.0
C      1  0.4787690000000  0.4599550000000  0.5653310000000 1.0
C      1  0.4415240000000  0.4624660000000  0.5212080000000 1.0
C      1  0.5179200000000  0.4350830000000  0.4593100000000 1.0
C      1  0.4555020000000  0.5211120000000  0.4339050000000 1.0
C      1  0.5647870000000  0.5380090000000  0.5209700000000 1.0
C      1  0.5633290000000  0.4614770000000  0.4794040000000 1.0
C      1  0.4400350000000  0.5374280000000  0.4787260000000 1.0
C      1  0.4760250000000  0.5608370000000  0.4554720000000 1.0
C      1  0.4803850000000  0.4409460000000  0.5438330000000 1.0
C      1  0.5226040000000  0.5632250000000  0.5436700000000 1.0
C      1  0.5411880000000  0.4762380000000  0.4344450000000 1.0
C      1  0.5412710000000  0.5271370000000  0.5695400000000 1.0
C      1  0.4574620000000  0.4783820000000  0.5651540000000 1.0
C      1  0.4930840000000  0.4590070000000  0.4277110000000 1.0
C      1  0.4688710000000  0.4323430000000  0.4960590000000 1.0
C      1  0.4407450000000  0.4823230000000  0.4493610000000 1.0
C      1  0.5044310000000  0.5416850000000  0.4284980000000 1.0
C      1  0.4932420000000  0.5432780000000  0.5699620000000 1.0
C      1  0.5018140000000  0.4650260000000  0.5804520000000 1.0
C      1  0.5417950000000  0.5642170000000  0.4937310000000 1.0
C      1  0.4668470000000  0.5684330000000  0.5037630000000 1.0
C      1  0.5416000000000  0.4341200000000  0.5063600000000 1.0
C      1  0.5665280000000  0.5091970000000  0.4543880000000 1.0
C      1  0.4415530000000  0.5170390000000  0.5503370000000 1.0
C      1  0.5622810000000  0.4920870000000  0.5460470000000 1.0
C      1  0.4560100000000  0.4924790000000  0.4281240000000 1.0
C      1  0.4319710000000  0.4685850000000  0.4953900000000 1.0
C      1  0.4858380000000  0.4423340000000  0.4515150000000 1.0
C      1  0.5426440000000  0.5049210000000  0.4295300000000 1.0
C      1  0.5443990000000  0.4930700000000  0.5697020000000 1.0
C      1  0.4583270000000  0.5072040000000  0.5707240000000 1.0
C      1  0.5625330000000  0.5439580000000  0.4940700000000 1.0
C      1  0.5611780000000  0.4559000000000  0.5065210000000 1.0
C      1  0.4308280000000  0.5307550000000  0.5045290000000 1.0
C      1  0.5081560000000  0.5664260000000  0.4528760000000 1.0
C      1  0.5038230000000  0.4258220000000  0.5408270000000 1.0
C      1  0.4823860000000  0.5587100000000  0.5493810000000 1.0
C      1  0.4636810000000  0.5559490000000  0.5290060000000 1.0
C      1  0.4757710000000  0.4771930000000  0.4162100000000 1.0
C      1  0.4656430000000  0.4447030000000  0.4706400000000 1.0
C      1  0.4444930000000  0.4645560000000  0.4702010000000 1.0
C      1  0.5251280000000  0.5247840000000  0.4224360000000 1.0
C      1  0.4783360000000  0.5230040000000  0.5817740000000 1.0
C      1  0.5258120000000  0.4765170000000  0.5812030000000 1.0
C      1  0.5273960000000  0.5715750000000  0.4713450000000 1.0
C      1  0.5268090000000  0.4242030000000  0.5274870000000 1.0
C      1  0.5707880000000  0.5291950000000  0.4722480000000 1.0
C      1  0.4435120000000  0.5351200000000  0.5295010000000 1.0
C      1  0.5675520000000  0.4714830000000  0.5284820000000 1.0
END
