TITL C-3623285-6872-1139 66174.8777393557 125000 -675.595157087798 0 0 108 (C1) n - 1
REM
REM in /home/nfs/bkarasulu/CARBON/AIRSS/Generating-Clusters/LCBOP/Higher-Symm/SD-CG/FIRE-CG
REM
REM
REM
REM
REM
REM ./C.cell (b20cbc046b6831c77cfcea5457e17084)
REM AIRSS Version 0.9.1 bugfix July 2018 build 013d7b7c2542+ Fri, 06 Jul 2018 19:26:36 +0100
REM compiler GCC version 9.2.1 20190827 (Red Hat 9.2.1-1)
REM options -cpp -mtune=generic -march=x86-64 -g -O0 -fpre-include=/usr/include/finclude/math-vector-fortran.h
REM seed -1941899230 1230327944 1333251284 558978288 -54036394 -386881660 -759704113 -1185626957 -760235330 610596629 1339948702 -362417823 127137677 -1077048614 142008980 -775305407 620695889 716284124 -1646896427 1006186505 -888428647 -1623603492 -1825862918 -167702852 -2037714221 -626076745 -2014332194 1280640444 2104000206 922549001 -2048572731 -1878865073 -560422587
REM
CELL 1.54180   50.00000   50.00000   50.00000   90.00000   90.00000   90.00000
LATT -1
SFAC C  
C      1  0.5562260000000  0.4451430000000  0.4465490000000 1.0
C      1  0.4455580000000  0.5552720000000  0.4469210000000 1.0
C      1  0.5561380000000  0.4453900000000  0.5538800000000 1.0
C      1  0.4462450000000  0.5552050000000  0.5525510000000 1.0
C      1  0.4429760000000  0.4438780000000  0.4447610000000 1.0
C      1  0.5576610000000  0.5604420000000  0.4372250000000 1.0
C      1  0.4428730000000  0.4439390000000  0.5551830000000 1.0
C      1  0.5587900000000  0.5578040000000  0.5624240000000 1.0
C      1  0.5807300000000  0.4670870000000  0.5150570000000 1.0
C      1  0.4188830000000  0.5356190000000  0.5142110000000 1.0
C      1  0.5804150000000  0.4673230000000  0.4859250000000 1.0
C      1  0.4186330000000  0.5355930000000  0.4854390000000 1.0
C      1  0.4156820000000  0.4617380000000  0.5143600000000 1.0
C      1  0.5655520000000  0.5409560000000  0.5144850000000 1.0
C      1  0.4156670000000  0.4616830000000  0.4855210000000 1.0
C      1  0.5652400000000  0.5414540000000  0.4831910000000 1.0
C      1  0.5601060000000  0.5351750000000  0.4226510000000 1.0
C      1  0.4397250000000  0.4667540000000  0.4272220000000 1.0
C      1  0.5606630000000  0.5345050000000  0.5799510000000 1.0
C      1  0.4396390000000  0.4668510000000  0.5726980000000 1.0
C      1  0.4407520000000  0.5318530000000  0.4301350000000 1.0
C      1  0.5593530000000  0.4690140000000  0.4300170000000 1.0
C      1  0.4412030000000  0.5319280000000  0.5694650000000 1.0
C      1  0.5588760000000  0.4695650000000  0.5699550000000 1.0
C      1  0.4860310000000  0.5449660000000  0.4227330000000 1.0
C      1  0.5140860000000  0.4547220000000  0.4244180000000 1.0
C      1  0.4865680000000  0.5447880000000  0.5769170000000 1.0
C      1  0.5138620000000  0.4546650000000  0.5757620000000 1.0
C      1  0.5140940000000  0.5468430000000  0.4202040000000 1.0
C      1  0.4857010000000  0.4542590000000  0.4240180000000 1.0
C      1  0.5146180000000  0.5464220000000  0.5795150000000 1.0
C      1  0.4855060000000  0.4541650000000  0.5760830000000 1.0
C      1  0.4266850000000  0.4422290000000  0.5319340000000 1.0
C      1  0.5733640000000  0.5596910000000  0.5375630000000 1.0
C      1  0.4267420000000  0.4421710000000  0.4679880000000 1.0
C      1  0.5718360000000  0.5628660000000  0.4622560000000 1.0
C      1  0.5721300000000  0.4444430000000  0.5304140000000 1.0
C      1  0.4305390000000  0.5571790000000  0.5290770000000 1.0
C      1  0.5717540000000  0.4446090000000  0.4704570000000 1.0
C      1  0.4298740000000  0.5572420000000  0.4704000000000 1.0
C      1  0.4748180000000  0.5118310000000  0.4728570000000 1.0
C      1  0.5248420000000  0.4848020000000  0.4729940000000 1.0
C      1  0.4754420000000  0.5118000000000  0.5269590000000 1.0
C      1  0.5252720000000  0.4845630000000  0.5271920000000 1.0
C      1  0.5262480000000  0.5111510000000  0.4711110000000 1.0
C      1  0.4719180000000  0.4853450000000  0.4730060000000 1.0
C      1  0.5271460000000  0.5108740000000  0.5285900000000 1.0
C      1  0.4723080000000  0.4853550000000  0.5270720000000 1.0
C      1  0.4653690000000  0.4731970000000  0.5852500000000 1.0
C      1  0.5338560000000  0.5272500000000  0.5896100000000 1.0
C      1  0.4654880000000  0.4731930000000  0.4147670000000 1.0
C      1  0.5339850000000  0.5274130000000  0.4117470000000 1.0
C      1  0.5335090000000  0.4747610000000  0.5839140000000 1.0
C      1  0.4657680000000  0.5256410000000  0.5843480000000 1.0
C      1  0.5339860000000  0.4746050000000  0.4162530000000 1.0
C      1  0.4654040000000  0.5256440000000  0.4153650000000 1.0
C      1  0.4746700000000  0.5602060000000  0.5550420000000 1.0
C      1  0.5279840000000  0.4379700000000  0.5557990000000 1.0
C      1  0.4739360000000  0.5604140000000  0.4445610000000 1.0
C      1  0.5280340000000  0.4379680000000  0.4444680000000 1.0
C      1  0.5297600000000  0.5634620000000  0.5606460000000 1.0
C      1  0.4713070000000  0.4376050000000  0.5561100000000 1.0
C      1  0.5285270000000  0.5650010000000  0.4386700000000 1.0
C      1  0.4714300000000  0.4376390000000  0.4439370000000 1.0
C      1  0.4212130000000  0.4863320000000  0.5656910000000 1.0
C      1  0.5788470000000  0.5135700000000  0.5752440000000 1.0
C      1  0.4211470000000  0.4861280000000  0.4341390000000 1.0
C      1  0.5770510000000  0.5154820000000  0.4325880000000 1.0
C      1  0.5765400000000  0.4897390000000  0.5601490000000 1.0
C      1  0.4227420000000  0.5133290000000  0.5591820000000 1.0
C      1  0.5767120000000  0.4887610000000  0.4402360000000 1.0
C      1  0.4224650000000  0.5131580000000  0.4405370000000 1.0
C      1  0.4789790000000  0.5848630000000  0.4864880000000 1.0
C      1  0.5250750000000  0.4111260000000  0.4864690000000 1.0
C      1  0.4797570000000  0.5848730000000  0.5134770000000 1.0
C      1  0.5251310000000  0.4110840000000  0.5137240000000 1.0
C      1  0.5297300000000  0.5845970000000  0.4862850000000 1.0
C      1  0.4730080000000  0.4115500000000  0.4864210000000 1.0
C      1  0.5304680000000  0.5842860000000  0.5134100000000 1.0
C      1  0.4730390000000  0.4115270000000  0.5136400000000 1.0
C      1  0.4093600000000  0.4859230000000  0.5270910000000 1.0
C      1  0.5823240000000  0.5163990000000  0.5205230000000 1.0
C      1  0.4092530000000  0.4858080000000  0.4727300000000 1.0
C      1  0.5811850000000  0.5179390000000  0.4728940000000 1.0
C      1  0.5827600000000  0.4907610000000  0.5317070000000 1.0
C      1  0.4137500000000  0.5130890000000  0.5308480000000 1.0
C      1  0.5825200000000  0.4905740000000  0.4693030000000 1.0
C      1  0.4135270000000  0.5129790000000  0.4688890000000 1.0
C      1  0.4821320000000  0.5359190000000  0.5140850000000 1.0
C      1  0.5223850000000  0.4600200000000  0.5142290000000 1.0
C      1  0.4816980000000  0.5359990000000  0.4855630000000 1.0
C      1  0.5222510000000  0.4601410000000  0.4858970000000 1.0
C      1  0.5353340000000  0.5366600000000  0.5223880000000 1.0
C      1  0.4752630000000  0.4604350000000  0.5143520000000 1.0
C      1  0.5345930000000  0.5371700000000  0.4761830000000 1.0
C      1  0.4751550000000  0.4604460000000  0.4857340000000 1.0
C      1  0.4838870000000  0.4345410000000  0.5293150000000 1.0
C      1  0.5202020000000  0.5627380000000  0.5318650000000 1.0
C      1  0.4838720000000  0.4345830000000  0.4707840000000 1.0
C      1  0.5192000000000  0.5633860000000  0.4675520000000 1.0
C      1  0.5146150000000  0.4341650000000  0.5293670000000 1.0
C      1  0.4897000000000  0.5614140000000  0.5292790000000 1.0
C      1  0.5145760000000  0.4342290000000  0.4708330000000 1.0
C      1  0.4888500000000  0.5616330000000  0.4703600000000 1.0
C      1  0.5292770000000  0.5003170000000  0.4060520000000 1.0
C      1  0.4699250000000  0.4995420000000  0.5936560000000 1.0
C      1  0.5286340000000  0.5001360000000  0.5948080000000 1.0
C      1  0.4698800000000  0.4995300000000  0.4062510000000 1.0
END
