TITL C-3623285-6872-124 -12.7283618467599 125000 -261.059376317483 0 0 43 (C1) n - 1
REM
REM in /home/nfs/bkarasulu/CARBON/AIRSS/Generating-Clusters/LCBOP/Higher-Symm/SD-CG/FIRE-CG
REM
REM
REM
REM
REM
REM ./C.cell (b20cbc046b6831c77cfcea5457e17084)
REM AIRSS Version 0.9.1 bugfix July 2018 build 013d7b7c2542+ Fri, 06 Jul 2018 19:26:36 +0100
REM compiler GCC version 9.2.1 20190827 (Red Hat 9.2.1-1)
REM options -cpp -mtune=generic -march=x86-64 -g -O0 -fpre-include=/usr/include/finclude/math-vector-fortran.h
REM seed 311776172 -1765560017 1511601547 90764992 595539130 1416623979 780081774 357164192 -2072694920 -229126813 -1980158242 -1192165161 360525254 10677806 303806538 413203625 1278910941 1374428065 167912136 976788717 -263035967 1055508371 -1197940387 -1225213771 1095298190 -2034871867 -831924626 -376577736 2112220670 1015249947 -1903485543 1621124064 -1870227144
REM
CELL 1.54180   50.00000   50.00000   50.00000   90.00000   90.00000   90.00000
LATT -1
SFAC C  
C      1  0.5048970000000  0.4297460000000  0.4680880000000 1.0
C      1  0.4557750000000  0.4627970000000  0.5254360000000 1.0
C      1  0.4592200000000  0.5266420000000  0.4571230000000 1.0
C      1  0.4800370000000  0.5408740000000  0.4449210000000 1.0
C      1  0.5271570000000  0.5433180000000  0.5404240000000 1.0
C      1  0.4645210000000  0.4384370000000  0.5371170000000 1.0
C      1  0.5464880000000  0.5449520000000  0.5178340000000 1.0
C      1  0.4531110000000  0.5318580000000  0.4858610000000 1.0
C      1  0.5523760000000  0.4774420000000  0.4858580000000 1.0
C      1  0.5339650000000  0.4907210000000  0.4690850000000 1.0
C      1  0.4684040000000  0.4872950000000  0.5361300000000 1.0
C      1  0.5361530000000  0.5245850000000  0.5602730000000 1.0
C      1  0.5022850000000  0.4120880000000  0.5151030000000 1.0
C      1  0.4484720000000  0.4851510000000  0.4822330000000 1.0
C      1  0.4821470000000  0.5295870000000  0.5589550000000 1.0
C      1  0.4845180000000  0.5500950000000  0.5162060000000 1.0
C      1  0.5152530000000  0.5473360000000  0.4789680000000 1.0
C      1  0.4599850000000  0.4407610000000  0.4798200000000 1.0
C      1  0.5589500000000  0.5323970000000  0.4711750000000 1.0
C      1  0.4432800000000  0.5322190000000  0.5330800000000 1.0
C      1  0.5790950000000  0.5056310000000  0.5181270000000 1.0
C      1  0.5177750000000  0.4844400000000  0.5402380000000 1.0
C      1  0.4857620000000  0.4756070000000  0.4574970000000 1.0
C      1  0.5264820000000  0.5270830000000  0.4373440000000 1.0
C      1  0.5075610000000  0.5434480000000  0.4510710000000 1.0
C      1  0.5708080000000  0.4842300000000  0.5041850000000 1.0
C      1  0.4602520000000  0.5134050000000  0.5477890000000 1.0
C      1  0.4831150000000  0.4471110000000  0.4637340000000 1.0
C      1  0.4836890000000  0.4201740000000  0.5326240000000 1.0
C      1  0.4556900000000  0.5470360000000  0.5110370000000 1.0
C      1  0.5421740000000  0.5476630000000  0.4889950000000 1.0
C      1  0.4490160000000  0.4608730000000  0.4966950000000 1.0
C      1  0.4601280000000  0.4908070000000  0.4554830000000 1.0
C      1  0.5446910000000  0.5134770000000  0.4545740000000 1.0
C      1  0.4979150000000  0.5466860000000  0.5414430000000 1.0
C      1  0.5328290000000  0.4978220000000  0.5580620000000 1.0
C      1  0.5708720000000  0.5307660000000  0.5233090000000 1.0
C      1  0.4953030000000  0.4899180000000  0.5245210000000 1.0
C      1  0.4987250000000  0.5342480000000  0.4971710000000 1.0
C      1  0.4612010000000  0.5058930000000  0.4961770000000 1.0
C      1  0.5055290000000  0.4894560000000  0.4739910000000 1.0
C      1  0.5114870000000  0.4157380000000  0.4901560000000 1.0
C      1  0.4929150000000  0.5043230000000  0.4979260000000 1.0
END
