TITL C-3623282-6910-118 91.8673915130871 125000 -963.393768966296 0 0 166 (C1) n - 1
REM
REM in /home/nfs/bkarasulu/CARBON/AIRSS/Generating-Clusters/LCBOP/Higher-Symm/SD-CG/FIRE-CG
REM
REM
REM
REM
REM
REM ./C.cell (b20cbc046b6831c77cfcea5457e17084)
REM AIRSS Version 0.9.1 bugfix July 2018 build 013d7b7c2542+ Fri, 06 Jul 2018 19:26:36 +0100
REM compiler GCC version 9.2.1 20190827 (Red Hat 9.2.1-1)
REM options -cpp -mtune=generic -march=x86-64 -g -O0 -fpre-include=/usr/include/finclude/math-vector-fortran.h
REM seed 1576031685 -67762288 1042584379 377331768 1101467683 159528752 412878361 -633505830 2077206145 -177712491 1008554629 122116512 -2037123917 1183871009 1414933803 -1822567999 -1800580754 1027957506 1291609970 292125248 504139303 328357010 -326487197 -98110144 374520505 1534345298 585192772 -204252292 -2033392753 1256618513 722442113 1930953800 -906130194
REM
CELL 1.54180   50.00000   50.00000   50.00000   90.00000   90.00000   90.00000
LATT -1
SFAC C  
C      1  0.4343340000000  0.4189380000000  0.5000610000000 1.0
C      1  0.5016510000000  0.4276960000000  0.4125420000000 1.0
C      1  0.4163540000000  0.5020930000000  0.4279980000000 1.0
C      1  0.5715050000000  0.5857340000000  0.5036040000000 1.0
C      1  0.5702450000000  0.4136350000000  0.4958140000000 1.0
C      1  0.4292570000000  0.5832210000000  0.4944300000000 1.0
C      1  0.4942110000000  0.5680620000000  0.4182180000000 1.0
C      1  0.4961190000000  0.4341140000000  0.5767520000000 1.0
C      1  0.5050000000000  0.5761660000000  0.5840910000000 1.0
C      1  0.5740600000000  0.4984240000000  0.4374650000000 1.0
C      1  0.5867380000000  0.5057770000000  0.5749420000000 1.0
C      1  0.4170260000000  0.4970310000000  0.5704730000000 1.0
C      1  0.5697460000000  0.5079060000000  0.4110520000000 1.0
C      1  0.4045600000000  0.5745560000000  0.5054900000000 1.0
C      1  0.5071150000000  0.4086300000000  0.5725310000000 1.0
C      1  0.4224980000000  0.4917760000000  0.4020770000000 1.0
C      1  0.4248090000000  0.5084770000000  0.5955350000000 1.0
C      1  0.5752760000000  0.4942230000000  0.5988460000000 1.0
C      1  0.5935400000000  0.4260480000000  0.5071530000000 1.0
C      1  0.5970300000000  0.5760520000000  0.4944450000000 1.0
C      1  0.4084480000000  0.4261150000000  0.4905570000000 1.0
C      1  0.4931730000000  0.5997170000000  0.5732860000000 1.0
C      1  0.4909350000000  0.4027550000000  0.4206310000000 1.0
C      1  0.5053240000000  0.5936860000000  0.4241250000000 1.0
C      1  0.4164920000000  0.5152500000000  0.5480510000000 1.0
C      1  0.5490200000000  0.4113160000000  0.5155320000000 1.0
C      1  0.5112190000000  0.5460420000000  0.4267750000000 1.0
C      1  0.5815630000000  0.4864140000000  0.5530590000000 1.0
C      1  0.5698300000000  0.5191380000000  0.4579380000000 1.0
C      1  0.4221370000000  0.4830340000000  0.4487980000000 1.0
C      1  0.4515730000000  0.5811180000000  0.5127390000000 1.0
C      1  0.4548030000000  0.4184070000000  0.4787360000000 1.0
C      1  0.5510380000000  0.5818210000000  0.4819690000000 1.0
C      1  0.4833860000000  0.4499330000000  0.4088900000000 1.0
C      1  0.4879440000000  0.5527600000000  0.5800920000000 1.0
C      1  0.5115770000000  0.4577960000000  0.5738310000000 1.0
C      1  0.4197760000000  0.4560600000000  0.5360480000000 1.0
C      1  0.5367110000000  0.4113870000000  0.4505890000000 1.0
C      1  0.4513600000000  0.5377940000000  0.4129750000000 1.0
C      1  0.5850700000000  0.5481800000000  0.5399620000000 1.0
C      1  0.5790550000000  0.4549780000000  0.4634530000000 1.0
C      1  0.4149430000000  0.5453280000000  0.4601100000000 1.0
C      1  0.4602120000000  0.5819720000000  0.4544220000000 1.0
C      1  0.4609960000000  0.4170570000000  0.5449200000000 1.0
C      1  0.5386980000000  0.5846320000000  0.5451180000000 1.0
C      1  0.5412670000000  0.4614980000000  0.4187670000000 1.0
C      1  0.5484800000000  0.5420960000000  0.5875710000000 1.0
C      1  0.4550310000000  0.4635340000000  0.5801460000000 1.0
C      1  0.4595840000000  0.5954290000000  0.5365850000000 1.0
C      1  0.5358640000000  0.4633800000000  0.5899120000000 1.0
C      1  0.5904140000000  0.5400600000000  0.4613570000000 1.0
C      1  0.5406910000000  0.3971260000000  0.5394310000000 1.0
C      1  0.5402410000000  0.5969000000000  0.4595050000000 1.0
C      1  0.4579120000000  0.4002700000000  0.4564060000000 1.0
C      1  0.4628980000000  0.5426540000000  0.5946770000000 1.0
C      1  0.4577170000000  0.4565770000000  0.3968930000000 1.0
C      1  0.5340640000000  0.5394900000000  0.4107980000000 1.0
C      1  0.4061770000000  0.4606470000000  0.4570560000000 1.0
C      1  0.4031060000000  0.5394960000000  0.5403290000000 1.0
C      1  0.5925380000000  0.4615620000000  0.5424840000000 1.0
C      1  0.5358460000000  0.4803570000000  0.5309310000000 1.0
C      1  0.5127560000000  0.5067610000000  0.5223690000000 1.0
C      1  0.5003570000000  0.5356310000000  0.5274410000000 1.0
C      1  0.4662580000000  0.5075200000000  0.5251260000000 1.0
C      1  0.4731760000000  0.4875060000000  0.4710640000000 1.0
C      1  0.5172650000000  0.5084920000000  0.4901240000000 1.0
C      1  0.4856420000000  0.4651550000000  0.4799230000000 1.0
C      1  0.4765290000000  0.5310400000000  0.5107650000000 1.0
C      1  0.5266520000000  0.4615400000000  0.5145530000000 1.0
C      1  0.4881950000000  0.4892810000000  0.5309790000000 1.0
C      1  0.4929690000000  0.5160560000000  0.4806120000000 1.0
C      1  0.5068950000000  0.4720520000000  0.4970700000000 1.0
C      1  0.4371410000000  0.4263160000000  0.5285890000000 1.0
C      1  0.5284040000000  0.4334330000000  0.4243230000000 1.0
C      1  0.4232760000000  0.5301900000000  0.4319370000000 1.0
C      1  0.5659130000000  0.5768040000000  0.5317610000000 1.0
C      1  0.5642650000000  0.4234020000000  0.4687010000000 1.0
C      1  0.4345120000000  0.5730710000000  0.4675700000000 1.0
C      1  0.4665270000000  0.5645370000000  0.4252950000000 1.0
C      1  0.4681110000000  0.4370610000000  0.5692520000000 1.0
C      1  0.5331030000000  0.5704670000000  0.5743170000000 1.0
C      1  0.5694210000000  0.4696520000000  0.4388080000000 1.0
C      1  0.5785100000000  0.5344860000000  0.5702430000000 1.0
C      1  0.4290100000000  0.4704810000000  0.5637070000000 1.0
C      1  0.5437870000000  0.5180880000000  0.5505220000000 1.0
C      1  0.5512200000000  0.5266320000000  0.5237830000000 1.0
C      1  0.5409780000000  0.5485760000000  0.5108450000000 1.0
C      1  0.4735610000000  0.5105780000000  0.5669290000000 1.0
C      1  0.4605330000000  0.5259870000000  0.4538360000000 1.0
C      1  0.5229760000000  0.4932960000000  0.4492540000000 1.0
C      1  0.4601550000000  0.4605360000000  0.5153480000000 1.0
C      1  0.4470920000000  0.5216840000000  0.4767000000000 1.0
C      1  0.5376920000000  0.4773170000000  0.4671610000000 1.0
C      1  0.4808240000000  0.4436290000000  0.5172920000000 1.0
C      1  0.5022490000000  0.5622070000000  0.4697760000000 1.0
C      1  0.5301220000000  0.4504290000000  0.4681670000000 1.0
C      1  0.5158760000000  0.4324740000000  0.4823190000000 1.0
C      1  0.4781540000000  0.5138480000000  0.4372560000000 1.0
C      1  0.4442360000000  0.4777840000000  0.5027760000000 1.0
C      1  0.5026150000000  0.5686170000000  0.4950670000000 1.0
C      1  0.4991960000000  0.4298670000000  0.5034580000000 1.0
C      1  0.5153920000000  0.5565240000000  0.5158050000000 1.0
C      1  0.4982440000000  0.4941500000000  0.4363600000000 1.0
C      1  0.5188720000000  0.5206430000000  0.5641500000000 1.0
C      1  0.4994840000000  0.5011290000000  0.5711980000000 1.0
C      1  0.5601710000000  0.5057030000000  0.5064700000000 1.0
C      1  0.5549780000000  0.4873670000000  0.4873420000000 1.0
C      1  0.4383500000000  0.5019020000000  0.4924410000000 1.0
C      1  0.5592120000000  0.5970320000000  0.4379900000000 1.0
C      1  0.4414320000000  0.5618830000000  0.5921710000000 1.0
C      1  0.5903630000000  0.4394990000000  0.5604490000000 1.0
C      1  0.4375860000000  0.4029230000000  0.4366300000000 1.0
C      1  0.4398310000000  0.5948250000000  0.5570390000000 1.0
C      1  0.5588200000000  0.4018250000000  0.5612760000000 1.0
C      1  0.5536180000000  0.4409890000000  0.5907170000000 1.0
C      1  0.5538410000000  0.5597470000000  0.4085360000000 1.0
C      1  0.4374360000000  0.4371260000000  0.4014380000000 1.0
C      1  0.4055310000000  0.5605180000000  0.5593200000000 1.0
C      1  0.4055770000000  0.4395670000000  0.4378740000000 1.0
C      1  0.5904720000000  0.5593870000000  0.4403240000000 1.0
C      1  0.4882290000000  0.3971730000000  0.5298640000000 1.0
C      1  0.5257120000000  0.4898830000000  0.4013640000000 1.0
C      1  0.4006640000000  0.5289410000000  0.4893390000000 1.0
C      1  0.5104550000000  0.6010800000000  0.5285110000000 1.0
C      1  0.5082690000000  0.3935700000000  0.4649860000000 1.0
C      1  0.4871970000000  0.6027410000000  0.4686380000000 1.0
C      1  0.4672390000000  0.5092290000000  0.3957080000000 1.0
C      1  0.4690030000000  0.4886020000000  0.6038280000000 1.0
C      1  0.5318150000000  0.5137710000000  0.6047420000000 1.0
C      1  0.5953520000000  0.4718050000000  0.4917340000000 1.0
C      1  0.5986020000000  0.5302190000000  0.5111800000000 1.0
C      1  0.4017660000000  0.4711180000000  0.5080530000000 1.0
C      1  0.5118160000000  0.6018550000000  0.4510330000000 1.0
C      1  0.4520040000000  0.5146040000000  0.6040060000000 1.0
C      1  0.5963830000000  0.4536010000000  0.5144530000000 1.0
C      1  0.4852260000000  0.3947700000000  0.4473350000000 1.0
C      1  0.4869280000000  0.6014770000000  0.5454330000000 1.0
C      1  0.5120570000000  0.3970150000000  0.5469890000000 1.0
C      1  0.5469550000000  0.4891420000000  0.6006250000000 1.0
C      1  0.5430250000000  0.5132190000000  0.4035560000000 1.0
C      1  0.4493370000000  0.4853510000000  0.3943020000000 1.0
C      1  0.3993850000000  0.5473230000000  0.5122530000000 1.0
C      1  0.4015960000000  0.4530680000000  0.4847900000000 1.0
C      1  0.5996040000000  0.5482940000000  0.4879190000000 1.0
C      1  0.5446660000000  0.5266440000000  0.4719470000000 1.0
C      1  0.4610730000000  0.5548140000000  0.5100920000000 1.0
C      1  0.4993750000000  0.4772230000000  0.5561800000000 1.0
C      1  0.4497270000000  0.4821400000000  0.4556260000000 1.0
C      1  0.4406330000000  0.5111230000000  0.5346210000000 1.0
C      1  0.5535700000000  0.4905990000000  0.5489100000000 1.0
C      1  0.5388810000000  0.4374130000000  0.5186980000000 1.0
C      1  0.5467520000000  0.5526950000000  0.4833480000000 1.0
C      1  0.4701940000000  0.4419120000000  0.4738820000000 1.0
C      1  0.5010160000000  0.5417720000000  0.5562700000000 1.0
C      1  0.4898220000000  0.4696070000000  0.4272980000000 1.0
C      1  0.5062880000000  0.5410020000000  0.4543830000000 1.0
C      1  0.4976360000000  0.3869910000000  0.4975340000000 1.0
C      1  0.4971670000000  0.5001570000000  0.3925000000000 1.0
C      1  0.3955810000000  0.4999650000000  0.4989190000000 1.0
C      1  0.4971930000000  0.6113600000000  0.4975470000000 1.0
C      1  0.5001060000000  0.5010400000000  0.6144680000000 1.0
C      1  0.6027280000000  0.5006440000000  0.5011110000000 1.0
C      1  0.5693750000000  0.4254430000000  0.5731370000000 1.0
C      1  0.5706860000000  0.5739910000000  0.4261030000000 1.0
C      1  0.4267960000000  0.5744800000000  0.5716220000000 1.0
C      1  0.4247380000000  0.4245140000000  0.4234110000000 1.0
END
