TITL C-3623287-7182-516 490.652003449331 125000 -805.188861357315 0 0 129 (C1) n - 1
REM
REM in /home/nfs/bkarasulu/CARBON/AIRSS/Generating-Clusters/LCBOP/Higher-Symm/SD-CG/FIRE-CG
REM
REM
REM
REM
REM
REM ./C.cell (b20cbc046b6831c77cfcea5457e17084)
REM AIRSS Version 0.9.1 bugfix July 2018 build 013d7b7c2542+ Fri, 06 Jul 2018 19:26:36 +0100
REM compiler GCC version 9.2.1 20190827 (Red Hat 9.2.1-1)
REM options -cpp -mtune=generic -march=x86-64 -g -O0 -fpre-include=/usr/include/finclude/math-vector-fortran.h
REM seed 1207943058 990201895 1618996566 -46193995 1854884323 247266647 555922845 854955316 -2130477650 -1355166752 1254422097 2010592593 -1196623451 1077347695 -704381647 -178237131 -1040476554 330056277 -623066723 -2081863334 -1672629829 -849594163 -332187400 -1349457388 927475988 674360414 643998626 -61252679 565028845 245070621 957178957 -1908556628 -1954585058
REM
CELL 1.54180   50.00000   50.00000   50.00000   90.00000   90.00000   90.00000
LATT -1
SFAC C  
C      1  0.5428900000000  0.5231190000000  0.4829320000000 1.0
C      1  0.4966800000000  0.5171500000000  0.4455690000000 1.0
C      1  0.4533260000000  0.5204690000000  0.4821940000000 1.0
C      1  0.4726290000000  0.5257830000000  0.5380690000000 1.0
C      1  0.5371340000000  0.5268880000000  0.5436460000000 1.0
C      1  0.5478110000000  0.4725970000000  0.5114440000000 1.0
C      1  0.4920010000000  0.4733120000000  0.5502790000000 1.0
C      1  0.4440910000000  0.4738630000000  0.5144080000000 1.0
C      1  0.4767850000000  0.4714370000000  0.4615060000000 1.0
C      1  0.5391280000000  0.4752950000000  0.4564450000000 1.0
C      1  0.4729310000000  0.4737830000000  0.4089300000000 1.0
C      1  0.3972760000000  0.4743920000000  0.4958700000000 1.0
C      1  0.4659790000000  0.4757680000000  0.5942770000000 1.0
C      1  0.5801830000000  0.4738940000000  0.5524900000000 1.0
C      1  0.5858460000000  0.4739120000000  0.4364830000000 1.0
C      1  0.4679020000000  0.5273090000000  0.5922720000000 1.0
C      1  0.4030640000000  0.5247700000000  0.4955830000000 1.0
C      1  0.4686570000000  0.5246920000000  0.4035680000000 1.0
C      1  0.5754540000000  0.5243840000000  0.4411560000000 1.0
C      1  0.5847260000000  0.5249730000000  0.5578700000000 1.0
C      1  0.5655030000000  0.5337710000000  0.5391150000000 1.0
C      1  0.5524190000000  0.5319980000000  0.4555510000000 1.0
C      1  0.4736290000000  0.5311780000000  0.4307640000000 1.0
C      1  0.4303810000000  0.5312620000000  0.4988040000000 1.0
C      1  0.4819010000000  0.5365000000000  0.5695530000000 1.0
C      1  0.5682340000000  0.4647810000000  0.4568260000000 1.0
C      1  0.5562080000000  0.4664410000000  0.5394680000000 1.0
C      1  0.4690560000000  0.4650990000000  0.5683180000000 1.0
C      1  0.4241530000000  0.4658910000000  0.4934470000000 1.0
C      1  0.4840350000000  0.4643940000000  0.4332070000000 1.0
C      1  0.4807650000000  0.5480370000000  0.5133530000000 1.0
C      1  0.5221570000000  0.5504920000000  0.5387590000000 1.0
C      1  0.5333490000000  0.5475960000000  0.4962040000000 1.0
C      1  0.4999960000000  0.5361880000000  0.4669310000000 1.0
C      1  0.4758050000000  0.5418170000000  0.4835070000000 1.0
C      1  0.4769560000000  0.4479730000000  0.4792190000000 1.0
C      1  0.5261600000000  0.4534230000000  0.4710620000000 1.0
C      1  0.5396190000000  0.4494040000000  0.4956850000000 1.0
C      1  0.4999830000000  0.4515000000000  0.5314870000000 1.0
C      1  0.4573130000000  0.4484560000000  0.5191680000000 1.0
C      1  0.3912040000000  0.4852150000000  0.5222390000000 1.0
C      1  0.4897320000000  0.4860220000000  0.6068300000000 1.0
C      1  0.6023910000000  0.4841080000000  0.5375440000000 1.0
C      1  0.5713180000000  0.4835690000000  0.4132740000000 1.0
C      1  0.4455770000000  0.4823340000000  0.4078190000000 1.0
C      1  0.3952490000000  0.5157720000000  0.4694330000000 1.0
C      1  0.4928500000000  0.5154990000000  0.3904570000000 1.0
C      1  0.5993940000000  0.5166740000000  0.4550020000000 1.0
C      1  0.5727810000000  0.5132400000000  0.5817370000000 1.0
C      1  0.4411960000000  0.5176360000000  0.5893090000000 1.0
C      1  0.5312080000000  0.4616940000000  0.5835840000000 1.0
C      1  0.6018000000000  0.4561230000000  0.4928520000000 1.0
C      1  0.5274060000000  0.4540250000000  0.4095640000000 1.0
C      1  0.4216920000000  0.4547030000000  0.4452430000000 1.0
C      1  0.4195060000000  0.4593050000000  0.5599960000000 1.0
C      1  0.5299530000000  0.5455170000000  0.4129050000000 1.0
C      1  0.5970720000000  0.5420820000000  0.5010590000000 1.0
C      1  0.5267230000000  0.5384820000000  0.5942980000000 1.0
C      1  0.4239920000000  0.5437430000000  0.5469560000000 1.0
C      1  0.4273410000000  0.5458600000000  0.4408740000000 1.0
C      1  0.5159140000000  0.5313780000000  0.3945870000000 1.0
C      1  0.4063170000000  0.5305250000000  0.4481250000000 1.0
C      1  0.4249710000000  0.5307340000000  0.5704740000000 1.0
C      1  0.5507650000000  0.5258710000000  0.5945430000000 1.0
C      1  0.6058870000000  0.5296850000000  0.4789630000000 1.0
C      1  0.5144490000000  0.4735880000000  0.6010870000000 1.0
C      1  0.4003830000000  0.4720280000000  0.5456160000000 1.0
C      1  0.4265320000000  0.4681650000000  0.4226000000000 1.0
C      1  0.5499250000000  0.4677550000000  0.4035520000000 1.0
C      1  0.6096640000000  0.4708770000000  0.5139010000000 1.0
C      1  0.3894330000000  0.5135260000000  0.5182970000000 1.0
C      1  0.4846640000000  0.5137310000000  0.6115470000000 1.0
C      1  0.6071090000000  0.5109540000000  0.5461400000000 1.0
C      1  0.5714800000000  0.5121100000000  0.4152770000000 1.0
C      1  0.4447100000000  0.5094660000000  0.3991880000000 1.0
C      1  0.3870080000000  0.4885480000000  0.4727700000000 1.0
C      1  0.4908100000000  0.4869180000000  0.3902390000000 1.0
C      1  0.6071020000000  0.4905980000000  0.4463750000000 1.0
C      1  0.5770300000000  0.4849960000000  0.5790760000000 1.0
C      1  0.4413270000000  0.4904440000000  0.5979340000000 1.0
C      1  0.4460160000000  0.4482470000000  0.5611650000000 1.0
C      1  0.5382870000000  0.4526550000000  0.5574560000000 1.0
C      1  0.5798650000000  0.4465680000000  0.4775250000000 1.0
C      1  0.5073760000000  0.4477180000000  0.4289160000000 1.0
C      1  0.4304700000000  0.4480600000000  0.4712410000000 1.0
C      1  0.4553320000000  0.5514530000000  0.4430090000000 1.0
C      1  0.5349840000000  0.5501750000000  0.4406310000000 1.0
C      1  0.5748560000000  0.5500340000000  0.5166450000000 1.0
C      1  0.5058330000000  0.5510970000000  0.5789450000000 1.0
C      1  0.4341730000000  0.5495520000000  0.5211590000000 1.0
C      1  0.5013920000000  0.6024160000000  0.4815090000000 1.0
C      1  0.4755230000000  0.6069900000000  0.4945670000000 1.0
C      1  0.4800310000000  0.6108000000000  0.5236380000000 1.0
C      1  0.5085270000000  0.6093040000000  0.5284890000000 1.0
C      1  0.5220660000000  0.6052160000000  0.5025510000000 1.0
C      1  0.5105270000000  0.3912010000000  0.5250890000000 1.0
C      1  0.4816370000000  0.3910310000000  0.5196470000000 1.0
C      1  0.4790590000000  0.3907020000000  0.4904970000000 1.0
C      1  0.5058510000000  0.3913140000000  0.4790060000000 1.0
C      1  0.5259490000000  0.3907540000000  0.5001840000000 1.0
C      1  0.5115870000000  0.4073150000000  0.4568870000000 1.0
C      1  0.4576650000000  0.4039040000000  0.4776460000000 1.0
C      1  0.4625470000000  0.4040690000000  0.5362530000000 1.0
C      1  0.5197960000000  0.4082140000000  0.5451670000000 1.0
C      1  0.5513540000000  0.4033500000000  0.4963250000000 1.0
C      1  0.5164110000000  0.5959590000000  0.5521900000000 1.0
C      1  0.4631070000000  0.5913020000000  0.5363340000000 1.0
C      1  0.4572030000000  0.5842750000000  0.4898730000000 1.0
C      1  0.4995300000000  0.5824940000000  0.4619430000000 1.0
C      1  0.5474750000000  0.5926770000000  0.5016830000000 1.0
C      1  0.4655910000000  0.5665420000000  0.4674530000000 1.0
C      1  0.4567510000000  0.5687810000000  0.5174660000000 1.0
C      1  0.5157930000000  0.5688450000000  0.5590860000000 1.0
C      1  0.5547570000000  0.5655140000000  0.5033540000000 1.0
C      1  0.5135950000000  0.5597090000000  0.4565560000000 1.0
C      1  0.4521630000000  0.4300640000000  0.5400640000000 1.0
C      1  0.4536670000000  0.4314500000000  0.4737690000000 1.0
C      1  0.5155790000000  0.4344650000000  0.4525520000000 1.0
C      1  0.5603310000000  0.4298100000000  0.4915930000000 1.0
C      1  0.5199160000000  0.4359380000000  0.5442950000000 1.0
C      1  0.4701220000000  0.4954450000000  0.4774480000000 1.0
C      1  0.4627670000000  0.4984850000000  0.5233720000000 1.0
C      1  0.5138350000000  0.5000180000000  0.5410940000000 1.0
C      1  0.5191250000000  0.4962740000000  0.4459930000000 1.0
C      1  0.5371660000000  0.4984260000000  0.4995820000000 1.0
C      1  0.4837160000000  0.4476590000000  0.5077770000000 1.0
C      1  0.5105020000000  0.5511530000000  0.5134280000000 1.0
C      1  0.4850520000000  0.4955860000000  0.5027270000000 1.0
C      1  0.5110650000000  0.4992150000000  0.5123880000000 1.0
END
