TITL C-3623285-6872-1221 -1.25213698724737 125000 -255.84081632746 0 0 47 (C2) n - 1
REM
REM in /home/nfs/bkarasulu/CARBON/AIRSS/Generating-Clusters/LCBOP/Higher-Symm/SD-CG/FIRE-CG
REM
REM
REM
REM
REM
REM ./C.cell (b20cbc046b6831c77cfcea5457e17084)
REM AIRSS Version 0.9.1 bugfix July 2018 build 013d7b7c2542+ Fri, 06 Jul 2018 19:26:36 +0100
REM compiler GCC version 9.2.1 20190827 (Red Hat 9.2.1-1)
REM options -cpp -mtune=generic -march=x86-64 -g -O0 -fpre-include=/usr/include/finclude/math-vector-fortran.h
REM seed -796309597 1530793849 143994566 -769959170 552758194 1311875170 -523960007 -1738340269 1817813657 1270558926 -1208790658 -1635069825 1188994040 228920259 1536687771 1616634986 -1509088882 -1773395945 -591242416 -1627898015 -1348169626 635263834 1899755584 -46412798 484641484 -1579230178 -96646565 1574191812 1950453917 -492768690 -578651745 97954969 -2034864654
REM
CELL 1.54180   50.00000   50.00000   50.00000   90.00000   90.00000   90.00000
LATT -1
SFAC C  
C      1  0.4826210000000  0.4480680000000  0.4504810000000 1.0
C      1  0.5182060000000  0.4479990000000  0.5483480000000 1.0
C      1  0.5182050000000  0.5500820000000  0.4505190000000 1.0
C      1  0.4826350000000  0.5500150000000  0.5483900000000 1.0
C      1  0.4619000000000  0.4768170000000  0.5617060000000 1.0
C      1  0.5387980000000  0.4769100000000  0.4372060000000 1.0
C      1  0.5388190000000  0.5211640000000  0.5616590000000 1.0
C      1  0.4619030000000  0.5212740000000  0.4371700000000 1.0
C      1  0.4794290000000  0.4748020000000  0.4375910000000 1.0
C      1  0.5212090000000  0.4747140000000  0.5612910000000 1.0
C      1  0.5211990000000  0.5233640000000  0.4375820000000 1.0
C      1  0.4794380000000  0.5232840000000  0.5612870000000 1.0
C      1  0.4908240000000  0.4900390000000  0.4582760000000 1.0
C      1  0.5097380000000  0.4899320000000  0.5406430000000 1.0
C      1  0.5097300000000  0.5081530000000  0.4582360000000 1.0
C      1  0.4908310000000  0.5080410000000  0.5406060000000 1.0
C      1  0.4637940000000  0.4514080000000  0.4729090000000 1.0
C      1  0.5371040000000  0.4515070000000  0.5259890000000 1.0
C      1  0.5371180000000  0.5465870000000  0.4728650000000 1.0
C      1  0.4638170000000  0.5466620000000  0.5259550000000 1.0
C      1  0.5671810000000  0.5097160000000  0.5079750000000 1.0
C      1  0.4335770000000  0.5097310000000  0.4909220000000 1.0
C      1  0.4335690000000  0.4883560000000  0.5079650000000 1.0
C      1  0.5671700000000  0.4883620000000  0.4908930000000 1.0
C      1  0.4578630000000  0.4743920000000  0.5129060000000 1.0
C      1  0.5428650000000  0.4744040000000  0.4859510000000 1.0
C      1  0.5428870000000  0.5236950000000  0.5129120000000 1.0
C      1  0.4578810000000  0.5236760000000  0.4859690000000 1.0
C      1  0.5319560000000  0.5356510000000  0.5368510000000 1.0
C      1  0.4687660000000  0.5357120000000  0.4620130000000 1.0
C      1  0.4687600000000  0.4623700000000  0.5368650000000 1.0
C      1  0.5319380000000  0.4624330000000  0.4620190000000 1.0
C      1  0.4628350000000  0.5024410000000  0.5733920000000 1.0
C      1  0.5378260000000  0.5025220000000  0.4255360000000 1.0
C      1  0.5378480000000  0.4955520000000  0.5733320000000 1.0
C      1  0.4628350000000  0.4956500000000  0.4254850000000 1.0
C      1  0.4924420000000  0.5538620000000  0.4675090000000 1.0
C      1  0.5084300000000  0.5536690000000  0.5315770000000 1.0
C      1  0.5084140000000  0.4444140000000  0.4672990000000 1.0
C      1  0.4924360000000  0.4442200000000  0.5313680000000 1.0
C      1  0.4756830000000  0.4753640000000  0.4886090000000 1.0
C      1  0.5250870000000  0.4753930000000  0.5102740000000 1.0
C      1  0.5251140000000  0.5227140000000  0.4885930000000 1.0
C      1  0.4757130000000  0.5226950000000  0.5102640000000 1.0
C      1  0.5000900000000  0.4368160000000  0.5001850000000 1.0
C      1  0.5001030000000  0.5612670000000  0.4986890000000 1.0
C      1  0.5004190000000  0.4990410000000  0.4994390000000 1.0
END
