TITL C-3623283-6828-1459 10771.1608105051 125000 -962.811210334196 0 0 154 (C1) n - 1
REM
REM in /home/nfs/bkarasulu/CARBON/AIRSS/Generating-Clusters/LCBOP/Higher-Symm/SD-CG/FIRE-CG
REM
REM
REM
REM
REM
REM ./C.cell (b20cbc046b6831c77cfcea5457e17084)
REM AIRSS Version 0.9.1 bugfix July 2018 build 013d7b7c2542+ Fri, 06 Jul 2018 19:26:36 +0100
REM compiler GCC version 9.2.1 20190827 (Red Hat 9.2.1-1)
REM options -cpp -mtune=generic -march=x86-64 -g -O0 -fpre-include=/usr/include/finclude/math-vector-fortran.h
REM seed -784296807 -2002670244 -399951744 -106113824 -1920257004 745748374 1500644946 -2023628670 -1043359203 135600624 1340286734 1403449176 1685305677 -973230098 555509735 -652677075 2034449141 -1752742139 -1709780042 30760552 -1644693406 -560728817 -1737471447 2020868581 -1650589692 -41626276 1320191365 -1291178175 -654848063 481061494 1379334187 -1360311192 2109496829
REM
CELL 1.54180   50.00000   50.00000   50.00000   90.00000   90.00000   90.00000
LATT -1
SFAC C  
C      1  0.5730690000000  0.4976490000000  0.4448370000000 1.0
C      1  0.5691540000000  0.4704610000000  0.5333670000000 1.0
C      1  0.5759740000000  0.5409800000000  0.5212230000000 1.0
C      1  0.4267700000000  0.4881830000000  0.5434460000000 1.0
C      1  0.4243370000000  0.4594670000000  0.4767100000000 1.0
C      1  0.4235400000000  0.5477210000000  0.4729870000000 1.0
C      1  0.4581220000000  0.4152970000000  0.5368000000000 1.0
C      1  0.4517170000000  0.5911020000000  0.5636580000000 1.0
C      1  0.4531150000000  0.5081480000000  0.4105620000000 1.0
C      1  0.5506400000000  0.3965160000000  0.4482430000000 1.0
C      1  0.5509090000000  0.5746070000000  0.4454420000000 1.0
C      1  0.5443900000000  0.5135880000000  0.5948920000000 1.0
C      1  0.4293750000000  0.4734140000000  0.5910710000000 1.0
C      1  0.4328150000000  0.5963910000000  0.4708720000000 1.0
C      1  0.4291080000000  0.4291470000000  0.4375030000000 1.0
C      1  0.5630740000000  0.4782410000000  0.4007860000000 1.0
C      1  0.5709490000000  0.5898870000000  0.5280090000000 1.0
C      1  0.5638680000000  0.4375730000000  0.5699970000000 1.0
C      1  0.4551470000000  0.5122250000000  0.5788810000000 1.0
C      1  0.4617440000000  0.5664310000000  0.4459880000000 1.0
C      1  0.4589730000000  0.4234350000000  0.4747690000000 1.0
C      1  0.5363070000000  0.5161340000000  0.4166270000000 1.0
C      1  0.5414300000000  0.5597240000000  0.5518720000000 1.0
C      1  0.5433080000000  0.4265430000000  0.5277450000000 1.0
C      1  0.3911920000000  0.5209410000000  0.4993620000000 1.0
C      1  0.3865670000000  0.4884460000000  0.4846170000000 1.0
C      1  0.3855400000000  0.4895880000000  0.5201350000000 1.0
C      1  0.6125760000000  0.5180490000000  0.5003860000000 1.0
C      1  0.6109920000000  0.4871150000000  0.5182670000000 1.0
C      1  0.6060700000000  0.4888330000000  0.4806080000000 1.0
C      1  0.4869680000000  0.4753010000000  0.4013160000000 1.0
C      1  0.4906430000000  0.4234640000000  0.5710870000000 1.0
C      1  0.4905720000000  0.5944000000000  0.5319660000000 1.0
C      1  0.5114340000000  0.4781100000000  0.6079620000000 1.0
C      1  0.5101970000000  0.4232850000000  0.4343470000000 1.0
C      1  0.5172760000000  0.5975240000000  0.4718980000000 1.0
C      1  0.4371540000000  0.5705430000000  0.4609120000000 1.0
C      1  0.4352940000000  0.4354990000000  0.4642080000000 1.0
C      1  0.4351150000000  0.4928920000000  0.5715270000000 1.0
C      1  0.5649100000000  0.5635670000000  0.5359080000000 1.0
C      1  0.5590150000000  0.4448810000000  0.5432710000000 1.0
C      1  0.5599960000000  0.4992660000000  0.4190510000000 1.0
C      1  0.5183430000000  0.3851150000000  0.5201260000000 1.0
C      1  0.5155230000000  0.5732610000000  0.5912870000000 1.0
C      1  0.5094910000000  0.5411270000000  0.3851220000000 1.0
C      1  0.4835850000000  0.3819410000000  0.4819510000000 1.0
C      1  0.4887050000000  0.5822410000000  0.4093460000000 1.0
C      1  0.4796180000000  0.5406300000000  0.6102100000000 1.0
C      1  0.4629900000000  0.4171140000000  0.5659480000000 1.0
C      1  0.4636600000000  0.5998400000000  0.5385200000000 1.0
C      1  0.4590260000000  0.4812520000000  0.3993760000000 1.0
C      1  0.5368480000000  0.4149340000000  0.4304030000000 1.0
C      1  0.5446190000000  0.5982580000000  0.4626870000000 1.0
C      1  0.5390910000000  0.4879320000000  0.6096650000000 1.0
C      1  0.5889670000000  0.5813450000000  0.4690950000000 1.0
C      1  0.5803170000000  0.4307810000000  0.4409450000000 1.0
C      1  0.5839120000000  0.4914060000000  0.5910270000000 1.0
C      1  0.4203100000000  0.5817880000000  0.5315590000000 1.0
C      1  0.4173540000000  0.4272970000000  0.5531940000000 1.0
C      1  0.4145410000000  0.4848530000000  0.4159980000000 1.0
C      1  0.4411010000000  0.5989150000000  0.5201450000000 1.0
C      1  0.4345390000000  0.4663840000000  0.4048630000000 1.0
C      1  0.4369700000000  0.4272000000000  0.5755060000000 1.0
C      1  0.5690050000000  0.6005820000000  0.4790310000000 1.0
C      1  0.5642740000000  0.4732760000000  0.6039960000000 1.0
C      1  0.5583310000000  0.4326920000000  0.4217540000000 1.0
C      1  0.4890100000000  0.4056530000000  0.4404190000000 1.0
C      1  0.4876140000000  0.4933360000000  0.6154460000000 1.0
C      1  0.4957110000000  0.6014940000000  0.4538850000000 1.0
C      1  0.5120560000000  0.4064690000000  0.5628070000000 1.0
C      1  0.5053110000000  0.4918320000000  0.3869290000000 1.0
C      1  0.5115490000000  0.5984420000000  0.5504770000000 1.0
C      1  0.4946850000000  0.4712630000000  0.4286090000000 1.0
C      1  0.4963920000000  0.4504820000000  0.5633720000000 1.0
C      1  0.4959920000000  0.5738810000000  0.5128360000000 1.0
C      1  0.5071230000000  0.4703280000000  0.5802030000000 1.0
C      1  0.5059520000000  0.4500610000000  0.4429570000000 1.0
C      1  0.5137790000000  0.5761500000000  0.4909000000000 1.0
C      1  0.4013060000000  0.4735480000000  0.4666520000000 1.0
C      1  0.4010440000000  0.4759270000000  0.5387900000000 1.0
C      1  0.4042790000000  0.5454080000000  0.4947280000000 1.0
C      1  0.5957810000000  0.4791240000000  0.5402530000000 1.0
C      1  0.5934890000000  0.4807810000000  0.4567520000000 1.0
C      1  0.5991830000000  0.5419150000000  0.5042660000000 1.0
C      1  0.4334500000000  0.4471810000000  0.5947840000000 1.0
C      1  0.4382780000000  0.6083130000000  0.4941720000000 1.0
C      1  0.4325400000000  0.4397500000000  0.4131100000000 1.0
C      1  0.5590510000000  0.4518380000000  0.4016580000000 1.0
C      1  0.5696320000000  0.6058860000000  0.5065300000000 1.0
C      1  0.5644420000000  0.4467180000000  0.5951150000000 1.0
C      1  0.5084870000000  0.5120910000000  0.4596420000000 1.0
C      1  0.4961660000000  0.4740870000000  0.5151640000000 1.0
C      1  0.5132860000000  0.5277200000000  0.5222900000000 1.0
C      1  0.4899310000000  0.5023520000000  0.5506740000000 1.0
C      1  0.4866340000000  0.4646490000000  0.4872440000000 1.0
C      1  0.4860070000000  0.5308130000000  0.4711370000000 1.0
C      1  0.5259940000000  0.5795280000000  0.5658510000000 1.0
C      1  0.5190590000000  0.5159360000000  0.3935200000000 1.0
C      1  0.5268210000000  0.4050470000000  0.5382640000000 1.0
C      1  0.4796660000000  0.5865490000000  0.4358080000000 1.0
C      1  0.4709790000000  0.5143160000000  0.6038050000000 1.0
C      1  0.4739640000000  0.4014330000000  0.4640400000000 1.0
C      1  0.4097670000000  0.5681090000000  0.5789380000000 1.0
C      1  0.4103280000000  0.5346090000000  0.4093980000000 1.0
C      1  0.4176090000000  0.3974920000000  0.5127220000000 1.0
C      1  0.5941200000000  0.5624730000000  0.4224860000000 1.0
C      1  0.5862900000000  0.5416270000000  0.5953150000000 1.0
C      1  0.5946370000000  0.3940240000000  0.4723760000000 1.0
C      1  0.4898300000000  0.5474560000000  0.5214930000000 1.0
C      1  0.4888640000000  0.4946800000000  0.4440070000000 1.0
C      1  0.4903740000000  0.4536750000000  0.5351330000000 1.0
C      1  0.5292350000000  0.5530540000000  0.4827620000000 1.0
C      1  0.5097650000000  0.4956250000000  0.5679970000000 1.0
C      1  0.5095150000000  0.4553500000000  0.4705500000000 1.0
C      1  0.5328100000000  0.5285200000000  0.5000140000000 1.0
C      1  0.5312570000000  0.5052390000000  0.4789570000000 1.0
C      1  0.5399160000000  0.4809970000000  0.4947070000000 1.0
C      1  0.4632700000000  0.5154100000000  0.4833050000000 1.0
C      1  0.4538640000000  0.5172990000000  0.5120910000000 1.0
C      1  0.4668480000000  0.4852340000000  0.4782920000000 1.0
C      1  0.5287980000000  0.5343870000000  0.5495850000000 1.0
C      1  0.5253510000000  0.5293660000000  0.4398560000000 1.0
C      1  0.5413350000000  0.4330180000000  0.5003560000000 1.0
C      1  0.4730810000000  0.5406210000000  0.4459370000000 1.0
C      1  0.4693620000000  0.5208460000000  0.5560590000000 1.0
C      1  0.4724020000000  0.4382930000000  0.4945300000000 1.0
C      1  0.5575640000000  0.5102460000000  0.4642730000000 1.0
C      1  0.5561670000000  0.4894930000000  0.5166510000000 1.0
C      1  0.5583420000000  0.5191500000000  0.5154000000000 1.0
C      1  0.4401640000000  0.4924510000000  0.5182670000000 1.0
C      1  0.4414210000000  0.4755700000000  0.4933300000000 1.0
C      1  0.4376760000000  0.5235880000000  0.4690800000000 1.0
C      1  0.4052780000000  0.5648590000000  0.5151720000000 1.0
C      1  0.3996310000000  0.4780530000000  0.4388160000000 1.0
C      1  0.3998260000000  0.4488260000000  0.5473060000000 1.0
C      1  0.6022540000000  0.5639470000000  0.4868150000000 1.0
C      1  0.5991190000000  0.4847500000000  0.5679530000000 1.0
C      1  0.5942730000000  0.4537300000000  0.4487030000000 1.0
C      1  0.5770490000000  0.4058700000000  0.4555250000000 1.0
C      1  0.5728630000000  0.5181930000000  0.5935240000000 1.0
C      1  0.5795870000000  0.5716820000000  0.4433660000000 1.0
C      1  0.4299390000000  0.4123810000000  0.5316800000000 1.0
C      1  0.4245870000000  0.5117810000000  0.4122570000000 1.0
C      1  0.4255620000000  0.5793050000000  0.5600000000000 1.0
C      1  0.4743570000000  0.4329800000000  0.5221400000000 1.0
C      1  0.4657320000000  0.5346140000000  0.5310490000000 1.0
C      1  0.4710740000000  0.5158790000000  0.4309350000000 1.0
C      1  0.5333590000000  0.4553050000000  0.4855160000000 1.0
C      1  0.5355780000000  0.5521900000000  0.4538520000000 1.0
C      1  0.5287800000000  0.5160080000000  0.5713470000000 1.0
C      1  0.5013690000000  0.3769530000000  0.5012350000000 1.0
C      1  0.4990900000000  0.5648670000000  0.3918140000000 1.0
C      1  0.4972030000000  0.5602640000000  0.6057680000000 1.0
C      1  0.4997850000000  0.5003720000000  0.5242340000000 1.0
END
