TITL C-3623287-7182-901 -9.06149122229283e-08 125000 -321.052845908022 0 0 56 (C3i) n - 1
REM
REM in /home/nfs/bkarasulu/CARBON/AIRSS/Generating-Clusters/LCBOP/Higher-Symm/SD-CG/FIRE-CG
REM
REM
REM
REM
REM
REM ./C.cell (b20cbc046b6831c77cfcea5457e17084)
REM AIRSS Version 0.9.1 bugfix July 2018 build 013d7b7c2542+ Fri, 06 Jul 2018 19:26:36 +0100
REM compiler GCC version 9.2.1 20190827 (Red Hat 9.2.1-1)
REM options -cpp -mtune=generic -march=x86-64 -g -O0 -fpre-include=/usr/include/finclude/math-vector-fortran.h
REM seed 2103300294 1257451871 -1289606228 957132816 795249914 1141842880 -205158761 -1130294435 1566303499 600116353 -829807000 142289432 -758875115 -173804114 813748654 266611482 1046154747 -1467012328 1251562322 414861836 1944520661 -800569495 1381999966 -678223877 -1051304206 -1026007027 -100876668 244434968 -570245208 -1728822610 790184309 -553308847 -1174382985
REM
CELL 1.54180   50.00000   50.00000   50.00000   90.00000   90.00000   90.00000
LATT -1
SFAC C  
C      1  0.4926700000000  0.4817550000000  0.4304390000000 1.0
C      1  0.4355250000000  0.5181780000000  0.4709110000000 1.0
C      1  0.4420330000000  0.4818640000000  0.5406640000000 1.0
C      1  0.5056570000000  0.5181710000000  0.5699040000000 1.0
C      1  0.5628250000000  0.4818260000000  0.5294350000000 1.0
C      1  0.5563090000000  0.5182060000000  0.4596590000000 1.0
C      1  0.5334820000000  0.5569830000000  0.4921620000000 1.0
C      1  0.5094160000000  0.4429940000000  0.4664820000000 1.0
C      1  0.4751170000000  0.5570030000000  0.4745510000000 1.0
C      1  0.4649820000000  0.4430100000000  0.5082290000000 1.0
C      1  0.4891940000000  0.5570720000000  0.5336550000000 1.0
C      1  0.5232000000000  0.4429380000000  0.5255870000000 1.0
C      1  0.4522830000000  0.5210430000000  0.5147810000000 1.0
C      1  0.4883940000000  0.4789940000000  0.5480900000000 1.0
C      1  0.5353090000000  0.5210000000000  0.5334860000000 1.0
C      1  0.5461260000000  0.4789890000000  0.4855280000000 1.0
C      1  0.5099420000000  0.5209900000000  0.4521780000000 1.0
C      1  0.4630280000000  0.4789830000000  0.4668660000000 1.0
C      1  0.4336980000000  0.5826990000000  0.4842980000000 1.0
C      1  0.4526990000000  0.4173410000000  0.5489860000000 1.0
C      1  0.5179370000000  0.5825970000000  0.5651660000000 1.0
C      1  0.5648540000000  0.4174030000000  0.5164470000000 1.0
C      1  0.5453090000000  0.5827540000000  0.4513390000000 1.0
C      1  0.4799810000000  0.4172070000000  0.4358380000000 1.0
C      1  0.4605420000000  0.5075220000000  0.4633890000000 1.0
C      1  0.4480460000000  0.4924980000000  0.5152330000000 1.0
C      1  0.4866630000000  0.5075440000000  0.5519620000000 1.0
C      1  0.5377940000000  0.4924500000000  0.5369340000000 1.0
C      1  0.5503500000000  0.5075410000000  0.4850960000000 1.0
C      1  0.5117080000000  0.4924460000000  0.4483120000000 1.0
C      1  0.4781710000000  0.4215520000000  0.4980560000000 1.0
C      1  0.4874180000000  0.5784190000000  0.5169150000000 1.0
C      1  0.5078120000000  0.4215880000000  0.5187720000000 1.0
C      1  0.5207120000000  0.5784450000000  0.5026680000000 1.0
C      1  0.5121250000000  0.4215440000000  0.4828100000000 1.0
C      1  0.4905350000000  0.5784530000000  0.4808800000000 1.0
C      1  0.4382720000000  0.5349190000000  0.4938320000000 1.0
C      1  0.4632460000000  0.4651210000000  0.5497630000000 1.0
C      1  0.5241730000000  0.5349000000000  0.5560890000000 1.0
C      1  0.5601180000000  0.4650970000000  0.5064900000000 1.0
C      1  0.5350620000000  0.5349190000000  0.4505880000000 1.0
C      1  0.4742010000000  0.4650440000000  0.4443180000000 1.0
C      1  0.5502410000000  0.4403590000000  0.5157370000000 1.0
C      1  0.5379430000000  0.5596720000000  0.4637500000000 1.0
C      1  0.4870430000000  0.4402950000000  0.4484120000000 1.0
C      1  0.4481840000000  0.5596570000000  0.4846710000000 1.0
C      1  0.4602710000000  0.4403750000000  0.5366140000000 1.0
C      1  0.5112400000000  0.5596440000000  0.5521550000000 1.0
C      1  0.4676970000000  0.4727260000000  0.4970000000000 1.0
C      1  0.4807290000000  0.5273300000000  0.5257900000000 1.0
C      1  0.5121600000000  0.4726830000000  0.5289750000000 1.0
C      1  0.5307010000000  0.5272560000000  0.5033290000000 1.0
C      1  0.5176980000000  0.4727300000000  0.4744560000000 1.0
C      1  0.4861810000000  0.5272750000000  0.4712860000000 1.0
C      1  0.4991980000000  0.5169230000000  0.5001280000000 1.0
C      1  0.4991820000000  0.4830770000000  0.5001390000000 1.0
END
