TITL C-3623282-6910-44 -3.17041848365133e-07 125000 -500.880813889617 0 0 79 (C1) n - 1
REM
REM in /home/nfs/bkarasulu/CARBON/AIRSS/Generating-Clusters/LCBOP/Higher-Symm/SD-CG/FIRE-CG
REM
REM
REM
REM
REM
REM ./C.cell (b20cbc046b6831c77cfcea5457e17084)
REM AIRSS Version 0.9.1 bugfix July 2018 build 013d7b7c2542+ Fri, 06 Jul 2018 19:26:36 +0100
REM compiler GCC version 9.2.1 20190827 (Red Hat 9.2.1-1)
REM options -cpp -mtune=generic -march=x86-64 -g -O0 -fpre-include=/usr/include/finclude/math-vector-fortran.h
REM seed -132313680 482382393 -1161399178 76074170 2006302616 361546805 -362076788 -818907272 1328825310 -2105594371 1489189649 29064122 841940025 -1990892823 229712115 1333557227 -2111562843 -689885622 2081275788 -97881151 1900157317 1122928125 -960368226 -1707987156 494130702 -1198388469 273594279 586931555 -2011382659 -480849187 -813335106 -1349000122 -1758923528
REM
CELL 1.54180   50.00000   50.00000   50.00000   90.00000   90.00000   90.00000
LATT -1
SFAC C  
C      1  0.4825250000000  0.4594350000000  0.5660520000000 1.0
C      1  0.4392760000000  0.4620610000000  0.5016150000000 1.0
C      1  0.4751510000000  0.4579310000000  0.4361020000000 1.0
C      1  0.5494050000000  0.4542200000000  0.4523790000000 1.0
C      1  0.5497200000000  0.4646240000000  0.5302360000000 1.0
C      1  0.5149900000000  0.5471300000000  0.5689320000000 1.0
C      1  0.5597030000000  0.5423290000000  0.5058060000000 1.0
C      1  0.5234700000000  0.5403660000000  0.4398280000000 1.0
C      1  0.4496890000000  0.5438950000000  0.4579710000000 1.0
C      1  0.4474230000000  0.5378200000000  0.5349060000000 1.0
C      1  0.4263450000000  0.5196790000000  0.5390160000000 1.0
C      1  0.4402330000000  0.5234270000000  0.4407380000000 1.0
C      1  0.5377950000000  0.5212410000000  0.4246350000000 1.0
C      1  0.5809000000000  0.5255210000000  0.5133840000000 1.0
C      1  0.5127330000000  0.5254350000000  0.5873830000000 1.0
C      1  0.5721020000000  0.4807960000000  0.5352200000000 1.0
C      1  0.5580140000000  0.4737260000000  0.4334680000000 1.0
C      1  0.4625230000000  0.4794210000000  0.4225650000000 1.0
C      1  0.4184090000000  0.4794430000000  0.5091740000000 1.0
C      1  0.4848690000000  0.4805160000000  0.5850950000000 1.0
C      1  0.4947700000000  0.5145130000000  0.5385120000000 1.0
C      1  0.4803270000000  0.5318990000000  0.4906130000000 1.0
C      1  0.4915660000000  0.5159260000000  0.4690510000000 1.0
C      1  0.5274520000000  0.5116730000000  0.4805400000000 1.0
C      1  0.5124210000000  0.5329580000000  0.5256840000000 1.0
C      1  0.5047530000000  0.4882180000000  0.5352320000000 1.0
C      1  0.5289390000000  0.4846180000000  0.4803560000000 1.0
C      1  0.5025690000000  0.4713170000000  0.4745990000000 1.0
C      1  0.4777190000000  0.4890410000000  0.4728190000000 1.0
C      1  0.4867110000000  0.4709840000000  0.5216290000000 1.0
C      1  0.5432310000000  0.5927480000000  0.4914460000000 1.0
C      1  0.5097310000000  0.5877620000000  0.5264030000000 1.0
C      1  0.4625100000000  0.5919160000000  0.5361010000000 1.0
C      1  0.4747410000000  0.5852600000000  0.4895360000000 1.0
C      1  0.5084560000000  0.5918080000000  0.4558530000000 1.0
C      1  0.4706700000000  0.4154990000000  0.4934220000000 1.0
C      1  0.4806400000000  0.4109290000000  0.5401040000000 1.0
C      1  0.5306660000000  0.4125660000000  0.5325560000000 1.0
C      1  0.5208770000000  0.4158490000000  0.4860810000000 1.0
C      1  0.4894570000000  0.4070350000000  0.4505250000000 1.0
C      1  0.4529460000000  0.5403270000000  0.4868310000000 1.0
C      1  0.4956770000000  0.5362370000000  0.4464970000000 1.0
C      1  0.5434140000000  0.5351680000000  0.4827490000000 1.0
C      1  0.5311530000000  0.5454740000000  0.5443610000000 1.0
C      1  0.4732010000000  0.5340450000000  0.5480260000000 1.0
C      1  0.5489450000000  0.4635790000000  0.4804730000000 1.0
C      1  0.5022520000000  0.4583620000000  0.4466110000000 1.0
C      1  0.4547150000000  0.4678960000000  0.4772110000000 1.0
C      1  0.4670200000000  0.4605660000000  0.5408640000000 1.0
C      1  0.5251950000000  0.4686720000000  0.5448470000000 1.0
C      1  0.4585720000000  0.4455350000000  0.4572080000000 1.0
C      1  0.5248050000000  0.4401370000000  0.4453390000000 1.0
C      1  0.5504240000000  0.4488920000000  0.5055790000000 1.0
C      1  0.5087130000000  0.4475150000000  0.5582830000000 1.0
C      1  0.4496120000000  0.4453600000000  0.5237980000000 1.0
C      1  0.5379000000000  0.5538340000000  0.4613460000000 1.0
C      1  0.4745870000000  0.5569220000000  0.4486580000000 1.0
C      1  0.4448330000000  0.5541870000000  0.5106330000000 1.0
C      1  0.4885400000000  0.5575630000000  0.5600900000000 1.0
C      1  0.5488480000000  0.5597470000000  0.5267470000000 1.0
C      1  0.4604020000000  0.4186460000000  0.5199480000000 1.0
C      1  0.4664120000000  0.4184660000000  0.4650150000000 1.0
C      1  0.5170270000000  0.4150610000000  0.4573810000000 1.0
C      1  0.5398920000000  0.4217970000000  0.5068340000000 1.0
C      1  0.5073310000000  0.4208020000000  0.5471060000000 1.0
C      1  0.5381110000000  0.5855280000000  0.5189890000000 1.0
C      1  0.5329590000000  0.5816760000000  0.4669570000000 1.0
C      1  0.4818190000000  0.5822570000000  0.4612980000000 1.0
C      1  0.4538340000000  0.5818030000000  0.5103150000000 1.0
C      1  0.4883060000000  0.5836710000000  0.5467500000000 1.0
C      1  0.4477940000000  0.5016980000000  0.4266060000000 1.0
C      1  0.4989010000000  0.5025980000000  0.5921630000000 1.0
C      1  0.5847010000000  0.5027270000000  0.5267550000000 1.0
C      1  0.5512300000000  0.4979680000000  0.4238580000000 1.0
C      1  0.4142720000000  0.4994850000000  0.5263600000000 1.0
C      1  0.4967520000000  0.4280550000000  0.4962660000000 1.0
C      1  0.4975760000000  0.5744570000000  0.5037290000000 1.0
C      1  0.4993190000000  0.5465010000000  0.5049220000000 1.0
C      1  0.4960580000000  0.4559710000000  0.4993700000000 1.0
END
