TITL C-3623287-7182-1424 -0.328106714830282 125000 -697.737142680595 0 0 114 (C1) n - 1
REM
REM in /home/nfs/bkarasulu/CARBON/AIRSS/Generating-Clusters/LCBOP/Higher-Symm/SD-CG/FIRE-CG
REM
REM
REM
REM
REM
REM ./C.cell (b20cbc046b6831c77cfcea5457e17084)
REM AIRSS Version 0.9.1 bugfix July 2018 build 013d7b7c2542+ Fri, 06 Jul 2018 19:26:36 +0100
REM compiler GCC version 9.2.1 20190827 (Red Hat 9.2.1-1)
REM options -cpp -mtune=generic -march=x86-64 -g -O0 -fpre-include=/usr/include/finclude/math-vector-fortran.h
REM seed 888368550 -1393726370 -325896958 -1826715583 274643000 52459027 -377186811 -974316259 1539006270 -1481238277 -962454762 -1450999590 -612841138 -428519636 -57142155 -986513537 -831631433 484620329 3046546 1996269881 63656855 -640589050 953871966 -743495661 -970726986 501716274 -1383062751 2049394199 -2126911799 -420073851 2044097762 44309916 1830194834
REM
CELL 1.54180   50.00000   50.00000   50.00000   90.00000   90.00000   90.00000
LATT -1
SFAC C  
C      1  0.5447750000000  0.5366130000000  0.5045500000000 1.0
C      1  0.4561580000000  0.5346620000000  0.4861470000000 1.0
C      1  0.5432640000000  0.4647210000000  0.4931440000000 1.0
C      1  0.4557250000000  0.4680300000000  0.5155740000000 1.0
C      1  0.5772590000000  0.4065160000000  0.4848920000000 1.0
C      1  0.4292850000000  0.3900710000000  0.5015150000000 1.0
C      1  0.5761440000000  0.5958380000000  0.5152070000000 1.0
C      1  0.4268510000000  0.6119490000000  0.4964960000000 1.0
C      1  0.5412180000000  0.5494440000000  0.5503140000000 1.0
C      1  0.4608640000000  0.5324500000000  0.4389030000000 1.0
C      1  0.5378530000000  0.4501330000000  0.4478660000000 1.0
C      1  0.4602770000000  0.4705130000000  0.5626610000000 1.0
C      1  0.5177380000000  0.4824600000000  0.5286510000000 1.0
C      1  0.4806730000000  0.4760780000000  0.4752160000000 1.0
C      1  0.5192230000000  0.5183620000000  0.4694320000000 1.0
C      1  0.4827600000000  0.5274810000000  0.5261410000000 1.0
C      1  0.4792290000000  0.5825340000000  0.4497870000000 1.0
C      1  0.5168050000000  0.5906110000000  0.5572310000000 1.0
C      1  0.4779770000000  0.4197810000000  0.5520080000000 1.0
C      1  0.5170290000000  0.4072420000000  0.4440260000000 1.0
C      1  0.5018860000000  0.4173190000000  0.4222380000000 1.0
C      1  0.4963170000000  0.4312020000000  0.5680730000000 1.0
C      1  0.5020400000000  0.5847660000000  0.5804840000000 1.0
C      1  0.4975550000000  0.5713870000000  0.4335170000000 1.0
C      1  0.5166770000000  0.3960920000000  0.4916630000000 1.0
C      1  0.4774810000000  0.4116330000000  0.4708060000000 1.0
C      1  0.5151400000000  0.6034010000000  0.5099370000000 1.0
C      1  0.4756600000000  0.5898010000000  0.5319990000000 1.0
C      1  0.4268720000000  0.4680390000000  0.4327950000000 1.0
C      1  0.5756930000000  0.4762860000000  0.5595900000000 1.0
C      1  0.4212790000000  0.5324320000000  0.5685610000000 1.0
C      1  0.5770060000000  0.5255680000000  0.4380490000000 1.0
C      1  0.6180840000000  0.4935250000000  0.5437200000000 1.0
C      1  0.3846360000000  0.4807980000000  0.4529410000000 1.0
C      1  0.6173730000000  0.5020920000000  0.4509380000000 1.0
C      1  0.3797760000000  0.5149700000000  0.5504900000000 1.0
C      1  0.5577270000000  0.5455590000000  0.4327430000000 1.0
C      1  0.4375450000000  0.5544110000000  0.5749220000000 1.0
C      1  0.5569470000000  0.4561470000000  0.5663220000000 1.0
C      1  0.4448500000000  0.4477090000000  0.4251780000000 1.0
C      1  0.4416650000000  0.6038180000000  0.4755520000000 1.0
C      1  0.5629350000000  0.5912490000000  0.5381650000000 1.0
C      1  0.4420570000000  0.3983600000000  0.5237480000000 1.0
C      1  0.5636150000000  0.4105150000000  0.4621000000000 1.0
C      1  0.5413790000000  0.4216100000000  0.4487050000000 1.0
C      1  0.4592470000000  0.4196960000000  0.5309340000000 1.0
C      1  0.5418370000000  0.5779040000000  0.5515770000000 1.0
C      1  0.4597160000000  0.5827140000000  0.4701410000000 1.0
C      1  0.3540600000000  0.5170190000000  0.5467860000000 1.0
C      1  0.6432740000000  0.5011820000000  0.4536880000000 1.0
C      1  0.3595940000000  0.4757590000000  0.4581080000000 1.0
C      1  0.6436630000000  0.4906180000000  0.5396630000000 1.0
C      1  0.4213450000000  0.5970060000000  0.5462370000000 1.0
C      1  0.5739770000000  0.5857920000000  0.4637050000000 1.0
C      1  0.4282110000000  0.4039820000000  0.4510930000000 1.0
C      1  0.5742440000000  0.4158830000000  0.5363940000000 1.0
C      1  0.5064180000000  0.4561440000000  0.5770530000000 1.0
C      1  0.4949650000000  0.4446610000000  0.4201130000000 1.0
C      1  0.5070270000000  0.5465480000000  0.4236890000000 1.0
C      1  0.4815910000000  0.5705930000000  0.5903050000000 1.0
C      1  0.4709950000000  0.4812520000000  0.4004130000000 1.0
C      1  0.5359530000000  0.4916200000000  0.5917320000000 1.0
C      1  0.4699090000000  0.5239650000000  0.5968260000000 1.0
C      1  0.5349070000000  0.5094410000000  0.4093570000000 1.0
C      1  0.4594740000000  0.5625050000000  0.4906160000000 1.0
C      1  0.5369340000000  0.5611130000000  0.4932310000000 1.0
C      1  0.4600570000000  0.4402910000000  0.5108540000000 1.0
C      1  0.5370900000000  0.4401520000000  0.5053300000000 1.0
C      1  0.4198230000000  0.6086010000000  0.5221470000000 1.0
C      1  0.5797650000000  0.5938180000000  0.4886690000000 1.0
C      1  0.4245070000000  0.3929440000000  0.4752570000000 1.0
C      1  0.5807150000000  0.4083310000000  0.5114580000000 1.0
C      1  0.5895340000000  0.5031180000000  0.4490980000000 1.0
C      1  0.4073790000000  0.5129630000000  0.5540210000000 1.0
C      1  0.5904900000000  0.4963930000000  0.5468960000000 1.0
C      1  0.4116380000000  0.4858900000000  0.4480820000000 1.0
C      1  0.5775730000000  0.5191960000000  0.5370570000000 1.0
C      1  0.4238610000000  0.5087310000000  0.4586640000000 1.0
C      1  0.5740660000000  0.4818240000000  0.4585900000000 1.0
C      1  0.4215880000000  0.4915730000000  0.5429350000000 1.0
C      1  0.4443190000000  0.4757800000000  0.5402400000000 1.0
C      1  0.5528060000000  0.4656990000000  0.4665270000000 1.0
C      1  0.4453210000000  0.5262570000000  0.4613920000000 1.0
C      1  0.5564780000000  0.5360590000000  0.5302490000000 1.0
C      1  0.4294640000000  0.5794830000000  0.5647660000000 1.0
C      1  0.5630790000000  0.5706950000000  0.4443500000000 1.0
C      1  0.4378930000000  0.4216050000000  0.4333380000000 1.0
C      1  0.5625740000000  0.4307600000000  0.5554660000000 1.0
C      1  0.4625650000000  0.5724580000000  0.5166210000000 1.0
C      1  0.5258960000000  0.5853730000000  0.4933030000000 1.0
C      1  0.4653130000000  0.4304860000000  0.4851310000000 1.0
C      1  0.5271610000000  0.4154390000000  0.5070430000000 1.0
C      1  0.5143770000000  0.4638670000000  0.4336950000000 1.0
C      1  0.4872670000000  0.4793540000000  0.5715490000000 1.0
C      1  0.5218160000000  0.5330230000000  0.5629580000000 1.0
C      1  0.4872980000000  0.5237550000000  0.4284660000000 1.0
C      1  0.5327100000000  0.4877760000000  0.5055130000000 1.0
C      1  0.4678950000000  0.4872530000000  0.4981580000000 1.0
C      1  0.5334130000000  0.5134720000000  0.4930960000000 1.0
C      1  0.4684940000000  0.5159380000000  0.5040410000000 1.0
C      1  0.4802750000000  0.5060580000000  0.4051450000000 1.0
C      1  0.5309050000000  0.5172870000000  0.5850100000000 1.0
C      1  0.4806570000000  0.4996230000000  0.5930830000000 1.0
C      1  0.5278580000000  0.4837810000000  0.4140740000000 1.0
C      1  0.4623960000000  0.5500310000000  0.5886290000000 1.0
C      1  0.5339090000000  0.5365310000000  0.4192830000000 1.0
C      1  0.4695530000000  0.4557730000000  0.4128780000000 1.0
C      1  0.5337490000000  0.4650830000000  0.5809510000000 1.0
C      1  0.5003350000000  0.5214460000000  0.5474330000000 1.0
C      1  0.5019510000000  0.5083810000000  0.4501170000000 1.0
C      1  0.4972970000000  0.4805850000000  0.4531050000000 1.0
C      1  0.5017140000000  0.4929830000000  0.5487590000000 1.0
C      1  0.5019050000000  0.5991680000000  0.5344060000000 1.0
C      1  0.5026260000000  0.3997730000000  0.4675040000000 1.0
END
