TITL C-3623282-6910-1729 6.64264037754866e-08 125000 -25.0790098697787 0 0 5 (D(inf)h) n - 1
REM
REM in /home/nfs/bkarasulu/CARBON/AIRSS/Generating-Clusters/LCBOP/Higher-Symm/SD-CG/FIRE-CG
REM
REM
REM
REM
REM
REM ./C.cell (b20cbc046b6831c77cfcea5457e17084)
REM AIRSS Version 0.9.1 bugfix July 2018 build 013d7b7c2542+ Fri, 06 Jul 2018 19:26:36 +0100
REM compiler GCC version 9.2.1 20190827 (Red Hat 9.2.1-1)
REM options -cpp -mtune=generic -march=x86-64 -g -O0 -fpre-include=/usr/include/finclude/math-vector-fortran.h
REM seed -10925109 -1673117443 1691082773 915843927 -766852306 -430511968 916486867 974091466 1880614009 1116439860 1010547273 -1288229820 427688689 -1057370826 787871473 1754261357 2142687106 135409110 555393788 -519872152 -534360575 -1953325088 -1497968257 430861107 203440745 -1449406561 -1366709268 -731732141 98416383 -822358672 -149568181 -1220739071 1811162849
REM
CELL 1.54180   50.00000   50.00000   50.00000   90.00000   90.00000   90.00000
LATT -1
SFAC C  
C      1  0.4976080000000  0.4971990000000  0.5528020000000 1.0
C      1  0.4976080000000  0.4971990000000  0.4476490000000 1.0
C      1  0.4976080000000  0.4971990000000  0.4737190000000 1.0
C      1  0.4976080000000  0.4971990000000  0.5267320000000 1.0
C      1  0.4976080000000  0.4971990000000  0.5002260000000 1.0
END
