TITL C-3623284-6838-249 -3.58865726923674e-07 125000 -452.788354150921 0 0 79 (C3) n - 1
REM
REM in /home/nfs/bkarasulu/CARBON/AIRSS/Generating-Clusters/LCBOP/Higher-Symm/SD-CG/FIRE-CG
REM
REM
REM
REM
REM
REM ./C.cell (b20cbc046b6831c77cfcea5457e17084)
REM AIRSS Version 0.9.1 bugfix July 2018 build 013d7b7c2542+ Fri, 06 Jul 2018 19:26:36 +0100
REM compiler GCC version 9.2.1 20190827 (Red Hat 9.2.1-1)
REM options -cpp -mtune=generic -march=x86-64 -g -O0 -fpre-include=/usr/include/finclude/math-vector-fortran.h
REM seed 1261563168 1593584901 340004630 1043393627 -2066286572 -1187137412 196036631 783102487 -1876725244 -393774326 -941828945 329975228 945243049 1275266685 1765036663 -953854911 -1067051906 663617018 -1266808885 972993213 1690391169 152068458 1891698054 357606127 -1667216940 264151777 -67974602 1276284970 -1377457128 2058914167 319112191 -578813162 -422149395
REM
CELL 1.54180   50.00000   50.00000   50.00000   90.00000   90.00000   90.00000
LATT -1
SFAC C  
C      1  0.4714060000000  0.4358140000000  0.4529040000000 1.0
C      1  0.4713940000000  0.5736610000000  0.4669960000000 1.0
C      1  0.4713790000000  0.4925340000000  0.5793280000000 1.0
C      1  0.5469010000000  0.5122060000000  0.5740760000000 1.0
C      1  0.5469260000000  0.4305470000000  0.4725830000000 1.0
C      1  0.5469200000000  0.5592720000000  0.4526110000000 1.0
C      1  0.4566670000000  0.4486500000000  0.5661220000000 1.0
C      1  0.4566920000000  0.4691890000000  0.4215000000000 1.0
C      1  0.4566670000000  0.5841670000000  0.5115980000000 1.0
C      1  0.4100480000000  0.5243820000000  0.5599270000000 1.0
C      1  0.4100670000000  0.4366760000000  0.4901730000000 1.0
C      1  0.4100670000000  0.5409380000000  0.4490940000000 1.0
C      1  0.4815890000000  0.4848590000000  0.5307080000000 1.0
C      1  0.4816000000000  0.4817610000000  0.4705700000000 1.0
C      1  0.4815910000000  0.5353910000000  0.4979560000000 1.0
C      1  0.4302120000000  0.4708400000000  0.5176670000000 1.0
C      1  0.4302200000000  0.5000500000000  0.4649380000000 1.0
C      1  0.4302080000000  0.5311100000000  0.5166000000000 1.0
C      1  0.5315300000000  0.4993920000000  0.5280190000000 1.0
C      1  0.5315390000000  0.4768370000000  0.4845110000000 1.0
C      1  0.5315350000000  0.5257930000000  0.4867310000000 1.0
C      1  0.4511600000000  0.5691410000000  0.4881490000000 1.0
C      1  0.4511530000000  0.4764690000000  0.5648340000000 1.0
C      1  0.4511760000000  0.4563940000000  0.4462350000000 1.0
C      1  0.5643440000000  0.5508510000000  0.5118900000000 1.0
C      1  0.5643450000000  0.4650840000000  0.5371470000000 1.0
C      1  0.5643600000000  0.4860940000000  0.4502420000000 1.0
C      1  0.4997900000000  0.4186910000000  0.4873300000000 1.0
C      1  0.4997900000000  0.5524170000000  0.4349590000000 1.0
C      1  0.4997650000000  0.5309080000000  0.5769550000000 1.0
C      1  0.5811210000000  0.5217750000000  0.4785760000000 1.0
C      1  0.5811130000000  0.5084780000000  0.5286270000000 1.0
C      1  0.5811220000000  0.4717810000000  0.4920860000000 1.0
C      1  0.5193540000000  0.5691370000000  0.4493000000000 1.0
C      1  0.5193340000000  0.5101340000000  0.5842690000000 1.0
C      1  0.5193620000000  0.4227480000000  0.4656860000000 1.0
C      1  0.5209590000000  0.4860020000000  0.3870410000000 1.0
C      1  0.5209220000000  0.6056190000000  0.5434010000000 1.0
C      1  0.5209310000000  0.4103990000000  0.5688130000000 1.0
C      1  0.4766700000000  0.4615670000000  0.4900520000000 1.0
C      1  0.4766690000000  0.5286150000000  0.4707260000000 1.0
C      1  0.4766580000000  0.5118280000000  0.5384540000000 1.0
C      1  0.4345880000000  0.4866550000000  0.5414910000000 1.0
C      1  0.4346030000000  0.4715120000000  0.4667230000000 1.0
C      1  0.4345930000000  0.5438340000000  0.4909930000000 1.0
C      1  0.5379370000000  0.4745760000000  0.5423890000000 1.0
C      1  0.5379530000000  0.4768010000000  0.4558350000000 1.0
C      1  0.5379390000000  0.5506470000000  0.5010400000000 1.0
C      1  0.5072230000000  0.4334930000000  0.5636640000000 1.0
C      1  0.5072480000000  0.4789100000000  0.4096130000000 1.0
C      1  0.5072190000000  0.5896130000000  0.5259710000000 1.0
C      1  0.4918710000000  0.5063990000000  0.4630180000000 1.0
C      1  0.4918590000000  0.5296150000000  0.5230710000000 1.0
C      1  0.4918650000000  0.4660000000000  0.5131500000000 1.0
C      1  0.4758140000000  0.4341860000000  0.4819530000000 1.0
C      1  0.4758120000000  0.5493190000000  0.4510610000000 1.0
C      1  0.4757930000000  0.5185050000000  0.5662160000000 1.0
C      1  0.5181810000000  0.4600740000000  0.5034120000000 1.0
C      1  0.5181840000000  0.5178020000000  0.4627610000000 1.0
C      1  0.5181710000000  0.5241430000000  0.5330810000000 1.0
C      1  0.4995140000000  0.4284330000000  0.4431810000000 1.0
C      1  0.4994980000000  0.5857800000000  0.4654700000000 1.0
C      1  0.4994820000000  0.4878030000000  0.5905920000000 1.0
C      1  0.5211200000000  0.5715210000000  0.5093900000000 1.0
C      1  0.5211200000000  0.4569020000000  0.5562890000000 1.0
C      1  0.5211410000000  0.4735960000000  0.4335770000000 1.0
C      1  0.5677800000000  0.5423000000000  0.4606370000000 1.0
C      1  0.5677650000000  0.5137470000000  0.5553690000000 1.0
C      1  0.5677830000000  0.4459830000000  0.4832750000000 1.0
C      1  0.4791530000000  0.4340970000000  0.5655450000000 1.0
C      1  0.4791790000000  0.4769720000000  0.4091900000000 1.0
C      1  0.4791490000000  0.5909420000000  0.5244980000000 1.0
C      1  0.5809900000000  0.4803020000000  0.5199570000000 1.0
C      1  0.5809980000000  0.4933770000000  0.4720200000000 1.0
C      1  0.5809890000000  0.5283540000000  0.5073120000000 1.0
C      1  0.4251610000000  0.5281510000000  0.4682130000000 1.0
C      1  0.4251480000000  0.5142220000000  0.5392970000000 1.0
C      1  0.4251610000000  0.4596260000000  0.4916920000000 1.0
C      1  0.5365720000000  0.5006740000000  0.4997550000000 1.0
END
