TITL C-3623285-6872-106 0.00804243556365087 125000 -301.784780107105 0 0 52 (C1) n - 1
REM
REM in /home/nfs/bkarasulu/CARBON/AIRSS/Generating-Clusters/LCBOP/Higher-Symm/SD-CG/FIRE-CG
REM
REM
REM
REM
REM
REM ./C.cell (b20cbc046b6831c77cfcea5457e17084)
REM AIRSS Version 0.9.1 bugfix July 2018 build 013d7b7c2542+ Fri, 06 Jul 2018 19:26:36 +0100
REM compiler GCC version 9.2.1 20190827 (Red Hat 9.2.1-1)
REM options -cpp -mtune=generic -march=x86-64 -g -O0 -fpre-include=/usr/include/finclude/math-vector-fortran.h
REM seed -1199201137 -1460401042 -52724454 -179700324 1437204156 1462414139 -574678150 -923631695 1622933360 -1286755135 1977100637 -1233479130 2115674006 44879602 959809723 -1622896461 -1557687840 752301026 1107509766 467351233 -65306199 -299964241 -1585934326 -1130399322 -96967779 1683045524 -213018163 -1759843754 1186313123 -1380577786 855950721 -1781269063 112887904
REM
CELL 1.54180   50.00000   50.00000   50.00000   90.00000   90.00000   90.00000
LATT -1
SFAC C  
C      1  0.4767730000000  0.5130130000000  0.4464050000000 1.0
C      1  0.4675080000000  0.4832790000000  0.4471710000000 1.0
C      1  0.4847300000000  0.4582500000000  0.4452890000000 1.0
C      1  0.5459550000000  0.5032460000000  0.4489360000000 1.0
C      1  0.5265920000000  0.5247960000000  0.4454910000000 1.0
C      1  0.4568650000000  0.4808650000000  0.4745980000000 1.0
C      1  0.5011050000000  0.4504860000000  0.4688700000000 1.0
C      1  0.5502540000000  0.4910160000000  0.4744880000000 1.0
C      1  0.5249810000000  0.5386980000000  0.4707950000000 1.0
C      1  0.4697030000000  0.5295100000000  0.4715400000000 1.0
C      1  0.5143840000000  0.5182370000000  0.4870900000000 1.0
C      1  0.4861860000000  0.5171640000000  0.4935190000000 1.0
C      1  0.4804630000000  0.4886730000000  0.4885940000000 1.0
C      1  0.5040190000000  0.4756760000000  0.4813820000000 1.0
C      1  0.5258960000000  0.4910080000000  0.4918160000000 1.0
C      1  0.5013990000000  0.5685770000000  0.4988200000000 1.0
C      1  0.4337460000000  0.5234770000000  0.5016500000000 1.0
C      1  0.4569320000000  0.4464160000000  0.5061440000000 1.0
C      1  0.5379530000000  0.4427140000000  0.5017130000000 1.0
C      1  0.5687080000000  0.5215530000000  0.5041780000000 1.0
C      1  0.4768830000000  0.5374170000000  0.5478920000000 1.0
C      1  0.4577010000000  0.4903920000000  0.5527010000000 1.0
C      1  0.4979130000000  0.4560860000000  0.5535070000000 1.0
C      1  0.5411100000000  0.4839050000000  0.5499440000000 1.0
C      1  0.5284360000000  0.5339100000000  0.5500250000000 1.0
C      1  0.4870010000000  0.5232940000000  0.5724660000000 1.0
C      1  0.4757020000000  0.4954050000000  0.5753200000000 1.0
C      1  0.4991390000000  0.4754710000000  0.5757770000000 1.0
C      1  0.5244460000000  0.4918530000000  0.5733960000000 1.0
C      1  0.5170450000000  0.5210750000000  0.5733560000000 1.0
C      1  0.4904250000000  0.4318140000000  0.5405930000000 1.0
C      1  0.5631420000000  0.4689950000000  0.5398620000000 1.0
C      1  0.5474670000000  0.5509250000000  0.5383050000000 1.0
C      1  0.4676510000000  0.5612240000000  0.5348440000000 1.0
C      1  0.4320050000000  0.4919350000000  0.5410410000000 1.0
C      1  0.4767920000000  0.4919730000000  0.5309250000000 1.0
C      1  0.4990680000000  0.4747140000000  0.5310900000000 1.0
C      1  0.5243880000000  0.4899230000000  0.5238460000000 1.0
C      1  0.5156430000000  0.5185830000000  0.5293880000000 1.0
C      1  0.4857060000000  0.5196830000000  0.5240540000000 1.0
C      1  0.5081370000000  0.4339100000000  0.4926720000000 1.0
C      1  0.5698680000000  0.4917510000000  0.4959990000000 1.0
C      1  0.5298610000000  0.5586360000000  0.4916380000000 1.0
C      1  0.4521710000000  0.5449500000000  0.4893930000000 1.0
C      1  0.4411960000000  0.4710230000000  0.4967660000000 1.0
C      1  0.4717040000000  0.5631680000000  0.5058630000000 1.0
C      1  0.4305330000000  0.4949060000000  0.5121550000000 1.0
C      1  0.4839160000000  0.4329080000000  0.5120220000000 1.0
C      1  0.5631040000000  0.4655010000000  0.5112590000000 1.0
C      1  0.5522940000000  0.5472070000000  0.5097880000000 1.0
C      1  0.4996850000000  0.5246380000000  0.4045650000000 1.0
C      1  0.5011040000000  0.5208370000000  0.4317440000000 1.0
END
