TITL C-3623284-6838-2056 0.226038507172769 125000 -774.607677303614 0 0 130 (C1) n - 1
REM
REM in /home/nfs/bkarasulu/CARBON/AIRSS/Generating-Clusters/LCBOP/Higher-Symm/SD-CG/FIRE-CG
REM
REM
REM
REM
REM
REM ./C.cell (b20cbc046b6831c77cfcea5457e17084)
REM AIRSS Version 0.9.1 bugfix July 2018 build 013d7b7c2542+ Fri, 06 Jul 2018 19:26:36 +0100
REM compiler GCC version 9.2.1 20190827 (Red Hat 9.2.1-1)
REM options -cpp -mtune=generic -march=x86-64 -g -O0 -fpre-include=/usr/include/finclude/math-vector-fortran.h
REM seed -1961244202 1845276337 2134362130 90854912 575957247 -12488249 -707924417 -638088677 1020547637 1649818189 -262576424 308485968 -1998811027 -1593861357 835785951 -148587881 -1961128705 556969206 601797134 664794394 279390887 952003511 -985864265 -817534091 -1395911432 -1927602380 -1273234612 -796254850 458673912 254246760 647561230 -1562599633 -863164801
REM
CELL 1.54180   50.00000   50.00000   50.00000   90.00000   90.00000   90.00000
LATT -1
SFAC C  
C      1  0.5129010000000  0.4191420000000  0.4365510000000 1.0
C      1  0.4521350000000  0.4269000000000  0.5598780000000 1.0
C      1  0.4158890000000  0.4853530000000  0.4376390000000 1.0
C      1  0.4242540000000  0.5507700000000  0.5565300000000 1.0
C      1  0.4864050000000  0.5961470000000  0.4427570000000 1.0
C      1  0.5479370000000  0.5780760000000  0.5642640000000 1.0
C      1  0.5933310000000  0.5260210000000  0.4450650000000 1.0
C      1  0.5740630000000  0.4476420000000  0.5572600000000 1.0
C      1  0.5481230000000  0.4742160000000  0.5075740000000 1.0
C      1  0.5158470000000  0.4479770000000  0.4894650000000 1.0
C      1  0.4745650000000  0.4546630000000  0.5059420000000 1.0
C      1  0.4526500000000  0.4897370000000  0.4893090000000 1.0
C      1  0.4565040000000  0.5302380000000  0.5062590000000 1.0
C      1  0.4900320000000  0.5547900000000  0.4925210000000 1.0
C      1  0.5294800000000  0.5466410000000  0.5100250000000 1.0
C      1  0.5558530000000  0.5155260000000  0.4944640000000 1.0
C      1  0.4784670000000  0.5233530000000  0.3975150000000 1.0
C      1  0.4789620000000  0.5398970000000  0.5987540000000 1.0
C      1  0.5191410000000  0.5505000000000  0.4032640000000 1.0
C      1  0.5211500000000  0.5144490000000  0.5985540000000 1.0
C      1  0.5281570000000  0.5021380000000  0.4041820000000 1.0
C      1  0.5275560000000  0.4423210000000  0.5969520000000 1.0
C      1  0.4119970000000  0.3428100000000  0.4124980000000 1.0
C      1  0.4715710000000  0.4914800000000  0.5973640000000 1.0
C      1  0.5149770000000  0.5213310000000  0.4615610000000 1.0
C      1  0.5248230000000  0.5047320000000  0.5385130000000 1.0
C      1  0.5271900000000  0.4927950000000  0.4635460000000 1.0
C      1  0.5071860000000  0.4768890000000  0.5364580000000 1.0
C      1  0.4879170000000  0.4694650000000  0.4554670000000 1.0
C      1  0.4772600000000  0.4954090000000  0.5360010000000 1.0
C      1  0.4809950000000  0.5177410000000  0.4564120000000 1.0
C      1  0.4970870000000  0.5234150000000  0.5377090000000 1.0
C      1  0.4879960000000  0.4097560000000  0.5221480000000 1.0
C      1  0.4325770000000  0.4460000000000  0.4745980000000 1.0
C      1  0.4093980000000  0.5167460000000  0.5192140000000 1.0
C      1  0.4485580000000  0.5785510000000  0.4757450000000 1.0
C      1  0.5132930000000  0.5919720000000  0.5258280000000 1.0
C      1  0.5769940000000  0.5598700000000  0.4830870000000 1.0
C      1  0.5939380000000  0.4852490000000  0.5251320000000 1.0
C      1  0.5571490000000  0.4243220000000  0.4692550000000 1.0
C      1  0.5823650000000  0.4687080000000  0.4563960000000 1.0
C      1  0.5352330000000  0.4036360000000  0.5328310000000 1.0
C      1  0.4430870000000  0.3822410000000  0.4735630000000 1.0
C      1  0.4145170000000  0.4682490000000  0.5399230000000 1.0
C      1  0.4182360000000  0.5422740000000  0.4531960000000 1.0
C      1  0.4650860000000  0.5938130000000  0.5414890000000 1.0
C      1  0.5442570000000  0.5951020000000  0.4646450000000 1.0
C      1  0.5850090000000  0.5345230000000  0.5485360000000 1.0
C      1  0.5833390000000  0.4362660000000  0.5056970000000 1.0
C      1  0.5106900000000  0.3953260000000  0.4841860000000 1.0
C      1  0.4361850000000  0.4150670000000  0.5113550000000 1.0
C      1  0.3981390000000  0.4870050000000  0.4861340000000 1.0
C      1  0.4165730000000  0.5668330000000  0.5068700000000 1.0
C      1  0.4872560000000  0.6113400000000  0.4925520000000 1.0
C      1  0.5655680000000  0.5894960000000  0.5171830000000 1.0
C      1  0.6063480000000  0.5181490000000  0.4949590000000 1.0
C      1  0.5642810000000  0.4164210000000  0.4952000000000 1.0
C      1  0.4844840000000  0.3965710000000  0.4975840000000 1.0
C      1  0.4225090000000  0.4387380000000  0.5000350000000 1.0
C      1  0.4004320000000  0.5153110000000  0.4927360000000 1.0
C      1  0.4380310000000  0.5853420000000  0.5006150000000 1.0
C      1  0.5142980000000  0.6068060000000  0.5022300000000 1.0
C      1  0.5823190000000  0.5667900000000  0.5097500000000 1.0
C      1  0.6029150000000  0.4892030000000  0.4987820000000 1.0
C      1  0.5469910000000  0.4908050000000  0.4843530000000 1.0
C      1  0.5233050000000  0.4622890000000  0.5130730000000 1.0
C      1  0.4887470000000  0.4543410000000  0.4809510000000 1.0
C      1  0.4645310000000  0.4802900000000  0.5130420000000 1.0
C      1  0.4612340000000  0.5160230000000  0.4821350000000 1.0
C      1  0.4804210000000  0.5413140000000  0.5158500000000 1.0
C      1  0.5148010000000  0.5437610000000  0.4855140000000 1.0
C      1  0.5413340000000  0.5221930000000  0.5180760000000 1.0
C      1  0.4847400000000  0.6135690000000  0.4641010000000 1.0
C      1  0.5616130000000  0.5927640000000  0.5453440000000 1.0
C      1  0.6100290000000  0.5252380000000  0.4672350000000 1.0
C      1  0.5856060000000  0.4364500000000  0.5345420000000 1.0
C      1  0.5109680000000  0.3994430000000  0.4558240000000 1.0
C      1  0.4375780000000  0.4141690000000  0.5402560000000 1.0
C      1  0.3973490000000  0.4821860000000  0.4578870000000 1.0
C      1  0.4119340000000  0.5636060000000  0.5351830000000 1.0
C      1  0.5937130000000  0.5411740000000  0.5210260000000 1.0
C      1  0.5926310000000  0.4645440000000  0.4839940000000 1.0
C      1  0.5396460000000  0.4023050000000  0.5049960000000 1.0
C      1  0.4547350000000  0.3977990000000  0.4938570000000 1.0
C      1  0.4090910000000  0.4629370000000  0.5114150000000 1.0
C      1  0.4088530000000  0.5417430000000  0.4811560000000 1.0
C      1  0.4605780000000  0.5995910000000  0.5138700000000 1.0
C      1  0.5418820000000  0.6012670000000  0.4924590000000 1.0
C      1  0.4718050000000  0.4903920000000  0.4436150000000 1.0
C      1  0.4573680000000  0.5050910000000  0.5566900000000 1.0
C      1  0.4765290000000  0.5416800000000  0.4382930000000 1.0
C      1  0.5036440000000  0.5443830000000  0.5600460000000 1.0
C      1  0.5377160000000  0.5347400000000  0.4424510000000 1.0
C      1  0.5426890000000  0.4947430000000  0.5615160000000 1.0
C      1  0.5149300000000  0.4719870000000  0.4466410000000 1.0
C      1  0.5003270000000  0.4559990000000  0.5588740000000 1.0
C      1  0.4589400000000  0.5348750000000  0.4166730000000 1.0
C      1  0.4826580000000  0.5558240000000  0.5755850000000 1.0
C      1  0.5319400000000  0.5580630000000  0.4274770000000 1.0
C      1  0.5456750000000  0.5145310000000  0.5818820000000 1.0
C      1  0.5498370000000  0.4890090000000  0.4160900000000 1.0
C      1  0.5201320000000  0.4390680000000  0.5708550000000 1.0
C      1  0.4222140000000  0.3557590000000  0.4326880000000 1.0
C      1  0.4505100000000  0.4863320000000  0.5770980000000 1.0
C      1  0.5239590000000  0.4450590000000  0.4427670000000 1.0
C      1  0.4753550000000  0.4422640000000  0.5533400000000 1.0
C      1  0.4437280000000  0.4829640000000  0.4436650000000 1.0
C      1  0.4409450000000  0.5278420000000  0.5513820000000 1.0
C      1  0.4824300000000  0.5680060000000  0.4465610000000 1.0
C      1  0.5271330000000  0.5601570000000  0.5561840000000 1.0
C      1  0.5651280000000  0.5299270000000  0.4493370000000 1.0
C      1  0.5599270000000  0.4727130000000  0.5547980000000 1.0
C      1  0.5385640000000  0.5821860000000  0.4413630000000 1.0
C      1  0.5690600000000  0.5299600000000  0.5711690000000 1.0
C      1  0.5681190000000  0.4776980000000  0.4340720000000 1.0
C      1  0.5296950000000  0.4173930000000  0.5551930000000 1.0
C      1  0.4326030000000  0.3689260000000  0.4532120000000 1.0
C      1  0.4278830000000  0.4719930000000  0.5642040000000 1.0
C      1  0.4321830000000  0.5380640000000  0.4293140000000 1.0
C      1  0.4702760000000  0.5784600000000  0.5633400000000 1.0
C      1  0.4423920000000  0.4716730000000  0.4703090000000 1.0
C      1  0.4356480000000  0.5241780000000  0.5236080000000 1.0
C      1  0.4737000000000  0.5672030000000  0.4737500000000 1.0
C      1  0.5241690000000  0.5667360000000  0.5284950000000 1.0
C      1  0.5650900000000  0.5355510000000  0.4773280000000 1.0
C      1  0.5670210000000  0.4791250000000  0.5278500000000 1.0
C      1  0.5344690000000  0.4400390000000  0.4688640000000 1.0
C      1  0.4791480000000  0.4356470000000  0.5256870000000 1.0
C      1  0.5082940000000  0.5237610000000  0.3986590000000 1.0
C      1  0.4912450000000  0.5135490000000  0.6012270000000 1.0
END
