TITL C-3623287-7182-506 0.274218697674074 125000 -639.95201852979 0 0 104 (C1) n - 1
REM
REM in /home/nfs/bkarasulu/CARBON/AIRSS/Generating-Clusters/LCBOP/Higher-Symm/SD-CG/FIRE-CG
REM
REM
REM
REM
REM
REM ./C.cell (b20cbc046b6831c77cfcea5457e17084)
REM AIRSS Version 0.9.1 bugfix July 2018 build 013d7b7c2542+ Fri, 06 Jul 2018 19:26:36 +0100
REM compiler GCC version 9.2.1 20190827 (Red Hat 9.2.1-1)
REM options -cpp -mtune=generic -march=x86-64 -g -O0 -fpre-include=/usr/include/finclude/math-vector-fortran.h
REM seed 39896154 1239874354 351366900 1080883095 1234575056 1948641761 -518931511 -349394141 1422489085 -1487924352 1548011754 -406465014 2110335440 -1038326210 1603180893 2039789837 1469241658 -946584423 2079483191 1962844820 275631515 -156720881 160192191 -1910674892 -1752309024 922538774 876940107 -2058032344 -205591551 500014801 874817523 -769139539 -813591066
REM
CELL 1.54180   50.00000   50.00000   50.00000   90.00000   90.00000   90.00000
LATT -1
SFAC C  
C      1  0.5511370000000  0.4683280000000  0.5091850000000 1.0
C      1  0.5488360000000  0.4529200000000  0.5306230000000 1.0
C      1  0.5453280000000  0.4692260000000  0.4833750000000 1.0
C      1  0.5449330000000  0.4259460000000  0.5373390000000 1.0
C      1  0.5572570000000  0.5261860000000  0.4797010000000 1.0
C      1  0.5520820000000  0.5259700000000  0.5077870000000 1.0
C      1  0.6160130000000  0.4745410000000  0.5654280000000 1.0
C      1  0.6300350000000  0.4614310000000  0.4567050000000 1.0
C      1  0.4175350000000  0.6132890000000  0.5348280000000 1.0
C      1  0.3909420000000  0.6166480000000  0.4723100000000 1.0
C      1  0.4977960000000  0.4759490000000  0.4097170000000 1.0
C      1  0.4594410000000  0.4375600000000  0.5772030000000 1.0
C      1  0.6235840000000  0.4845520000000  0.4718570000000 1.0
C      1  0.6135510000000  0.4926400000000  0.5436890000000 1.0
C      1  0.5145270000000  0.5085300000000  0.5767960000000 1.0
C      1  0.4873680000000  0.5014310000000  0.4152010000000 1.0
C      1  0.3925760000000  0.6175200000000  0.5232100000000 1.0
C      1  0.3820890000000  0.6175220000000  0.4986540000000 1.0
C      1  0.5914390000000  0.5095570000000  0.5404860000000 1.0
C      1  0.6027750000000  0.5018620000000  0.4646790000000 1.0
C      1  0.4019040000000  0.6024850000000  0.4288030000000 1.0
C      1  0.4545280000000  0.5873130000000  0.5487070000000 1.0
C      1  0.4150920000000  0.6274700000000  0.4348890000000 1.0
C      1  0.4633780000000  0.6121460000000  0.5367110000000 1.0
C      1  0.6492390000000  0.4624800000000  0.4372300000000 1.0
C      1  0.6300830000000  0.4816420000000  0.5878180000000 1.0
C      1  0.3955170000000  0.4599250000000  0.4421810000000 1.0
C      1  0.4111080000000  0.4677780000000  0.5635860000000 1.0
C      1  0.5138400000000  0.5258770000000  0.4486390000000 1.0
C      1  0.5021140000000  0.5196050000000  0.5305690000000 1.0
C      1  0.5255920000000  0.5260970000000  0.5169070000000 1.0
C      1  0.5362000000000  0.5311520000000  0.4619080000000 1.0
C      1  0.5186640000000  0.4174400000000  0.5406380000000 1.0
C      1  0.5309390000000  0.4603080000000  0.4631400000000 1.0
C      1  0.5141360000000  0.5110450000000  0.6038700000000 1.0
C      1  0.4724500000000  0.5154720000000  0.3962780000000 1.0
C      1  0.4542570000000  0.5240570000000  0.4772400000000 1.0
C      1  0.4589190000000  0.5240220000000  0.5054800000000 1.0
C      1  0.4839410000000  0.4150250000000  0.4733510000000 1.0
C      1  0.4784390000000  0.4114770000000  0.4997110000000 1.0
C      1  0.4261560000000  0.5154450000000  0.4710660000000 1.0
C      1  0.4348740000000  0.5158210000000  0.5209000000000 1.0
C      1  0.5565530000000  0.4303920000000  0.4111820000000 1.0
C      1  0.5319560000000  0.4450300000000  0.5942240000000 1.0
C      1  0.5678300000000  0.4100110000000  0.5369350000000 1.0
C      1  0.5880770000000  0.3871410000000  0.4875020000000 1.0
C      1  0.5938860000000  0.4146140000000  0.5276410000000 1.0
C      1  0.6001030000000  0.4081950000000  0.5001830000000 1.0
C      1  0.4704300000000  0.5658730000000  0.5560920000000 1.0
C      1  0.4060300000000  0.5867610000000  0.4064670000000 1.0
C      1  0.6163940000000  0.4369270000000  0.4622600000000 1.0
C      1  0.6039270000000  0.4486630000000  0.5636070000000 1.0
C      1  0.5827490000000  0.4430290000000  0.5811870000000 1.0
C      1  0.5982070000000  0.4274010000000  0.4431290000000 1.0
C      1  0.4347390000000  0.5495080000000  0.3839430000000 1.0
C      1  0.4853190000000  0.5476490000000  0.5987500000000 1.0
C      1  0.3878650000000  0.5461070000000  0.4730830000000 1.0
C      1  0.3997820000000  0.5461030000000  0.5328430000000 1.0
C      1  0.4540500000000  0.5314190000000  0.3857860000000 1.0
C      1  0.4992310000000  0.5308910000000  0.6150340000000 1.0
C      1  0.6122740000000  0.4306880000000  0.5430720000000 1.0
C      1  0.6203600000000  0.4239280000000  0.4872140000000 1.0
C      1  0.4188820000000  0.4712780000000  0.5376770000000 1.0
C      1  0.4082630000000  0.4680500000000  0.4648920000000 1.0
C      1  0.6419300000000  0.4302930000000  0.5045610000000 1.0
C      1  0.6380740000000  0.4327670000000  0.5313250000000 1.0
C      1  0.4802330000000  0.5078600000000  0.5174560000000 1.0
C      1  0.4709790000000  0.5067670000000  0.4607980000000 1.0
C      1  0.4407490000000  0.6444560000000  0.5038680000000 1.0
C      1  0.4290670000000  0.6475630000000  0.4799830000000 1.0
C      1  0.5091390000000  0.4504180000000  0.4486880000000 1.0
C      1  0.4928810000000  0.4286930000000  0.5428390000000 1.0
C      1  0.4905830000000  0.5121550000000  0.4415290000000 1.0
C      1  0.5003570000000  0.5250970000000  0.5583420000000 1.0
C      1  0.5318670000000  0.4399860000000  0.4078850000000 1.0
C      1  0.5064600000000  0.4436920000000  0.5865610000000 1.0
C      1  0.4014500000000  0.4578630000000  0.4901360000000 1.0
C      1  0.4054220000000  0.4587900000000  0.5164400000000 1.0
C      1  0.5727050000000  0.5221140000000  0.5263930000000 1.0
C      1  0.5818850000000  0.5175460000000  0.4695250000000 1.0
C      1  0.4105770000000  0.5286600000000  0.5139670000000 1.0
C      1  0.4056910000000  0.5287740000000  0.4856930000000 1.0
C      1  0.4710940000000  0.4604710000000  0.4778860000000 1.0
C      1  0.4722590000000  0.4587010000000  0.5071950000000 1.0
C      1  0.3879040000000  0.5950440000000  0.4532630000000 1.0
C      1  0.4254110000000  0.5884350000000  0.5473860000000 1.0
C      1  0.4574660000000  0.4808500000000  0.4639330000000 1.0
C      1  0.4669810000000  0.4819220000000  0.5226100000000 1.0
C      1  0.4080890000000  0.5666740000000  0.5476870000000 1.0
C      1  0.3818070000000  0.5689970000000  0.4609240000000 1.0
C      1  0.5585000000000  0.4439170000000  0.5921790000000 1.0
C      1  0.5790690000000  0.4260080000000  0.4247070000000 1.0
C      1  0.4787420000000  0.4329070000000  0.5185830000000 1.0
C      1  0.4867000000000  0.4412790000000  0.4631760000000 1.0
C      1  0.4396040000000  0.4889800000000  0.5305740000000 1.0
C      1  0.4289660000000  0.4871250000000  0.4642260000000 1.0
C      1  0.6358650000000  0.4888980000000  0.4966410000000 1.0
C      1  0.6321740000000  0.4918790000000  0.5227850000000 1.0
C      1  0.4113400000000  0.6352810000000  0.4623500000000 1.0
C      1  0.4415160000000  0.6276340000000  0.5260520000000 1.0
C      1  0.4854210000000  0.4372610000000  0.5689250000000 1.0
C      1  0.5109110000000  0.4537070000000  0.4205020000000 1.0
C      1  0.4848740000000  0.5466310000000  0.5701920000000 1.0
C      1  0.4177400000000  0.5685600000000  0.3911400000000 1.0
END
