TITL C-3623283-6828-768 5.34351489587563e-07 125000 -84.0728911122011 0 0 16 (D3h) n - 1
REM
REM in /home/nfs/bkarasulu/CARBON/AIRSS/Generating-Clusters/LCBOP/Higher-Symm/SD-CG/FIRE-CG
REM
REM
REM
REM
REM
REM ./C.cell (b20cbc046b6831c77cfcea5457e17084)
REM AIRSS Version 0.9.1 bugfix July 2018 build 013d7b7c2542+ Fri, 06 Jul 2018 19:26:36 +0100
REM compiler GCC version 9.2.1 20190827 (Red Hat 9.2.1-1)
REM options -cpp -mtune=generic -march=x86-64 -g -O0 -fpre-include=/usr/include/finclude/math-vector-fortran.h
REM seed -1999374782 895943423 589991002 -95717336 2103610767 -1490816866 -1250864901 2058907175 -1839132112 -274094163 -1595448107 -1822609972 -2087125706 170481374 292281571 485020121 386967258 -1957737570 845652519 -321427446 -564393213 1499726471 -608923842 -1985827123 -1931881998 743697593 1856183492 -1010888532 1484447103 1112880826 1525042052 -109764826 -123486974
REM
CELL 1.54180   50.00000   50.00000   50.00000   90.00000   90.00000   90.00000
LATT -1
SFAC C  
C      1  0.4617850000000  0.5197300000000  0.4796670000000 1.0
C      1  0.5349660000000  0.5197300000000  0.4796670000000 1.0
C      1  0.4983760000000  0.5197300000000  0.5430440000000 1.0
C      1  0.5349660000000  0.4712530000000  0.4796670000000 1.0
C      1  0.4617850000000  0.4712530000000  0.4796670000000 1.0
C      1  0.4983760000000  0.4712530000000  0.5430440000000 1.0
C      1  0.5451290000000  0.4479840000000  0.4738000000000 1.0
C      1  0.4983760000000  0.4479840000000  0.5547780000000 1.0
C      1  0.4516230000000  0.4479840000000  0.4738000000000 1.0
C      1  0.4516230000000  0.5429990000000  0.4738000000000 1.0
C      1  0.4983760000000  0.5429990000000  0.5547780000000 1.0
C      1  0.5451290000000  0.5429990000000  0.4738000000000 1.0
C      1  0.4983760000000  0.4954910000000  0.5291800000000 1.0
C      1  0.5229600000000  0.4954910000000  0.4865990000000 1.0
C      1  0.4737910000000  0.4954910000000  0.4865990000000 1.0
C      1  0.4983760000000  0.4954910000000  0.5007930000000 1.0
END
