TITL C-3623282-6910-1573 3.77747858910332e-07 125000 -503.353353862927 0 0 84 (C1) n - 1
REM
REM in /home/nfs/bkarasulu/CARBON/AIRSS/Generating-Clusters/LCBOP/Higher-Symm/SD-CG/FIRE-CG
REM
REM
REM
REM
REM
REM ./C.cell (b20cbc046b6831c77cfcea5457e17084)
REM AIRSS Version 0.9.1 bugfix July 2018 build 013d7b7c2542+ Fri, 06 Jul 2018 19:26:36 +0100
REM compiler GCC version 9.2.1 20190827 (Red Hat 9.2.1-1)
REM options -cpp -mtune=generic -march=x86-64 -g -O0 -fpre-include=/usr/include/finclude/math-vector-fortran.h
REM seed -331933376 -877662296 -1513563391 874112408 -1591120950 1405640175 -2147137216 -1593686522 -998872709 -1932056539 431364797 343219897 1812273097 -1822110445 1911413611 2138720049 1818041140 -2094040918 1476055952 -420908751 -540555298 1021629598 2051978650 1870607135 353264927 1815812830 530503361 -833640678 -457251731 -1888736424 1818830226 -716369559 -1643423376
REM
CELL 1.54180   50.00000   50.00000   50.00000   90.00000   90.00000   90.00000
LATT -1
SFAC C  
C      1  0.4769140000000  0.4941530000000  0.5143970000000 1.0
C      1  0.5173310000000  0.5135100000000  0.4758110000000 1.0
C      1  0.4454630000000  0.5846980000000  0.5588370000000 1.0
C      1  0.5296990000000  0.4157880000000  0.4674480000000 1.0
C      1  0.5287710000000  0.4142620000000  0.5039350000000 1.0
C      1  0.4791400000000  0.5899150000000  0.4989800000000 1.0
C      1  0.4458990000000  0.4560390000000  0.5293720000000 1.0
C      1  0.5634580000000  0.5410720000000  0.4721790000000 1.0
C      1  0.5853000000000  0.4693670000000  0.4541760000000 1.0
C      1  0.4241050000000  0.5267840000000  0.5491640000000 1.0
C      1  0.4866990000000  0.4393430000000  0.5044010000000 1.0
C      1  0.5267560000000  0.5728430000000  0.4879900000000 1.0
C      1  0.5397000000000  0.4673880000000  0.4149860000000 1.0
C      1  0.4515070000000  0.5217710000000  0.5958420000000 1.0
C      1  0.4728740000000  0.5425080000000  0.5058210000000 1.0
C      1  0.5256090000000  0.4649600000000  0.4870670000000 1.0
C      1  0.5505120000000  0.5574180000000  0.4927950000000 1.0
C      1  0.4576140000000  0.4421630000000  0.5067180000000 1.0
C      1  0.5423200000000  0.5123070000000  0.5250310000000 1.0
C      1  0.4580880000000  0.4858660000000  0.4708960000000 1.0
C      1  0.4950770000000  0.5276600000000  0.5454080000000 1.0
C      1  0.4941190000000  0.4913340000000  0.4335240000000 1.0
C      1  0.5590630000000  0.4898910000000  0.5294180000000 1.0
C      1  0.4425830000000  0.5098780000000  0.4698580000000 1.0
C      1  0.4412070000000  0.4776820000000  0.5489420000000 1.0
C      1  0.5717000000000  0.5192570000000  0.4544710000000 1.0
C      1  0.4239760000000  0.4991390000000  0.5404460000000 1.0
C      1  0.5882230000000  0.4971230000000  0.4638020000000 1.0
C      1  0.4350290000000  0.5778530000000  0.4835800000000 1.0
C      1  0.5749850000000  0.4266260000000  0.5261950000000 1.0
C      1  0.5700200000000  0.4827390000000  0.5047660000000 1.0
C      1  0.4315060000000  0.5152650000000  0.4952950000000 1.0
C      1  0.4968450000000  0.5095900000000  0.5876280000000 1.0
C      1  0.4787320000000  0.4708160000000  0.3923760000000 1.0
C      1  0.4859550000000  0.5586430000000  0.4326960000000 1.0
C      1  0.5272140000000  0.4388390000000  0.5611520000000 1.0
C      1  0.5295350000000  0.4444540000000  0.4243440000000 1.0
C      1  0.4469500000000  0.5482160000000  0.5951340000000 1.0
C      1  0.5001880000000  0.5808630000000  0.4811770000000 1.0
C      1  0.5060390000000  0.4237310000000  0.5190030000000 1.0
C      1  0.4512770000000  0.5854260000000  0.5062390000000 1.0
C      1  0.5578060000000  0.4180180000000  0.5060330000000 1.0
C      1  0.5628390000000  0.4697440000000  0.5490490000000 1.0
C      1  0.4446470000000  0.5343230000000  0.4543410000000 1.0
C      1  0.4998700000000  0.5603210000000  0.4086140000000 1.0
C      1  0.4701440000000  0.4519770000000  0.5765960000000 1.0
C      1  0.4651670000000  0.5399420000000  0.4360950000000 1.0
C      1  0.5419010000000  0.4608210000000  0.5652780000000 1.0
C      1  0.5140430000000  0.5599550000000  0.3867470000000 1.0
C      1  0.4813990000000  0.4317340000000  0.5627380000000 1.0
C      1  0.4456980000000  0.5357330000000  0.5086590000000 1.0
C      1  0.5534950000000  0.4668910000000  0.4878570000000 1.0
C      1  0.5232150000000  0.4262730000000  0.4429950000000 1.0
C      1  0.4466300000000  0.5718790000000  0.5825190000000 1.0
C      1  0.5586520000000  0.5134680000000  0.4300210000000 1.0
C      1  0.4587330000000  0.4776940000000  0.5724490000000 1.0
C      1  0.4416490000000  0.5753770000000  0.5325680000000 1.0
C      1  0.5626310000000  0.4239250000000  0.4768620000000 1.0
C      1  0.5100790000000  0.5273420000000  0.5693420000000 1.0
C      1  0.4778080000000  0.4726840000000  0.4196310000000 1.0
C      1  0.4170120000000  0.4981940000000  0.5124870000000 1.0
C      1  0.5910270000000  0.4964060000000  0.4920680000000 1.0
C      1  0.5360740000000  0.5380070000000  0.5645100000000 1.0
C      1  0.4597660000000  0.4565900000000  0.4346260000000 1.0
C      1  0.5691360000000  0.4507000000000  0.4693300000000 1.0
C      1  0.4337530000000  0.5474100000000  0.5316510000000 1.0
C      1  0.4861350000000  0.5025470000000  0.5374720000000 1.0
C      1  0.5071290000000  0.5054620000000  0.4522970000000 1.0
C      1  0.5477410000000  0.5368710000000  0.5382840000000 1.0
C      1  0.4502670000000  0.4604080000000  0.4608260000000 1.0
C      1  0.4240690000000  0.4221050000000  0.4767900000000 1.0
C      1  0.5777320000000  0.5745130000000  0.5299180000000 1.0
C      1  0.5267270000000  0.5133430000000  0.5010480000000 1.0
C      1  0.4797560000000  0.4833070000000  0.4892660000000 1.0
C      1  0.4433860000000  0.4410100000000  0.4811640000000 1.0
C      1  0.5590520000000  0.5566820000000  0.5207700000000 1.0
C      1  0.5051460000000  0.4278390000000  0.5477980000000 1.0
C      1  0.4927110000000  0.5750890000000  0.4544950000000 1.0
C      1  0.5488670000000  0.4925260000000  0.4163180000000 1.0
C      1  0.4688960000000  0.5011750000000  0.5869670000000 1.0
C      1  0.4323050000000  0.5580090000000  0.4653000000000 1.0
C      1  0.5801400000000  0.4482480000000  0.5414740000000 1.0
C      1  0.4980180000000  0.4614370000000  0.4897470000000 1.0
C      1  0.4907690000000  0.5468410000000  0.5256980000000 1.0
END
