TITL C-3623284-6838-1888 -9.7621221324609e-08 125000 -123.579925861292 0 0 20 (Ih) n - 1
REM
REM in /home/nfs/bkarasulu/CARBON/AIRSS/Generating-Clusters/LCBOP/Higher-Symm/SD-CG/FIRE-CG
REM
REM
REM
REM
REM
REM ./C.cell (b20cbc046b6831c77cfcea5457e17084)
REM AIRSS Version 0.9.1 bugfix July 2018 build 013d7b7c2542+ Fri, 06 Jul 2018 19:26:36 +0100
REM compiler GCC version 9.2.1 20190827 (Red Hat 9.2.1-1)
REM options -cpp -mtune=generic -march=x86-64 -g -O0 -fpre-include=/usr/include/finclude/math-vector-fortran.h
REM seed 1743719997 1536907969 778272628 -1089257167 -169172215 -59103921 -496920637 -857832893 -1166253483 -1600938878 -366232487 1226990732 -1083891658 -1411302096 -2001828606 -981285055 33622378 1036641615 1147245286 288266850 -1914447589 2038436938 -786947195 226048289 371831262 885477753 809848749 1839269471 -111152298 -26851050 199338331 -607458964 2009129813
REM
CELL 1.54180   50.00000   50.00000   50.00000   90.00000   90.00000   90.00000
LATT -1
SFAC C  
C      1  0.5266550000000  0.5309980000000  0.4921920000000 1.0
C      1  0.5377180000000  0.4842280000000  0.4921920000000 1.0
C      1  0.4966560000000  0.4592550000000  0.4921920000000 1.0
C      1  0.4602150000000  0.4905900000000  0.4921920000000 1.0
C      1  0.4787560000000  0.5349290000000  0.4921920000000 1.0
C      1  0.4754120000000  0.4941840000000  0.4669250000000 1.0
C      1  0.4868700000000  0.5215880000000  0.4669250000000 1.0
C      1  0.5164740000000  0.5191580000000  0.4669250000000 1.0
C      1  0.5233110000000  0.4902530000000  0.4669250000000 1.0
C      1  0.4979330000000  0.4748180000000  0.4669250000000 1.0
C      1  0.4733450000000  0.4690020000000  0.5078080000000 1.0
C      1  0.4622820000000  0.5157720000000  0.5078080000000 1.0
C      1  0.5033440000000  0.5407450000000  0.5078080000000 1.0
C      1  0.5397850000000  0.5094100000000  0.5078080000000 1.0
C      1  0.5212440000000  0.4650710000000  0.5078080000000 1.0
C      1  0.5131300000000  0.4784120000000  0.5330750000000 1.0
C      1  0.4835260000000  0.4808420000000  0.5330750000000 1.0
C      1  0.4766890000000  0.5097470000000  0.5330750000000 1.0
C      1  0.5020670000000  0.5251820000000  0.5330750000000 1.0
C      1  0.5245880000000  0.5058160000000  0.5330750000000 1.0
END
