TITL C-3623284-6838-1250 -1.24796021566938e-05 125000 -364.941396609599 0 0 60 (C1) n - 1
REM
REM in /home/nfs/bkarasulu/CARBON/AIRSS/Generating-Clusters/LCBOP/Higher-Symm/SD-CG/FIRE-CG
REM
REM
REM
REM
REM
REM ./C.cell (b20cbc046b6831c77cfcea5457e17084)
REM AIRSS Version 0.9.1 bugfix July 2018 build 013d7b7c2542+ Fri, 06 Jul 2018 19:26:36 +0100
REM compiler GCC version 9.2.1 20190827 (Red Hat 9.2.1-1)
REM options -cpp -mtune=generic -march=x86-64 -g -O0 -fpre-include=/usr/include/finclude/math-vector-fortran.h
REM seed 393637643 1282568167 -2058619687 1190259415 -778608023 -1663738991 1316784875 541853459 1888724380 1189162515 1196964693 2008354440 876727520 1347442984 501559748 356713315 -1837013584 1193934486 -1572243453 -521341101 -1020228607 1681067639 994029012 1565036979 -30155529 1395763443 1682291890 -801559745 -1379513310 567697874 -1732587450 405271217 -2107588729
REM
CELL 1.54180   50.00000   50.00000   50.00000   90.00000   90.00000   90.00000
LATT -1
SFAC C  
C      1  0.3954760000000  0.5368730000000  0.5349300000000 1.0
C      1  0.5546900000000  0.5366350000000  0.5142680000000 1.0
C      1  0.5438490000000  0.3927730000000  0.5137900000000 1.0
C      1  0.3955550000000  0.4852900000000  0.4814890000000 1.0
C      1  0.5561410000000  0.4622820000000  0.4919570000000 1.0
C      1  0.5143060000000  0.5637210000000  0.4793700000000 1.0
C      1  0.5254870000000  0.5005350000000  0.5649340000000 1.0
C      1  0.4791680000000  0.4505570000000  0.5225190000000 1.0
C      1  0.4857550000000  0.5323470000000  0.5467920000000 1.0
C      1  0.5269940000000  0.5025320000000  0.4399460000000 1.0
C      1  0.4662900000000  0.5292090000000  0.4422110000000 1.0
C      1  0.4864730000000  0.4667700000000  0.4631540000000 1.0
C      1  0.5028510000000  0.5763300000000  0.4572010000000 1.0
C      1  0.5717580000000  0.4670960000000  0.4690570000000 1.0
C      1  0.4104630000000  0.4743270000000  0.4621670000000 1.0
C      1  0.5213240000000  0.3897290000000  0.5280760000000 1.0
C      1  0.5698450000000  0.5332190000000  0.5375530000000 1.0
C      1  0.4115080000000  0.5413620000000  0.5559080000000 1.0
C      1  0.5306420000000  0.5236180000000  0.4580860000000 1.0
C      1  0.5114240000000  0.4592210000000  0.4733320000000 1.0
C      1  0.4638150000000  0.5260060000000  0.4701510000000 1.0
C      1  0.5244510000000  0.4836780000000  0.5423120000000 1.0
C      1  0.5087250000000  0.5415100000000  0.5338440000000 1.0
C      1  0.4707920000000  0.4770050000000  0.5177470000000 1.0
C      1  0.5446590000000  0.5160760000000  0.5755820000000 1.0
C      1  0.4848470000000  0.4257370000000  0.5301290000000 1.0
C      1  0.4625500000000  0.5343190000000  0.5596170000000 1.0
C      1  0.5447600000000  0.4841630000000  0.4313950000000 1.0
C      1  0.4752990000000  0.5494810000000  0.4270270000000 1.0
C      1  0.4613030000000  0.4659300000000  0.4545730000000 1.0
C      1  0.4347820000000  0.4677780000000  0.4534510000000 1.0
C      1  0.4897810000000  0.5708720000000  0.4344650000000 1.0
C      1  0.5657950000000  0.4724610000000  0.4433960000000 1.0
C      1  0.4368130000000  0.5393660000000  0.5640870000000 1.0
C      1  0.4989630000000  0.4033830000000  0.5333190000000 1.0
C      1  0.5654090000000  0.5281770000000  0.5635150000000 1.0
C      1  0.5132930000000  0.5325570000000  0.4824170000000 1.0
C      1  0.5291030000000  0.4733750000000  0.4922020000000 1.0
C      1  0.4861430000000  0.5175490000000  0.4855760000000 1.0
C      1  0.5186920000000  0.4937300000000  0.5139640000000 1.0
C      1  0.5262150000000  0.5249840000000  0.5117090000000 1.0
C      1  0.4884300000000  0.4960720000000  0.5057910000000 1.0
C      1  0.5264430000000  0.5859870000000  0.5205040000000 1.0
C      1  0.5554410000000  0.4427150000000  0.5354280000000 1.0
C      1  0.4183990000000  0.4846400000000  0.5233680000000 1.0
C      1  0.5389840000000  0.4154910000000  0.4716200000000 1.0
C      1  0.5697280000000  0.5529230000000  0.4713640000000 1.0
C      1  0.4164340000000  0.5396590000000  0.4916890000000 1.0
C      1  0.4001120000000  0.4975500000000  0.5063470000000 1.0
C      1  0.5350090000000  0.5757660000000  0.4956950000000 1.0
C      1  0.5597580000000  0.4386770000000  0.5080030000000 1.0
C      1  0.3994790000000  0.5259070000000  0.5093710000000 1.0
C      1  0.5520860000000  0.4134750000000  0.4965730000000 1.0
C      1  0.5585990000000  0.5590780000000  0.4964510000000 1.0
C      1  0.4448170000000  0.4829990000000  0.5258910000000 1.0
C      1  0.5156660000000  0.5686760000000  0.5382010000000 1.0
C      1  0.5369070000000  0.4587160000000  0.5461410000000 1.0
C      1  0.4410210000000  0.5371710000000  0.4818440000000 1.0
C      1  0.5212210000000  0.4341830000000  0.4640930000000 1.0
C      1  0.5552780000000  0.5377510000000  0.4544090000000 1.0
END
