TITL C-3623286-7563-38 -0.0020945975158288 125000 -845.452451461142 0 0 140 (C1) n - 1
REM
REM in /home/nfs/bkarasulu/CARBON/AIRSS/Generating-Clusters/LCBOP/Higher-Symm/SD-CG/FIRE-CG
REM
REM
REM
REM
REM
REM ./C.cell (b20cbc046b6831c77cfcea5457e17084)
REM AIRSS Version 0.9.1 bugfix July 2018 build 013d7b7c2542+ Fri, 06 Jul 2018 19:26:36 +0100
REM compiler GCC version 9.2.1 20190827 (Red Hat 9.2.1-1)
REM options -cpp -mtune=generic -march=x86-64 -g -O0 -fpre-include=/usr/include/finclude/math-vector-fortran.h
REM seed 1199299811 -758072971 1825687754 572062107 1388871909 -262613683 1336326175 -15605102 -236335182 -899837832 -1313951962 -1687987985 140626853 1684237124 400349613 -1132312728 -1558436111 -203650556 -906697073 -1246203743 -892882412 -2037602212 1898460312 -1149904332 206577976 -2112548804 -889395542 1948339903 -2015049857 1966954400 -2007422532 -1491334914 -1933994961
REM
CELL 1.54180   50.00000   50.00000   50.00000   90.00000   90.00000   90.00000
LATT -1
SFAC C  
C      1  0.4001020000000  0.5249420000000  0.4714650000000 1.0
C      1  0.5983120000000  0.5265220000000  0.5258550000000 1.0
C      1  0.4002810000000  0.4743940000000  0.5283150000000 1.0
C      1  0.5990920000000  0.4745360000000  0.4703430000000 1.0
C      1  0.5010990000000  0.4016360000000  0.5452730000000 1.0
C      1  0.4990240000000  0.4014380000000  0.4519660000000 1.0
C      1  0.5020450000000  0.5977040000000  0.4517660000000 1.0
C      1  0.5003790000000  0.5975990000000  0.5459140000000 1.0
C      1  0.5238130000000  0.5247010000000  0.5431290000000 1.0
C      1  0.4749630000000  0.5222060000000  0.4692670000000 1.0
C      1  0.5291560000000  0.4852790000000  0.4597910000000 1.0
C      1  0.4654900000000  0.4815270000000  0.5307760000000 1.0
C      1  0.4832550000000  0.3934920000000  0.5243450000000 1.0
C      1  0.5065430000000  0.3921800000000  0.4794060000000 1.0
C      1  0.4948610000000  0.6064710000000  0.4794540000000 1.0
C      1  0.5181420000000  0.6054530000000  0.5246670000000 1.0
C      1  0.4559320000000  0.6018310000000  0.5159750000000 1.0
C      1  0.5430130000000  0.6005360000000  0.4786680000000 1.0
C      1  0.4578220000000  0.3974530000000  0.4786020000000 1.0
C      1  0.5462700000000  0.3953540000000  0.5161810000000 1.0
C      1  0.5488130000000  0.5096530000000  0.4165580000000 1.0
C      1  0.4506380000000  0.5125650000000  0.5821910000000 1.0
C      1  0.5500650000000  0.4886470000000  0.5814120000000 1.0
C      1  0.4527250000000  0.4891910000000  0.4192730000000 1.0
C      1  0.4337230000000  0.5304020000000  0.5646180000000 1.0
C      1  0.5652560000000  0.5279290000000  0.4329970000000 1.0
C      1  0.4375810000000  0.4714480000000  0.4372130000000 1.0
C      1  0.5664920000000  0.4706630000000  0.5638090000000 1.0
C      1  0.4052950000000  0.5075690000000  0.4489490000000 1.0
C      1  0.5944830000000  0.5092030000000  0.5486810000000 1.0
C      1  0.4049140000000  0.4919200000000  0.5508340000000 1.0
C      1  0.5956240000000  0.4912900000000  0.4471100000000 1.0
C      1  0.5287780000000  0.3938310000000  0.5397960000000 1.0
C      1  0.4700430000000  0.3969620000000  0.4518530000000 1.0
C      1  0.5310240000000  0.6020620000000  0.4518390000000 1.0
C      1  0.4726560000000  0.6033230000000  0.5396450000000 1.0
C      1  0.4828750000000  0.4781700000000  0.4689450000000 1.0
C      1  0.5169170000000  0.4683040000000  0.5403410000000 1.0
C      1  0.4762740000000  0.5241650000000  0.5440220000000 1.0
C      1  0.5264300000000  0.5162000000000  0.4636500000000 1.0
C      1  0.5845510000000  0.5202260000000  0.5729200000000 1.0
C      1  0.4159750000000  0.5188490000000  0.4251070000000 1.0
C      1  0.5850950000000  0.4796290000000  0.4234070000000 1.0
C      1  0.4163510000000  0.4808500000000  0.5744060000000 1.0
C      1  0.5878540000000  0.4818110000000  0.5460740000000 1.0
C      1  0.4134550000000  0.4805950000000  0.4522840000000 1.0
C      1  0.5887970000000  0.5187810000000  0.4492260000000 1.0
C      1  0.4112450000000  0.5194710000000  0.5479060000000 1.0
C      1  0.4322710000000  0.5850790000000  0.5152900000000 1.0
C      1  0.5655000000000  0.5832660000000  0.4818600000000 1.0
C      1  0.4347670000000  0.4142880000000  0.4824500000000 1.0
C      1  0.5693050000000  0.4137690000000  0.5160600000000 1.0
C      1  0.4695500000000  0.6093550000000  0.4919140000000 1.0
C      1  0.5199210000000  0.6066360000000  0.4962910000000 1.0
C      1  0.4813070000000  0.3914720000000  0.4960940000000 1.0
C      1  0.5320990000000  0.3892570000000  0.4917330000000 1.0
C      1  0.4603090000000  0.5379880000000  0.4877910000000 1.0
C      1  0.5340590000000  0.5352050000000  0.5194630000000 1.0
C      1  0.4543340000000  0.4676340000000  0.5086670000000 1.0
C      1  0.5338570000000  0.4695560000000  0.4845190000000 1.0
C      1  0.5905130000000  0.4671640000000  0.5203880000000 1.0
C      1  0.4101070000000  0.4659620000000  0.4780330000000 1.0
C      1  0.5910990000000  0.5334920000000  0.4749390000000 1.0
C      1  0.4083370000000  0.5336240000000  0.5218230000000 1.0
C      1  0.4949740000000  0.4631130000000  0.4125780000000 1.0
C      1  0.5069550000000  0.4631100000000  0.5889810000000 1.0
C      1  0.4937720000000  0.5384090000000  0.5915340000000 1.0
C      1  0.5056420000000  0.5357490000000  0.4115390000000 1.0
C      1  0.5016910000000  0.5155600000000  0.4805910000000 1.0
C      1  0.5001270000000  0.5107180000000  0.5433450000000 1.0
C      1  0.4952970000000  0.4841470000000  0.5283180000000 1.0
C      1  0.4967590000000  0.4900720000000  0.4925630000000 1.0
C      1  0.4445690000000  0.4832800000000  0.5809530000000 1.0
C      1  0.5569450000000  0.4812710000000  0.4169720000000 1.0
C      1  0.4442050000000  0.5173440000000  0.4189830000000 1.0
C      1  0.5568560000000  0.5177860000000  0.5813120000000 1.0
C      1  0.5973680000000  0.4853210000000  0.4970450000000 1.0
C      1  0.4014930000000  0.4843830000000  0.5011570000000 1.0
C      1  0.5980850000000  0.5158190000000  0.4988620000000 1.0
C      1  0.4010200000000  0.5148950000000  0.4986350000000 1.0
C      1  0.4734570000000  0.4786020000000  0.4026480000000 1.0
C      1  0.5292300000000  0.4780880000000  0.5982440000000 1.0
C      1  0.4709050000000  0.5234270000000  0.5997090000000 1.0
C      1  0.5269040000000  0.5199870000000  0.4010550000000 1.0
C      1  0.5788010000000  0.5678480000000  0.5488220000000 1.0
C      1  0.4193350000000  0.5670120000000  0.4503010000000 1.0
C      1  0.5807700000000  0.4317840000000  0.4497260000000 1.0
C      1  0.4202710000000  0.4328520000000  0.5496650000000 1.0
C      1  0.5730860000000  0.5584770000000  0.4697400000000 1.0
C      1  0.4251050000000  0.5595880000000  0.5263240000000 1.0
C      1  0.5761120000000  0.4401180000000  0.5263580000000 1.0
C      1  0.4285500000000  0.4409510000000  0.4734540000000 1.0
C      1  0.4722540000000  0.5516540000000  0.5407920000000 1.0
C      1  0.5255290000000  0.5464530000000  0.4566320000000 1.0
C      1  0.4765650000000  0.4517020000000  0.4626910000000 1.0
C      1  0.5298370000000  0.4428920000000  0.5413880000000 1.0
C      1  0.4861380000000  0.4474130000000  0.5776890000000 1.0
C      1  0.5159460000000  0.4466400000000  0.4219140000000 1.0
C      1  0.4849580000000  0.5522700000000  0.4218610000000 1.0
C      1  0.5150830000000  0.5540270000000  0.5808060000000 1.0
C      1  0.4567650000000  0.5088510000000  0.5310640000000 1.0
C      1  0.5517740000000  0.5189670000000  0.4781330000000 1.0
C      1  0.4615560000000  0.4967940000000  0.4664140000000 1.0
C      1  0.5392420000000  0.4845340000000  0.5338200000000 1.0
C      1  0.4677690000000  0.5190040000000  0.6267060000000 1.0
C      1  0.5270110000000  0.5149930000000  0.3740100000000 1.0
C      1  0.4718770000000  0.4829520000000  0.3755790000000 1.0
C      1  0.5311600000000  0.4827170000000  0.6252860000000 1.0
C      1  0.4679760000000  0.4427460000000  0.5053510000000 1.0
C      1  0.5168540000000  0.4456330000000  0.4915330000000 1.0
C      1  0.4747980000000  0.5605190000000  0.4939550000000 1.0
C      1  0.5165670000000  0.5548130000000  0.5080700000000 1.0
C      1  0.5435680000000  0.4552700000000  0.4211090000000 1.0
C      1  0.4585390000000  0.4570810000000  0.5770790000000 1.0
C      1  0.5430220000000  0.5444660000000  0.5797890000000 1.0
C      1  0.4574050000000  0.5433720000000  0.4225760000000 1.0
C      1  0.4909350000000  0.5780160000000  0.4342270000000 1.0
C      1  0.5084320000000  0.5789140000000  0.5666380000000 1.0
C      1  0.4927980000000  0.4218380000000  0.5646280000000 1.0
C      1  0.5101550000000  0.4212100000000  0.4347020000000 1.0
C      1  0.4030670000000  0.5525080000000  0.4660130000000 1.0
C      1  0.5938260000000  0.5539140000000  0.5313830000000 1.0
C      1  0.4036220000000  0.4468890000000  0.5339100000000 1.0
C      1  0.5961890000000  0.4468510000000  0.4657090000000 1.0
C      1  0.4404840000000  0.4371950000000  0.5667380000000 1.0
C      1  0.5615290000000  0.4354630000000  0.4314410000000 1.0
C      1  0.4394670000000  0.5631650000000  0.4330130000000 1.0
C      1  0.5606680000000  0.5642590000000  0.5683310000000 1.0
C      1  0.5449210000000  0.4873140000000  0.5070140000000 1.0
C      1  0.4463840000000  0.4908860000000  0.4906910000000 1.0
C      1  0.5490830000000  0.5158090000000  0.5048850000000 1.0
C      1  0.4480850000000  0.5171990000000  0.5049940000000 1.0
C      1  0.5535880000000  0.5505360000000  0.4478420000000 1.0
C      1  0.4439790000000  0.5535290000000  0.5486330000000 1.0
C      1  0.5576350000000  0.4462510000000  0.5495150000000 1.0
C      1  0.4491420000000  0.4498400000000  0.4532300000000 1.0
C      1  0.4888040000000  0.4386390000000  0.4856030000000 1.0
C      1  0.5251310000000  0.4331100000000  0.5153080000000 1.0
C      1  0.4886450000000  0.5603890000000  0.5186640000000 1.0
C      1  0.5120970000000  0.5580930000000  0.4796900000000 1.0
END
