TITL C-3623285-6872-2059 18373.8285580133 125000 -1176.41989405621 0 0 192 (C1) n - 1
REM
REM in /home/nfs/bkarasulu/CARBON/AIRSS/Generating-Clusters/LCBOP/Higher-Symm/SD-CG/FIRE-CG
REM
REM
REM
REM
REM
REM ./C.cell (b20cbc046b6831c77cfcea5457e17084)
REM AIRSS Version 0.9.1 bugfix July 2018 build 013d7b7c2542+ Fri, 06 Jul 2018 19:26:36 +0100
REM compiler GCC version 9.2.1 20190827 (Red Hat 9.2.1-1)
REM options -cpp -mtune=generic -march=x86-64 -g -O0 -fpre-include=/usr/include/finclude/math-vector-fortran.h
REM seed -1520992444 -904381736 -1042970339 -2146372555 -1259093180 397876752 -1265074094 93696706 315081627 1976421067 1094977444 1502027868 1949267046 688197408 750235762 -1335758534 2065266605 1767977315 649844086 1534677070 -824582406 -1274020885 -1980167101 1427600955 -1004463048 -1587737290 525254898 -415951325 493950690 892306072 -279974368 1622465533 1993031504
REM
CELL 1.54180   50.00000   50.00000   50.00000   90.00000   90.00000   90.00000
LATT -1
SFAC C  
C      1  0.5489390000000  0.4698650000000  0.6038810000000 1.0
C      1  0.5514720000000  0.5202490000000  0.6033700000000 1.0
C      1  0.4544570000000  0.5765480000000  0.5349800000000 1.0
C      1  0.4332240000000  0.4234400000000  0.5423300000000 1.0
C      1  0.4881890000000  0.5295610000000  0.4306290000000 1.0
C      1  0.4888280000000  0.4747150000000  0.4360400000000 1.0
C      1  0.4637790000000  0.5207800000000  0.3905810000000 1.0
C      1  0.4474530000000  0.4624750000000  0.3743170000000 1.0
C      1  0.4921810000000  0.4861280000000  0.4102480000000 1.0
C      1  0.4842660000000  0.5127150000000  0.4080280000000 1.0
C      1  0.4484290000000  0.5169800000000  0.4865990000000 1.0
C      1  0.4150330000000  0.4699620000000  0.5158730000000 1.0
C      1  0.5151910000000  0.5627070000000  0.4518300000000 1.0
C      1  0.5062430000000  0.4431030000000  0.4691680000000 1.0
C      1  0.4692340000000  0.5149010000000  0.5029340000000 1.0
C      1  0.4795490000000  0.4914320000000  0.5104020000000 1.0
C      1  0.5227150000000  0.4304600000000  0.5793350000000 1.0
C      1  0.5341920000000  0.5659690000000  0.5674610000000 1.0
C      1  0.6179310000000  0.5153630000000  0.4430130000000 1.0
C      1  0.6067510000000  0.4899040000000  0.4348830000000 1.0
C      1  0.6093180000000  0.4875170000000  0.5265380000000 1.0
C      1  0.6098090000000  0.5159720000000  0.5293400000000 1.0
C      1  0.4702490000000  0.3710750000000  0.5620770000000 1.0
C      1  0.4619800000000  0.6010930000000  0.5493610000000 1.0
C      1  0.5214790000000  0.4815510000000  0.6053900000000 1.0
C      1  0.5237690000000  0.5120590000000  0.6030240000000 1.0
C      1  0.4290900000000  0.5487890000000  0.5630100000000 1.0
C      1  0.4418320000000  0.4670170000000  0.5219170000000 1.0
C      1  0.5471100000000  0.3840460000000  0.4759410000000 1.0
C      1  0.5208580000000  0.6283900000000  0.4654740000000 1.0
C      1  0.5553550000000  0.6085610000000  0.5494930000000 1.0
C      1  0.5581270000000  0.3969360000000  0.5691140000000 1.0
C      1  0.5108230000000  0.5623640000000  0.5872920000000 1.0
C      1  0.5024100000000  0.4307750000000  0.5996080000000 1.0
C      1  0.5872220000000  0.4904340000000  0.4120170000000 1.0
C      1  0.5905040000000  0.5146390000000  0.3956390000000 1.0
C      1  0.4734830000000  0.4691770000000  0.5930940000000 1.0
C      1  0.4784870000000  0.5260800000000  0.5885130000000 1.0
C      1  0.5908950000000  0.4298070000000  0.5113500000000 1.0
C      1  0.5951670000000  0.5731820000000  0.5157960000000 1.0
C      1  0.5624020000000  0.4286110000000  0.5138850000000 1.0
C      1  0.5693370000000  0.5617330000000  0.5068220000000 1.0
C      1  0.3874950000000  0.5194940000000  0.5258200000000 1.0
C      1  0.3716290000000  0.4736960000000  0.5648600000000 1.0
C      1  0.5775840000000  0.4817990000000  0.4896220000000 1.0
C      1  0.5774860000000  0.5350950000000  0.4989630000000 1.0
C      1  0.4540790000000  0.4866420000000  0.6039990000000 1.0
C      1  0.4607400000000  0.5140900000000  0.6073830000000 1.0
C      1  0.4546240000000  0.4715670000000  0.4696490000000 1.0
C      1  0.4414760000000  0.4960640000000  0.4716680000000 1.0
C      1  0.4900120000000  0.3892910000000  0.5711460000000 1.0
C      1  0.4875980000000  0.5981690000000  0.5607210000000 1.0
C      1  0.5053260000000  0.4071950000000  0.5258540000000 1.0
C      1  0.5036930000000  0.5977400000000  0.5118400000000 1.0
C      1  0.4390050000000  0.4277660000000  0.4874740000000 1.0
C      1  0.4428410000000  0.5693860000000  0.4801420000000 1.0
C      1  0.4667090000000  0.5428690000000  0.4437510000000 1.0
C      1  0.4637930000000  0.4655640000000  0.4439840000000 1.0
C      1  0.4548530000000  0.5997270000000  0.4379930000000 1.0
C      1  0.4606450000000  0.4041210000000  0.4402990000000 1.0
C      1  0.6163630000000  0.4689670000000  0.4521830000000 1.0
C      1  0.6265660000000  0.5328170000000  0.4617440000000 1.0
C      1  0.4553120000000  0.5543600000000  0.5518140000000 1.0
C      1  0.4516880000000  0.4324830000000  0.5633040000000 1.0
C      1  0.4854530000000  0.5800000000000  0.4056950000000 1.0
C      1  0.4956900000000  0.4260840000000  0.4138410000000 1.0
C      1  0.6048520000000  0.5287450000000  0.5042970000000 1.0
C      1  0.6047140000000  0.4793080000000  0.4990710000000 1.0
C      1  0.4393230000000  0.4668580000000  0.3998720000000 1.0
C      1  0.4402890000000  0.5311160000000  0.4018650000000 1.0
C      1  0.4206420000000  0.4746530000000  0.5702160000000 1.0
C      1  0.4248470000000  0.5219480000000  0.5557630000000 1.0
C      1  0.4796610000000  0.5934440000000  0.6089060000000 1.0
C      1  0.4563390000000  0.4176710000000  0.5872160000000 1.0
C      1  0.5612150000000  0.4601400000000  0.6263680000000 1.0
C      1  0.5601160000000  0.5673120000000  0.5827940000000 1.0
C      1  0.4405740000000  0.4128290000000  0.5159430000000 1.0
C      1  0.4482680000000  0.5828360000000  0.5069330000000 1.0
C      1  0.5887190000000  0.4700470000000  0.5694110000000 1.0
C      1  0.5957880000000  0.5275660000000  0.5759740000000 1.0
C      1  0.3809230000000  0.6018380000000  0.5983680000000 1.0
C      1  0.3570170000000  0.4044790000000  0.5588820000000 1.0
C      1  0.4061620000000  0.4205540000000  0.5494700000000 1.0
C      1  0.4129900000000  0.5658280000000  0.5775000000000 1.0
C      1  0.4449110000000  0.5525990000000  0.4241780000000 1.0
C      1  0.4475340000000  0.4496800000000  0.4242210000000 1.0
C      1  0.4704420000000  0.5573420000000  0.4695000000000 1.0
C      1  0.4595420000000  0.4529140000000  0.4944310000000 1.0
C      1  0.4991670000000  0.5975600000000  0.4247890000000 1.0
C      1  0.5047690000000  0.4074200000000  0.4345750000000 1.0
C      1  0.5084110000000  0.5988420000000  0.5406990000000 1.0
C      1  0.5110420000000  0.3969290000000  0.5524780000000 1.0
C      1  0.5050420000000  0.5342110000000  0.5961550000000 1.0
C      1  0.4985520000000  0.4606570000000  0.6046260000000 1.0
C      1  0.4989890000000  0.5645620000000  0.4759130000000 1.0
C      1  0.4934000000000  0.4430980000000  0.4943690000000 1.0
C      1  0.4582440000000  0.6115110000000  0.5046300000000 1.0
C      1  0.4579640000000  0.3897370000000  0.5181990000000 1.0
C      1  0.5981950000000  0.5866280000000  0.4481180000000 1.0
C      1  0.5645740000000  0.4213600000000  0.4486890000000 1.0
C      1  0.4851300000000  0.3934520000000  0.5113130000000 1.0
C      1  0.4850550000000  0.6131650000000  0.4948720000000 1.0
C      1  0.6115890000000  0.5894730000000  0.4712410000000 1.0
C      1  0.5779660000000  0.4387590000000  0.4659270000000 1.0
C      1  0.4928500000000  0.6212000000000  0.4682220000000 1.0
C      1  0.4869840000000  0.3610690000000  0.4438360000000 1.0
C      1  0.5393620000000  0.4997940000000  0.5292410000000 1.0
C      1  0.5454000000000  0.4716780000000  0.5292430000000 1.0
C      1  0.4652240000000  0.4257000000000  0.4200210000000 1.0
C      1  0.4572550000000  0.5794450000000  0.4163880000000 1.0
C      1  0.4037940000000  0.4707960000000  0.4285200000000 1.0
C      1  0.4035750000000  0.5267360000000  0.4299750000000 1.0
C      1  0.5358420000000  0.6079320000000  0.4524400000000 1.0
C      1  0.5432880000000  0.4074730000000  0.4614840000000 1.0
C      1  0.4504570000000  0.5286460000000  0.6281160000000 1.0
C      1  0.4278020000000  0.4784190000000  0.5974670000000 1.0
C      1  0.4831190000000  0.4093700000000  0.5919600000000 1.0
C      1  0.4922910000000  0.5848090000000  0.5861600000000 1.0
C      1  0.4507190000000  0.5075190000000  0.5523580000000 1.0
C      1  0.4466980000000  0.4772450000000  0.5504890000000 1.0
C      1  0.5030480000000  0.5288180000000  0.5467060000000 1.0
C      1  0.4939310000000  0.4615000000000  0.5508510000000 1.0
C      1  0.5393950000000  0.4455100000000  0.5161790000000 1.0
C      1  0.5426540000000  0.5697850000000  0.5019960000000 1.0
C      1  0.5616670000000  0.4287860000000  0.4211040000000 1.0
C      1  0.5822670000000  0.5692670000000  0.4354390000000 1.0
C      1  0.5499090000000  0.5250410000000  0.5381840000000 1.0
C      1  0.5432820000000  0.4651540000000  0.5570040000000 1.0
C      1  0.5189820000000  0.4524790000000  0.5622680000000 1.0
C      1  0.5295290000000  0.5425760000000  0.5492830000000 1.0
C      1  0.5154270000000  0.4446110000000  0.4009190000000 1.0
C      1  0.5023750000000  0.5627760000000  0.3901280000000 1.0
C      1  0.6058870000000  0.5349500000000  0.5508080000000 1.0
C      1  0.6039930000000  0.4665980000000  0.5456380000000 1.0
C      1  0.6146240000000  0.5723020000000  0.4933720000000 1.0
C      1  0.6001870000000  0.4351300000000  0.4843460000000 1.0
C      1  0.5681600000000  0.5466060000000  0.4366710000000 1.0
C      1  0.5447390000000  0.4522180000000  0.4127000000000 1.0
C      1  0.3970310000000  0.5837830000000  0.5886650000000 1.0
C      1  0.3813860000000  0.4126560000000  0.5545380000000 1.0
C      1  0.4387090000000  0.5933600000000  0.4602320000000 1.0
C      1  0.4485140000000  0.4090750000000  0.4653350000000 1.0
C      1  0.5228310000000  0.5454300000000  0.3848160000000 1.0
C      1  0.5025500000000  0.4682580000000  0.3911070000000 1.0
C      1  0.5192200000000  0.4960990000000  0.4652140000000 1.0
C      1  0.5301560000000  0.5176860000000  0.4502650000000 1.0
C      1  0.5332580000000  0.4073070000000  0.5669710000000 1.0
C      1  0.5337260000000  0.5920190000000  0.5515620000000 1.0
C      1  0.5496560000000  0.3627380000000  0.4907250000000 1.0
C      1  0.5313820000000  0.6519230000000  0.4741960000000 1.0
C      1  0.5118220000000  0.5031930000000  0.5369590000000 1.0
C      1  0.4946520000000  0.4822620000000  0.5316300000000 1.0
C      1  0.5131790000000  0.5370660000000  0.4401830000000 1.0
C      1  0.5114710000000  0.4692380000000  0.4544550000000 1.0
C      1  0.5427870000000  0.4978580000000  0.3906370000000 1.0
C      1  0.5440320000000  0.5262470000000  0.3852660000000 1.0
C      1  0.5357360000000  0.4627990000000  0.4393730000000 1.0
C      1  0.5565890000000  0.5262520000000  0.4522050000000 1.0
C      1  0.5764480000000  0.5226660000000  0.5938720000000 1.0
C      1  0.5616720000000  0.4690050000000  0.5779260000000 1.0
C      1  0.5216860000000  0.5872710000000  0.4390700000000 1.0
C      1  0.5176510000000  0.4188060000000  0.4571120000000 1.0
C      1  0.3994110000000  0.5266870000000  0.4770640000000 1.0
C      1  0.3960630000000  0.4677330000000  0.4739140000000 1.0
C      1  0.4178910000000  0.5136910000000  0.4085740000000 1.0
C      1  0.4180850000000  0.4850960000000  0.4078260000000 1.0
C      1  0.5721820000000  0.5320960000000  0.3852170000000 1.0
C      1  0.5604770000000  0.4777910000000  0.4031970000000 1.0
C      1  0.3978710000000  0.4820690000000  0.4979210000000 1.0
C      1  0.3933350000000  0.5106130000000  0.4999300000000 1.0
C      1  0.6039340000000  0.5624030000000  0.5412610000000 1.0
C      1  0.6045870000000  0.4403980000000  0.5339340000000 1.0
C      1  0.4547190000000  0.3715820000000  0.5398400000000 1.0
C      1  0.4549560000000  0.6224180000000  0.5314180000000 1.0
C      1  0.4732900000000  0.5296680000000  0.5580740000000 1.0
C      1  0.4671090000000  0.4591460000000  0.5642790000000 1.0
C      1  0.4198380000000  0.4477980000000  0.4393050000000 1.0
C      1  0.4188460000000  0.5495020000000  0.4401310000000 1.0
C      1  0.5146910000000  0.5750490000000  0.4980610000000 1.0
C      1  0.5122120000000  0.4331790000000  0.5144280000000 1.0
C      1  0.6160950000000  0.4599770000000  0.4798050000000 1.0
C      1  0.6217870000000  0.5443780000000  0.4871540000000 1.0
C      1  0.3997470000000  0.5109650000000  0.5495280000000 1.0
C      1  0.3958800000000  0.4854350000000  0.5612980000000 1.0
C      1  0.5664620000000  0.4643200000000  0.4721220000000 1.0
C      1  0.5666640000000  0.5226300000000  0.4773530000000 1.0
C      1  0.3923160000000  0.5125460000000  0.4518840000000 1.0
C      1  0.3909580000000  0.4840210000000  0.4503910000000 1.0
C      1  0.4806640000000  0.6117690000000  0.4432580000000 1.0
C      1  0.4844930000000  0.3877130000000  0.4400940000000 1.0
C      1  0.4185040000000  0.5502170000000  0.4704670000000 1.0
C      1  0.4146970000000  0.4450500000000  0.4683240000000 1.0
END
