TITL C-3623286-7563-925 66653.3937627796 125000 -968.761317830606 0 0 159 (C1) n - 1
REM
REM in /home/nfs/bkarasulu/CARBON/AIRSS/Generating-Clusters/LCBOP/Higher-Symm/SD-CG/FIRE-CG
REM
REM
REM
REM
REM
REM ./C.cell (b20cbc046b6831c77cfcea5457e17084)
REM AIRSS Version 0.9.1 bugfix July 2018 build 013d7b7c2542+ Fri, 06 Jul 2018 19:26:36 +0100
REM compiler GCC version 9.2.1 20190827 (Red Hat 9.2.1-1)
REM options -cpp -mtune=generic -march=x86-64 -g -O0 -fpre-include=/usr/include/finclude/math-vector-fortran.h
REM seed 393865711 495988021 -1387025675 -698749791 1648251087 1385089511 -1369421006 2028329280 -217688151 -1900663037 -2106638763 -1075580535 -1316468755 -99392049 -968263370 1866767178 2000581327 -1648647232 -519842993 -11465636 -200303178 -1105201907 -653141126 1178017615 1716053591 -1823991371 -352777084 -1209737906 312130266 293916359 -1553102903 -634435796 2876125
REM
CELL 1.54180   50.00000   50.00000   50.00000   90.00000   90.00000   90.00000
LATT -1
SFAC C  
C      1  0.4419700000000  0.4686280000000  0.5045820000000 1.0
C      1  0.5192680000000  0.4749870000000  0.4541160000000 1.0
C      1  0.5375270000000  0.4764700000000  0.5465360000000 1.0
C      1  0.6031820000000  0.4945800000000  0.4774360000000 1.0
C      1  0.4646250000000  0.4957070000000  0.5984380000000 1.0
C      1  0.4289330000000  0.4897780000000  0.4173430000000 1.0
C      1  0.5285120000000  0.5523450000000  0.4036640000000 1.0
C      1  0.5727310000000  0.5514390000000  0.5709290000000 1.0
C      1  0.4066070000000  0.5502560000000  0.5262700000000 1.0
C      1  0.5355490000000  0.4854920000000  0.3999990000000 1.0
C      1  0.5815540000000  0.4855130000000  0.5843170000000 1.0
C      1  0.3856630000000  0.4809590000000  0.5232870000000 1.0
C      1  0.5046760000000  0.5907560000000  0.5514780000000 1.0
C      1  0.4587920000000  0.5861640000000  0.4806460000000 1.0
C      1  0.5451680000000  0.5881800000000  0.4754270000000 1.0
C      1  0.4027400000000  0.4946130000000  0.5074010000000 1.0
C      1  0.5330220000000  0.5033780000000  0.4202230000000 1.0
C      1  0.5630630000000  0.5051860000000  0.5776170000000 1.0
C      1  0.4109020000000  0.4886420000000  0.5634250000000 1.0
C      1  0.4886790000000  0.4863110000000  0.3969670000000 1.0
C      1  0.5996940000000  0.4897650000000  0.5405120000000 1.0
C      1  0.4869130000000  0.5701930000000  0.4415030000000 1.0
C      1  0.5791110000000  0.5871020000000  0.5193330000000 1.0
C      1  0.4514440000000  0.5821470000000  0.5565760000000 1.0
C      1  0.5138400000000  0.5016410000000  0.4416250000000 1.0
C      1  0.5492290000000  0.5025110000000  0.5524540000000 1.0
C      1  0.4306460000000  0.4936080000000  0.5113470000000 1.0
C      1  0.5204010000000  0.5943010000000  0.4892890000000 1.0
C      1  0.5056280000000  0.5952400000000  0.5231250000000 1.0
C      1  0.4826200000000  0.5931140000000  0.4951030000000 1.0
C      1  0.6057070000000  0.5194150000000  0.5384660000000 1.0
C      1  0.4109990000000  0.5178940000000  0.5705910000000 1.0
C      1  0.4850000000000  0.5161470000000  0.3914060000000 1.0
C      1  0.4592510000000  0.3949610000000  0.5170410000000 1.0
C      1  0.5070080000000  0.3940400000000  0.4613660000000 1.0
C      1  0.5329900000000  0.3945740000000  0.5309720000000 1.0
C      1  0.3927230000000  0.5381410000000  0.5043550000000 1.0
C      1  0.5543960000000  0.5411720000000  0.3998210000000 1.0
C      1  0.5594340000000  0.5312360000000  0.5869090000000 1.0
C      1  0.5691150000000  0.5836570000000  0.4928510000000 1.0
C      1  0.4775700000000  0.5911150000000  0.5645780000000 1.0
C      1  0.4629080000000  0.5810280000000  0.4519360000000 1.0
C      1  0.5807860000000  0.4892540000000  0.4950540000000 1.0
C      1  0.4569480000000  0.4954820000000  0.5701420000000 1.0
C      1  0.4537310000000  0.4854190000000  0.4319840000000 1.0
C      1  0.5124330000000  0.4699750000000  0.3956540000000 1.0
C      1  0.5928090000000  0.4720760000000  0.5623650000000 1.0
C      1  0.3976920000000  0.4694500000000  0.5460350000000 1.0
C      1  0.5536130000000  0.4063370000000  0.4840820000000 1.0
C      1  0.4889790000000  0.4061040000000  0.5588200000000 1.0
C      1  0.4561570000000  0.4057750000000  0.4652510000000 1.0
C      1  0.4914030000000  0.4528410000000  0.5325230000000 1.0
C      1  0.4581920000000  0.4682800000000  0.4813680000000 1.0
C      1  0.5355310000000  0.4681570000000  0.4773970000000 1.0
C      1  0.3975750000000  0.4225320000000  0.5270310000000 1.0
C      1  0.5320100000000  0.4250700000000  0.4065650000000 1.0
C      1  0.5761440000000  0.4265680000000  0.5756180000000 1.0
C      1  0.4324760000000  0.5633490000000  0.5624450000000 1.0
C      1  0.4856020000000  0.5634110000000  0.4130170000000 1.0
C      1  0.5942900000000  0.5695910000000  0.5339080000000 1.0
C      1  0.4553550000000  0.5149430000000  0.4648640000000 1.0
C      1  0.5374230000000  0.5089680000000  0.4978070000000 1.0
C      1  0.4949720000000  0.4981580000000  0.5339140000000 1.0
C      1  0.5737890000000  0.5183990000000  0.4394220000000 1.0
C      1  0.5100870000000  0.5158730000000  0.5855800000000 1.0
C      1  0.4014740000000  0.5203890000000  0.4546690000000 1.0
C      1  0.4775600000000  0.5358840000000  0.5532530000000 1.0
C      1  0.4423070000000  0.5434120000000  0.4300030000000 1.0
C      1  0.5751660000000  0.5369450000000  0.4879780000000 1.0
C      1  0.5694880000000  0.4111520000000  0.5955290000000 1.0
C      1  0.3840730000000  0.4063880000000  0.5116880000000 1.0
C      1  0.5537130000000  0.4110500000000  0.4032810000000 1.0
C      1  0.4139920000000  0.5422890000000  0.5534540000000 1.0
C      1  0.5006410000000  0.5423750000000  0.3988740000000 1.0
C      1  0.5932470000000  0.5451450000000  0.5499450000000 1.0
C      1  0.5926670000000  0.4453450000000  0.4777910000000 1.0
C      1  0.4712230000000  0.4477270000000  0.5894910000000 1.0
C      1  0.4339770000000  0.4421220000000  0.4302830000000 1.0
C      1  0.4839630000000  0.4736160000000  0.5971780000000 1.0
C      1  0.4121240000000  0.4717500000000  0.4322260000000 1.0
C      1  0.5978000000000  0.4747140000000  0.4571960000000 1.0
C      1  0.4660770000000  0.4389240000000  0.5346500000000 1.0
C      1  0.4900450000000  0.4381560000000  0.4593250000000 1.0
C      1  0.5432350000000  0.4385930000000  0.5169870000000 1.0
C      1  0.3981790000000  0.4905830000000  0.4511920000000 1.0
C      1  0.5844920000000  0.4911890000000  0.4369800000000 1.0
C      1  0.5047360000000  0.4859740000000  0.5799280000000 1.0
C      1  0.5280220000000  0.5477670000000  0.5328220000000 1.0
C      1  0.4572160000000  0.5349900000000  0.5115210000000 1.0
C      1  0.4997880000000  0.5496510000000  0.4567750000000 1.0
C      1  0.5524690000000  0.4529080000000  0.5398510000000 1.0
C      1  0.4408380000000  0.4490300000000  0.5252130000000 1.0
C      1  0.5073010000000  0.4518950000000  0.4415660000000 1.0
C      1  0.4516170000000  0.3950410000000  0.4911400000000 1.0
C      1  0.5331310000000  0.3945550000000  0.4682640000000 1.0
C      1  0.5136060000000  0.3950980000000  0.5498720000000 1.0
C      1  0.5493490000000  0.5795340000000  0.4453510000000 1.0
C      1  0.5279950000000  0.5800570000000  0.5695420000000 1.0
C      1  0.4310710000000  0.5785670000000  0.4905920000000 1.0
C      1  0.5960680000000  0.4331710000000  0.5302160000000 1.0
C      1  0.4252120000000  0.4326290000000  0.5676840000000 1.0
C      1  0.4820680000000  0.4301150000000  0.4061440000000 1.0
C      1  0.4163960000000  0.5313420000000  0.4324020000000 1.0
C      1  0.5612410000000  0.5267580000000  0.4639530000000 1.0
C      1  0.4880070000000  0.5358010000000  0.5798190000000 1.0
C      1  0.5751990000000  0.5665970000000  0.4366750000000 1.0
C      1  0.5209340000000  0.5623820000000  0.5924890000000 1.0
C      1  0.4110170000000  0.5682400000000  0.4713610000000 1.0
C      1  0.4814070000000  0.4525170000000  0.4823600000000 1.0
C      1  0.5262020000000  0.4512480000000  0.4981730000000 1.0
C      1  0.4990840000000  0.4522410000000  0.5045100000000 1.0
C      1  0.4478630000000  0.5114600000000  0.5247260000000 1.0
C      1  0.4938440000000  0.5238700000000  0.4435810000000 1.0
C      1  0.5486450000000  0.5276180000000  0.5370690000000 1.0
C      1  0.5859550000000  0.5624740000000  0.4824760000000 1.0
C      1  0.4791860000000  0.5837750000000  0.5922580000000 1.0
C      1  0.4408330000000  0.5717210000000  0.4360190000000 1.0
C      1  0.4528000000000  0.5333920000000  0.4847970000000 1.0
C      1  0.5342350000000  0.5267970000000  0.4736670000000 1.0
C      1  0.5102510000000  0.5102580000000  0.5128290000000 1.0
C      1  0.4841050000000  0.4105430000000  0.4593160000000 1.0
C      1  0.5463020000000  0.4108430000000  0.5119190000000 1.0
C      1  0.4695030000000  0.4107550000000  0.5380630000000 1.0
C      1  0.4584760000000  0.4453630000000  0.4125320000000 1.0
C      1  0.5992410000000  0.4493010000000  0.5067820000000 1.0
C      1  0.4432940000000  0.4507990000000  0.5801320000000 1.0
C      1  0.4795600000000  0.5464410000000  0.5255240000000 1.0
C      1  0.5131710000000  0.5456210000000  0.4812710000000 1.0
C      1  0.5062500000000  0.5417820000000  0.5121120000000 1.0
C      1  0.4219050000000  0.5210480000000  0.5977560000000 1.0
C      1  0.4562560000000  0.5181590000000  0.3849160000000 1.0
C      1  0.6220060000000  0.5231020000000  0.5143880000000 1.0
C      1  0.5954860000000  0.5676020000000  0.4564540000000 1.0
C      1  0.4925830000000  0.5597200000000  0.5957730000000 1.0
C      1  0.4152960000000  0.5788800000000  0.4455990000000 1.0
C      1  0.4359860000000  0.4771080000000  0.5707310000000 1.0
C      1  0.4688630000000  0.4726910000000  0.4124750000000 1.0
C      1  0.5939290000000  0.4763000000000  0.5159340000000 1.0
C      1  0.4547570000000  0.4871850000000  0.4606070000000 1.0
C      1  0.5535580000000  0.4864170000000  0.4883660000000 1.0
C      1  0.5068170000000  0.4750550000000  0.5492250000000 1.0
C      1  0.4218940000000  0.5733190000000  0.5168860000000 1.0
C      1  0.5308370000000  0.5744720000000  0.4234800000000 1.0
C      1  0.5564400000000  0.5755060000000  0.5663230000000 1.0
C      1  0.5601750000000  0.5256480000000  0.5110660000000 1.0
C      1  0.4683860000000  0.5074220000000  0.5463090000000 1.0
C      1  0.4643030000000  0.5270310000000  0.4403900000000 1.0
C      1  0.5729830000000  0.5412840000000  0.4215280000000 1.0
C      1  0.5321280000000  0.5353560000000  0.5935420000000 1.0
C      1  0.3987580000000  0.5413300000000  0.4763120000000 1.0
C      1  0.5797440000000  0.4454360000000  0.5531880000000 1.0
C      1  0.4139830000000  0.4427840000000  0.5410850000000 1.0
C      1  0.5094780000000  0.4434780000000  0.4115070000000 1.0
C      1  0.4851240000000  0.4236540000000  0.5815990000000 1.0
C      1  0.4369920000000  0.4211680000000  0.4497870000000 1.0
C      1  0.5748350000000  0.4231510000000  0.4732670000000 1.0
C      1  0.6220510000000  0.5119740000000  0.4893520000000 1.0
C      1  0.4441400000000  0.5112880000000  0.6108640000000 1.0
C      1  0.4335960000000  0.5053630000000  0.3939160000000 1.0
END
