TITL C-3623282-6910-1348 -2.63046500889894e-07 125000 -27.7778184246968 0 0 20 (C2h) n - 1
REM
REM in /home/nfs/bkarasulu/CARBON/AIRSS/Generating-Clusters/LCBOP/Higher-Symm/SD-CG/FIRE-CG
REM
REM
REM
REM
REM
REM ./C.cell (b20cbc046b6831c77cfcea5457e17084)
REM AIRSS Version 0.9.1 bugfix July 2018 build 013d7b7c2542+ Fri, 06 Jul 2018 19:26:36 +0100
REM compiler GCC version 9.2.1 20190827 (Red Hat 9.2.1-1)
REM options -cpp -mtune=generic -march=x86-64 -g -O0 -fpre-include=/usr/include/finclude/math-vector-fortran.h
REM seed -399462784 -522238334 -1281990617 -1576726159 1461514202 1552030876 755977357 -1344994471 667966411 2111129612 2072242016 584767201 -1456177636 -974822351 -1340261520 694882853 1819648226 1372276515 -1713751111 116672118 -965175288 -1474724468 105883310 1733770994 209339943 1876896985 305956146 830941643 1116147350 -1943980989 1624210785 895940894 540995100
REM
CELL 1.54180   50.00000   50.00000   50.00000   90.00000   90.00000   90.00000
LATT -1
SFAC C  
C      1  0.4997020000000  0.5253130000000  0.4739330000000 1.0
C      1  0.4740560000000  0.4992570000000  0.5263340000000 1.0
C      1  0.4995770000000  0.4731340000000  0.5259950000000 1.0
C      1  0.5262140000000  0.5001510000000  0.4740070000000 1.0
C      1  0.4740560000000  0.4992570000000  0.4739500000000 1.0
C      1  0.5262140000000  0.5001510000000  0.5262770000000 1.0
C      1  0.5256200000000  0.4749320000000  0.5001420000000 1.0
C      1  0.4995770000000  0.4731340000000  0.4742890000000 1.0
C      1  0.4722310000000  0.5244080000000  0.5001420000000 1.0
C      1  0.4997020000000  0.5253130000000  0.5263510000000 1.0
C      1  0.4738760000000  0.4717780000000  0.5001420000000 1.0
C      1  0.5248320000000  0.5276490000000  0.5001420000000 1.0
C      1  0.5336220000000  0.4657950000000  0.4646920000000 1.0
C      1  0.4657500000000  0.5349970000000  0.4660370000000 1.0
C      1  0.4638460000000  0.4654480000000  0.5343890000000 1.0
C      1  0.5352770000000  0.5342670000000  0.4660300000000 1.0
C      1  0.4657500000000  0.5349970000000  0.5342480000000 1.0
C      1  0.5336220000000  0.4657950000000  0.5355920000000 1.0
C      1  0.5352770000000  0.5342670000000  0.5342540000000 1.0
C      1  0.4638460000000  0.4654480000000  0.4658960000000 1.0
END
