TITL C-3623285-6872-1955 0.0544583614920036 125000 -194.12888834572 0 0 35 (C1) n - 1
REM
REM in /home/nfs/bkarasulu/CARBON/AIRSS/Generating-Clusters/LCBOP/Higher-Symm/SD-CG/FIRE-CG
REM
REM
REM
REM
REM
REM ./C.cell (b20cbc046b6831c77cfcea5457e17084)
REM AIRSS Version 0.9.1 bugfix July 2018 build 013d7b7c2542+ Fri, 06 Jul 2018 19:26:36 +0100
REM compiler GCC version 9.2.1 20190827 (Red Hat 9.2.1-1)
REM options -cpp -mtune=generic -march=x86-64 -g -O0 -fpre-include=/usr/include/finclude/math-vector-fortran.h
REM seed 1371783109 -1506043388 -1907639966 -678157794 800758972 1497420645 157136633 -1579139770 -1562575341 -1655329766 -1185720713 -56243380 -1354877817 -639986544 -85075880 -759916076 680017740 -1887708582 350089886 1401027569 393362956 -1064028038 1273367419 -168794685 1816478139 -465446238 -1487118061 -432970854 1916630177 273077620 1635880312 -114901464 1630495108
REM
CELL 1.54180   50.00000   50.00000   50.00000   90.00000   90.00000   90.00000
LATT -1
SFAC C  
C      1  0.5450470000000  0.4554430000000  0.5206060000000 1.0
C      1  0.4395780000000  0.4721410000000  0.5366320000000 1.0
C      1  0.5119640000000  0.5527390000000  0.5052820000000 1.0
C      1  0.4974510000000  0.4938220000000  0.5033600000000 1.0
C      1  0.4985590000000  0.4695730000000  0.4605430000000 1.0
C      1  0.5902010000000  0.5105960000000  0.4916400000000 1.0
C      1  0.4840580000000  0.5262510000000  0.5388340000000 1.0
C      1  0.5636050000000  0.5185620000000  0.4934970000000 1.0
C      1  0.5323550000000  0.5436050000000  0.5205700000000 1.0
C      1  0.4540020000000  0.5378000000000  0.4922180000000 1.0
C      1  0.5146810000000  0.4736340000000  0.4387820000000 1.0
C      1  0.5086620000000  0.4741660000000  0.4866280000000 1.0
C      1  0.5235460000000  0.5331980000000  0.4640920000000 1.0
C      1  0.4635180000000  0.5309540000000  0.4206830000000 1.0
C      1  0.5295290000000  0.4586050000000  0.4973140000000 1.0
C      1  0.5638450000000  0.4359270000000  0.5234390000000 1.0
C      1  0.5395200000000  0.4745950000000  0.5411490000000 1.0
C      1  0.3966300000000  0.4418510000000  0.5487830000000 1.0
C      1  0.5478750000000  0.5236440000000  0.4705700000000 1.0
C      1  0.6147780000000  0.5019920000000  0.4906110000000 1.0
C      1  0.4173890000000  0.4564770000000  0.5429220000000 1.0
C      1  0.5506550000000  0.5220020000000  0.5189640000000 1.0
C      1  0.4641560000000  0.4683200000000  0.5502200000000 1.0
C      1  0.5153630000000  0.4709750000000  0.5557440000000 1.0
C      1  0.4896880000000  0.4796550000000  0.5480650000000 1.0
C      1  0.5025640000000  0.5437240000000  0.4800790000000 1.0
C      1  0.4752290000000  0.5396410000000  0.4730880000000 1.0
C      1  0.4590370000000  0.5241400000000  0.3959230000000 1.0
C      1  0.4378880000000  0.4920510000000  0.5166040000000 1.0
C      1  0.4429500000000  0.5609710000000  0.5019180000000 1.0
C      1  0.4437710000000  0.5129770000000  0.5010180000000 1.0
C      1  0.5500680000000  0.5005750000000  0.5372950000000 1.0
C      1  0.4905290000000  0.5014380000000  0.5295140000000 1.0
C      1  0.4686060000000  0.5368830000000  0.4459970000000 1.0
C      1  0.4727040000000  0.4610700000000  0.4574150000000 1.0
END
