TITL C-3623289-7120-1433 -5.96958451981415e-07 125000 -611.744295603806 0 0 97 (D3) n - 1
REM
REM in /home/nfs/bkarasulu/CARBON/AIRSS/Generating-Clusters/LCBOP/Higher-Symm/SD-CG/FIRE-CG
REM
REM
REM
REM
REM
REM ./C.cell (b20cbc046b6831c77cfcea5457e17084)
REM AIRSS Version 0.9.1 bugfix July 2018 build 013d7b7c2542+ Fri, 06 Jul 2018 19:26:36 +0100
REM compiler GCC version 9.2.1 20190827 (Red Hat 9.2.1-1)
REM options -cpp -mtune=generic -march=x86-64 -g -O0 -fpre-include=/usr/include/finclude/math-vector-fortran.h
REM seed -1512087665 2091108813 1938073343 1596782089 1952351917 -822716296 288729281 28449923 818658880 -1325653081 1279712113 -2080702212 1897393370 -1663172367 966520048 43625939 -1483669768 975295973 685336996 129212338 323160922 428310397 1142192940 800453830 1963971499 -102624017 126689756 -1975518128 887814990 272455452 -959395772 766113039 666026540
REM
CELL 1.54180   50.00000   50.00000   50.00000   90.00000   90.00000   90.00000
LATT -1
SFAC C  
C      1  0.5343010000000  0.4270570000000  0.4401730000000 1.0
C      1  0.5343000000000  0.5884100000000  0.4672460000000 1.0
C      1  0.5343010000000  0.4842880000000  0.5934450000000 1.0
C      1  0.4663570000000  0.5727790000000  0.4401730000000 1.0
C      1  0.4663570000000  0.4114260000000  0.4672460000000 1.0
C      1  0.4663570000000  0.5155490000000  0.5934450000000 1.0
C      1  0.4942370000000  0.5275100000000  0.4495470000000 1.0
C      1  0.4942370000000  0.5300650000000  0.5495540000000 1.0
C      1  0.4942370000000  0.4421790000000  0.5017630000000 1.0
C      1  0.5064200000000  0.4723260000000  0.4495470000000 1.0
C      1  0.5064200000000  0.4697710000000  0.5495540000000 1.0
C      1  0.5064200000000  0.5576570000000  0.5017630000000 1.0
C      1  0.5516240000000  0.5117190000000  0.4356170000000 1.0
C      1  0.5516240000000  0.5500240000000  0.5428430000000 1.0
C      1  0.5516240000000  0.4380110000000  0.5224030000000 1.0
C      1  0.4490340000000  0.4881170000000  0.4356170000000 1.0
C      1  0.4490340000000  0.4498130000000  0.5428430000000 1.0
C      1  0.4490340000000  0.5618250000000  0.5224030000000 1.0
C      1  0.5641290000000  0.5579250000000  0.4462300000000 1.0
C      1  0.5641290000000  0.5177300000000  0.5775520000000 1.0
C      1  0.5641290000000  0.4240990000000  0.4770810000000 1.0
C      1  0.4365290000000  0.4419110000000  0.4462300000000 1.0
C      1  0.4365290000000  0.4821060000000  0.5775520000000 1.0
C      1  0.4365290000000  0.5757370000000  0.4770810000000 1.0
C      1  0.5138620000000  0.4218560000000  0.4602870000000 1.0
C      1  0.5138620000000  0.5735910000000  0.4526840000000 1.0
C      1  0.5138620000000  0.5043080000000  0.5878920000000 1.0
C      1  0.4867950000000  0.5779810000000  0.4602870000000 1.0
C      1  0.4867950000000  0.4262450000000  0.4526840000000 1.0
C      1  0.4867950000000  0.4955280000000  0.5878920000000 1.0
C      1  0.4543020000000  0.5268530000000  0.4874120000000 1.0
C      1  0.4543020000000  0.4976010000000  0.5300520000000 1.0
C      1  0.4543020000000  0.4753000000000  0.4833990000000 1.0
C      1  0.5463560000000  0.4729830000000  0.4874120000000 1.0
C      1  0.5463560000000  0.5022350000000  0.5300520000000 1.0
C      1  0.5463560000000  0.5245360000000  0.4833990000000 1.0
C      1  0.5494380000000  0.4835760000000  0.4268670000000 1.0
C      1  0.5494380000000  0.5716740000000  0.5228450000000 1.0
C      1  0.5494380000000  0.4445050000000  0.5511510000000 1.0
C      1  0.4512190000000  0.5162600000000  0.4268670000000 1.0
C      1  0.4512190000000  0.4281630000000  0.5228450000000 1.0
C      1  0.4512190000000  0.5553310000000  0.5511510000000 1.0
C      1  0.5442840000000  0.4238690000000  0.4986590000000 1.0
C      1  0.5442840000000  0.5393530000000  0.4352410000000 1.0
C      1  0.5442840000000  0.5365330000000  0.5669630000000 1.0
C      1  0.4563730000000  0.5759680000000  0.4986590000000 1.0
C      1  0.4563730000000  0.4604830000000  0.4352410000000 1.0
C      1  0.4563730000000  0.4633040000000  0.5669630000000 1.0
C      1  0.5656400000000  0.4696240000000  0.5581230000000 1.0
C      1  0.5656400000000  0.4649790000000  0.4451350000000 1.0
C      1  0.5656400000000  0.5651520000000  0.4976060000000 1.0
C      1  0.4350180000000  0.5302120000000  0.5581230000000 1.0
C      1  0.4350180000000  0.5348580000000  0.4451350000000 1.0
C      1  0.4350180000000  0.4346840000000  0.4976060000000 1.0
C      1  0.5595390000000  0.4363600000000  0.4512430000000 1.0
C      1  0.5595390000000  0.5741710000000  0.4697680000000 1.0
C      1  0.5595390000000  0.4892230000000  0.5798530000000 1.0
C      1  0.4411190000000  0.5634760000000  0.4512430000000 1.0
C      1  0.4411190000000  0.4256650000000  0.4697680000000 1.0
C      1  0.4411190000000  0.5106130000000  0.5798530000000 1.0
C      1  0.5194530000000  0.4896070000000  0.5291040000000 1.0
C      1  0.5194530000000  0.4801180000000  0.4769500000000 1.0
C      1  0.5194530000000  0.5300300000000  0.4948090000000 1.0
C      1  0.4812040000000  0.5102290000000  0.5291040000000 1.0
C      1  0.4812040000000  0.5197180000000  0.4769500000000 1.0
C      1  0.4812040000000  0.4698070000000  0.4948090000000 1.0
C      1  0.5237150000000  0.4707460000000  0.4254060000000 1.0
C      1  0.5237150000000  0.5793540000000  0.5124650000000 1.0
C      1  0.5237150000000  0.4496540000000  0.5629930000000 1.0
C      1  0.4769420000000  0.5290900000000  0.4254060000000 1.0
C      1  0.4769420000000  0.4204820000000  0.5124650000000 1.0
C      1  0.4769420000000  0.5501820000000  0.5629920000000 1.0
C      1  0.5587310000000  0.4639130000000  0.5112940000000 1.0
C      1  0.5587310000000  0.5083890000000  0.4636040000000 1.0
C      1  0.5587310000000  0.5274520000000  0.5259660000000 1.0
C      1  0.4419270000000  0.5359230000000  0.5112940000000 1.0
C      1  0.4419270000000  0.4914470000000  0.4636040000000 1.0
C      1  0.4419270000000  0.4723850000000  0.5259660000000 1.0
C      1  0.5177910000000  0.4287910000000  0.4884580000000 1.0
C      1  0.5177910000000  0.5457270000000  0.4446050000000 1.0
C      1  0.5177910000000  0.5252360000000  0.5678000000000 1.0
C      1  0.4828660000000  0.5710450000000  0.4884580000000 1.0
C      1  0.4828660000000  0.4541090000000  0.4446060000000 1.0
C      1  0.4828670000000  0.4746000000000  0.5678010000000 1.0
C      1  0.4747210000000  0.5568370000000  0.4179410000000 1.0
C      1  0.4747210000000  0.5427730000000  0.5907550000000 1.0
C      1  0.4747210000000  0.4001440000000  0.4921670000000 1.0
C      1  0.5259370000000  0.4429990000000  0.4179420000000 1.0
C      1  0.5259370000000  0.4570640000000  0.5907550000000 1.0
C      1  0.5259370000000  0.5996920000000  0.4921670000000 1.0
C      1  0.5660270000000  0.4815230000000  0.4688490000000 1.0
C      1  0.5660270000000  0.5363420000000  0.5000760000000 1.0
C      1  0.5660270000000  0.4818890000000  0.5319380000000 1.0
C      1  0.4346310000000  0.5183140000000  0.4688490000000 1.0
C      1  0.4346310000000  0.4634940000000  0.5000760000000 1.0
C      1  0.4346310000000  0.5179470000000  0.5319380000000 1.0
C      1  0.5003290000000  0.4999180000000  0.5002880000000 1.0
END
