TITL C-3623288-6813-1410 -128393.303250931 125000 -755.37361758177 0 0 125 (C1) n - 1
REM
REM in /home/nfs/bkarasulu/CARBON/AIRSS/Generating-Clusters/LCBOP/Higher-Symm/SD-CG/FIRE-CG
REM
REM
REM
REM
REM
REM ./C.cell (b20cbc046b6831c77cfcea5457e17084)
REM AIRSS Version 0.9.1 bugfix July 2018 build 013d7b7c2542+ Fri, 06 Jul 2018 19:26:36 +0100
REM compiler GCC version 9.2.1 20190827 (Red Hat 9.2.1-1)
REM options -cpp -mtune=generic -march=x86-64 -g -O0 -fpre-include=/usr/include/finclude/math-vector-fortran.h
REM seed -2081087323 -1087278825 -1155564131 2086943609 215856478 1754449547 501373339 -464542764 897797746 -2097727642 1512872498 -1023288604 1176815352 1552995676 1021761978 -296182050 -473573421 -1178942744 -2027921619 -689908765 -874530053 1853540411 -1684899556 -330640753 -2071100983 -1896622828 853794315 1368383506 1367756663 986539665 627698498 1928057805 -1063778022
REM
CELL 1.54180   50.00000   50.00000   50.00000   90.00000   90.00000   90.00000
LATT -1
SFAC C  
C      1  0.4584440000000  0.5155270000000  0.3960910000000 1.0
C      1  0.5412680000000  0.5183910000000  0.3970200000000 1.0
C      1  0.4906140000000  0.4595060000000  0.4064940000000 1.0
C      1  0.5937810000000  0.7150750000000  0.5616090000000 1.0
C      1  0.5986240000000  0.2875200000000  0.5717220000000 1.0
C      1  0.2772470000000  0.5402140000000  0.5975810000000 1.0
C      1  0.4395830000000  0.5147720000000  0.4644430000000 1.0
C      1  0.5570730000000  0.5408310000000  0.4697480000000 1.0
C      1  0.5070980000000  0.4371950000000  0.4754140000000 1.0
C      1  0.5690530000000  0.4837800000000  0.5256150000000 1.0
C      1  0.4419730000000  0.4721730000000  0.4949850000000 1.0
C      1  0.4944040000000  0.5666280000000  0.5296360000000 1.0
C      1  0.6015300000000  0.5514480000000  0.4589490000000 1.0
C      1  0.4893220000000  0.3933910000000  0.4730510000000 1.0
C      1  0.4170670000000  0.5547790000000  0.4770140000000 1.0
C      1  0.5407340000000  0.4685410000000  0.3998610000000 1.0
C      1  0.4405370000000  0.4680540000000  0.3999140000000 1.0
C      1  0.5025880000000  0.5502330000000  0.3957650000000 1.0
C      1  0.4196920000000  0.5270650000000  0.4809430000000 1.0
C      1  0.5780070000000  0.5645720000000  0.4697900000000 1.0
C      1  0.5142740000000  0.4064340000000  0.4789290000000 1.0
C      1  0.5380690000000  0.4068130000000  0.4960600000000 1.0
C      1  0.4079110000000  0.5084780000000  0.4994530000000 1.0
C      1  0.5652420000000  0.5840640000000  0.4882970000000 1.0
C      1  0.5205440000000  0.5322460000000  0.3871410000000 1.0
C      1  0.5141690000000  0.4666110000000  0.3954560000000 1.0
C      1  0.4508900000000  0.4905400000000  0.3890430000000 1.0
C      1  0.4818900000000  0.4942670000000  0.4778610000000 1.0
C      1  0.5073110000000  0.5302770000000  0.4778770000000 1.0
C      1  0.5263460000000  0.4858040000000  0.4753940000000 1.0
C      1  0.5545750000000  0.5377590000000  0.4385160000000 1.0
C      1  0.5030330000000  0.4363070000000  0.4450590000000 1.0
C      1  0.4350190000000  0.5181850000000  0.4368580000000 1.0
C      1  0.4751430000000  0.4533480000000  0.5629690000000 1.0
C      1  0.4861330000000  0.5356470000000  0.5803210000000 1.0
C      1  0.5431420000000  0.4955050000000  0.5831710000000 1.0
C      1  0.4866970000000  0.5912910000000  0.5402010000000 1.0
C      1  0.5938980000000  0.4831070000000  0.5383720000000 1.0
C      1  0.4398270000000  0.4417640000000  0.4887580000000 1.0
C      1  0.5589290000000  0.4725260000000  0.5882340000000 1.0
C      1  0.4477780000000  0.4469960000000  0.5586120000000 1.0
C      1  0.5008030000000  0.5597090000000  0.5860750000000 1.0
C      1  0.5602690000000  0.5024350000000  0.5061520000000 1.0
C      1  0.4769970000000  0.4622340000000  0.5081090000000 1.0
C      1  0.4768910000000  0.5495100000000  0.5150170000000 1.0
C      1  0.3457540000000  0.5181770000000  0.5648350000000 1.0
C      1  0.5713200000000  0.6407910000000  0.5465350000000 1.0
C      1  0.5691610000000  0.3587170000000  0.5540890000000 1.0
C      1  0.6016830000000  0.4802250000000  0.5639410000000 1.0
C      1  0.4353190000000  0.4263740000000  0.5123160000000 1.0
C      1  0.4803020000000  0.5986520000000  0.5653540000000 1.0
C      1  0.4672950000000  0.5552850000000  0.4281260000000 1.0
C      1  0.5717670000000  0.4930710000000  0.4283940000000 1.0
C      1  0.4543680000000  0.4442540000000  0.4401260000000 1.0
C      1  0.5300890000000  0.4578020000000  0.4756420000000 1.0
C      1  0.4545680000000  0.4929280000000  0.4745350000000 1.0
C      1  0.5277780000000  0.5488470000000  0.4749100000000 1.0
C      1  0.5041110000000  0.4242790000000  0.5233220000000 1.0
C      1  0.4261370000000  0.5392530000000  0.5307240000000 1.0
C      1  0.5745370000000  0.5473000000000  0.5166520000000 1.0
C      1  0.5784110000000  0.6659170000000  0.5510660000000 1.0
C      1  0.5795510000000  0.3349350000000  0.5593990000000 1.0
C      1  0.3225110000000  0.5255240000000  0.5752320000000 1.0
C      1  0.4521410000000  0.5720420000000  0.4450800000000 1.0
C      1  0.5958130000000  0.5020280000000  0.4411400000000 1.0
C      1  0.4507140000000  0.4294920000000  0.4648140000000 1.0
C      1  0.4407230000000  0.4283090000000  0.5385630000000 1.0
C      1  0.4852350000000  0.5835490000000  0.5872820000000 1.0
C      1  0.5869700000000  0.4759370000000  0.5861060000000 1.0
C      1  0.5534900000000  0.4450500000000  0.4388960000000 1.0
C      1  0.4130030000000  0.4743760000000  0.4387120000000 1.0
C      1  0.5167130000000  0.5717820000000  0.4362840000000 1.0
C      1  0.5296950000000  0.4114960000000  0.5233540000000 1.0
C      1  0.4078590000000  0.5177830000000  0.5265110000000 1.0
C      1  0.5672690000000  0.5749120000000  0.5161450000000 1.0
C      1  0.4088370000000  0.4830530000000  0.5617300000000 1.0
C      1  0.5473470000000  0.5748590000000  0.5630970000000 1.0
C      1  0.5445850000000  0.4249660000000  0.5687090000000 1.0
C      1  0.4923600000000  0.4403260000000  0.5025280000000 1.0
C      1  0.4496920000000  0.5489020000000  0.5219540000000 1.0
C      1  0.5678640000000  0.5275350000000  0.4970150000000 1.0
C      1  0.5440070000000  0.4064850000000  0.5473170000000 1.0
C      1  0.3954370000000  0.5038100000000  0.5480110000000 1.0
C      1  0.5597840000000  0.5878610000000  0.5407100000000 1.0
C      1  0.4484980000000  0.4901840000000  0.5270230000000 1.0
C      1  0.5165490000000  0.5501640000000  0.5367180000000 1.0
C      1  0.5467150000000  0.4689290000000  0.5364160000000 1.0
C      1  0.5285210000000  0.4312710000000  0.4317980000000 1.0
C      1  0.4135250000000  0.5013950000000  0.4285860000000 1.0
C      1  0.5423750000000  0.5614620000000  0.4268680000000 1.0
C      1  0.5892920000000  0.3110440000000  0.5654780000000 1.0
C      1  0.2996280000000  0.5329200000000  0.5863750000000 1.0
C      1  0.5860650000000  0.6907510000000  0.5562760000000 1.0
C      1  0.5207210000000  0.5225010000000  0.5416000000000 1.0
C      1  0.5188650000000  0.4752000000000  0.5394730000000 1.0
C      1  0.4591200000000  0.5030530000000  0.5468610000000 1.0
C      1  0.5597670000000  0.4214270000000  0.4839670000000 1.0
C      1  0.4123130000000  0.4808530000000  0.4909320000000 1.0
C      1  0.5401500000000  0.5939770000000  0.4775800000000 1.0
C      1  0.5219820000000  0.5756070000000  0.4649380000000 1.0
C      1  0.5549570000000  0.4445820000000  0.4677950000000 1.0
C      1  0.4026170000000  0.4715630000000  0.4652290000000 1.0
C      1  0.6059240000000  0.5258450000000  0.4500750000000 1.0
C      1  0.4649610000000  0.4045920000000  0.4677410000000 1.0
C      1  0.4319490000000  0.5721440000000  0.4627670000000 1.0
C      1  0.4943310000000  0.5616310000000  0.4205980000000 1.0
C      1  0.5592430000000  0.4676510000000  0.4219740000000 1.0
C      1  0.4337170000000  0.4585290000000  0.4261160000000 1.0
C      1  0.5284980000000  0.5647020000000  0.5798440000000 1.0
C      1  0.5489110000000  0.4463770000000  0.5842210000000 1.0
C      1  0.4269460000000  0.4641040000000  0.5672570000000 1.0
C      1  0.4926170000000  0.5307260000000  0.5016060000000 1.0
C      1  0.5334990000000  0.4977630000000  0.5002040000000 1.0
C      1  0.4884360000000  0.4866810000000  0.5051060000000 1.0
C      1  0.4540670000000  0.5307160000000  0.4196090000000 1.0
C      1  0.5557040000000  0.5156050000000  0.4210690000000 1.0
C      1  0.4814540000000  0.4466550000000  0.4300930000000 1.0
C      1  0.4711330000000  0.5180650000000  0.5660780000000 1.0
C      1  0.5330130000000  0.5130720000000  0.5655760000000 1.0
C      1  0.4990740000000  0.4635900000000  0.5559760000000 1.0
C      1  0.5651370000000  0.6152650000000  0.5431380000000 1.0
C      1  0.5577510000000  0.3822900000000  0.5501290000000 1.0
C      1  0.3695550000000  0.5109130000000  0.5557680000000 1.0
C      1  0.5056240000000  0.5039690000000  0.4655700000000 1.0
C      1  0.5111350000000  0.5013230000000  0.5208680000000 1.0
END
