TITL C-3623284-6838-1894 9.95632984209325e-08 125000 -1111.96618722869 0 0 182 (C1) n - 1
REM
REM in /home/nfs/bkarasulu/CARBON/AIRSS/Generating-Clusters/LCBOP/Higher-Symm/SD-CG/FIRE-CG
REM
REM
REM
REM
REM
REM ./C.cell (b20cbc046b6831c77cfcea5457e17084)
REM AIRSS Version 0.9.1 bugfix July 2018 build 013d7b7c2542+ Fri, 06 Jul 2018 19:26:36 +0100
REM compiler GCC version 9.2.1 20190827 (Red Hat 9.2.1-1)
REM options -cpp -mtune=generic -march=x86-64 -g -O0 -fpre-include=/usr/include/finclude/math-vector-fortran.h
REM seed 903496542 1970558952 -1240705343 -774668440 1599923577 -1211612167 -182226039 1001584883 -791800034 817523190 -757397405 -1236173304 -1569404385 488367696 -366020086 1014923594 -617525552 1889881951 -1343596453 -196642575 307143864 1364357607 -1735223655 -356579911 2035440599 1526099588 1662279608 1077479722 -1828963902 1076299071 412028288 -644277019 -730763182
REM
CELL 1.54180   50.00000   50.00000   50.00000   90.00000   90.00000   90.00000
LATT -1
SFAC C  
C      1  0.5300650000000  0.3784500000000  0.5257020000000 1.0
C      1  0.5004420000000  0.6007360000000  0.5195800000000 1.0
C      1  0.4976740000000  0.5138010000000  0.3858790000000 1.0
C      1  0.4963550000000  0.4839090000000  0.3876950000000 1.0
C      1  0.5590700000000  0.4669840000000  0.5540830000000 1.0
C      1  0.5527000000000  0.5351100000000  0.5509940000000 1.0
C      1  0.4484450000000  0.5234820000000  0.4010250000000 1.0
C      1  0.4457380000000  0.4756210000000  0.4037030000000 1.0
C      1  0.4187790000000  0.4863190000000  0.4038620000000 1.0
C      1  0.4203640000000  0.5157290000000  0.4032580000000 1.0
C      1  0.4288180000000  0.4925260000000  0.5165620000000 1.0
C      1  0.4354930000000  0.5188420000000  0.5275030000000 1.0
C      1  0.4396750000000  0.5715270000000  0.5573160000000 1.0
C      1  0.4161280000000  0.4317250000000  0.5503150000000 1.0
C      1  0.4936830000000  0.5515340000000  0.5867020000000 1.0
C      1  0.4898050000000  0.4611440000000  0.5945710000000 1.0
C      1  0.4539770000000  0.3999310000000  0.4533200000000 1.0
C      1  0.4514680000000  0.6033610000000  0.4421940000000 1.0
C      1  0.5441490000000  0.5352850000000  0.4006150000000 1.0
C      1  0.5417180000000  0.4581120000000  0.3981840000000 1.0
C      1  0.4859630000000  0.5803840000000  0.4160130000000 1.0
C      1  0.4860730000000  0.4233840000000  0.4271440000000 1.0
C      1  0.5608410000000  0.4113400000000  0.4247800000000 1.0
C      1  0.5625400000000  0.5764260000000  0.4359200000000 1.0
C      1  0.5447870000000  0.6049180000000  0.5622910000000 1.0
C      1  0.5602460000000  0.4020210000000  0.5541690000000 1.0
C      1  0.5549170000000  0.5592630000000  0.4155710000000 1.0
C      1  0.5515200000000  0.4315650000000  0.4083890000000 1.0
C      1  0.5634680000000  0.3949670000000  0.4473610000000 1.0
C      1  0.5602570000000  0.5916700000000  0.4593600000000 1.0
C      1  0.4816660000000  0.5280150000000  0.5467320000000 1.0
C      1  0.4855420000000  0.4640860000000  0.5483150000000 1.0
C      1  0.5034580000000  0.5377300000000  0.5639490000000 1.0
C      1  0.5057500000000  0.4665650000000  0.5688820000000 1.0
C      1  0.5630480000000  0.4667280000000  0.5234360000000 1.0
C      1  0.5527110000000  0.5181320000000  0.5285660000000 1.0
C      1  0.4627580000000  0.4735350000000  0.5995590000000 1.0
C      1  0.4565510000000  0.5017510000000  0.6070510000000 1.0
C      1  0.5318990000000  0.4996720000000  0.5284710000000 1.0
C      1  0.5332520000000  0.4745780000000  0.5133000000000 1.0
C      1  0.5155810000000  0.5362670000000  0.3932180000000 1.0
C      1  0.5131550000000  0.4610970000000  0.3954930000000 1.0
C      1  0.4822170000000  0.4778460000000  0.4842000000000 1.0
C      1  0.4920180000000  0.5369470000000  0.4862590000000 1.0
C      1  0.4000260000000  0.4715670000000  0.4223910000000 1.0
C      1  0.4028520000000  0.5319320000000  0.4217750000000 1.0
C      1  0.5726010000000  0.4778910000000  0.4477480000000 1.0
C      1  0.5746440000000  0.5073700000000  0.4486220000000 1.0
C      1  0.4981020000000  0.5976100000000  0.4371410000000 1.0
C      1  0.5002190000000  0.4098360000000  0.4492440000000 1.0
C      1  0.4992730000000  0.4353410000000  0.6031040000000 1.0
C      1  0.4992610000000  0.5673220000000  0.6089250000000 1.0
C      1  0.5669390000000  0.5636610000000  0.5940510000000 1.0
C      1  0.5719780000000  0.4397060000000  0.5963780000000 1.0
C      1  0.5502380000000  0.5188010000000  0.4577750000000 1.0
C      1  0.5454130000000  0.4678940000000  0.4590950000000 1.0
C      1  0.4317540000000  0.6032030000000  0.4625950000000 1.0
C      1  0.4297460000000  0.4013030000000  0.4673840000000 1.0
C      1  0.4700100000000  0.5231770000000  0.3828580000000 1.0
C      1  0.4682530000000  0.4758990000000  0.3871000000000 1.0
C      1  0.4981920000000  0.4741280000000  0.4415520000000 1.0
C      1  0.5080200000000  0.5306130000000  0.4403440000000 1.0
C      1  0.5629270000000  0.4154350000000  0.5813940000000 1.0
C      1  0.5554200000000  0.5894770000000  0.5865120000000 1.0
C      1  0.5801390000000  0.4692760000000  0.4214190000000 1.0
C      1  0.5829970000000  0.5173920000000  0.4228740000000 1.0
C      1  0.4752060000000  0.6277860000000  0.5523730000000 1.0
C      1  0.4241240000000  0.3592780000000  0.5369360000000 1.0
C      1  0.4435080000000  0.5570940000000  0.4312030000000 1.0
C      1  0.4377720000000  0.4406220000000  0.4326670000000 1.0
C      1  0.4512600000000  0.5886020000000  0.5350190000000 1.0
C      1  0.4244540000000  0.4127030000000  0.5312940000000 1.0
C      1  0.5781760000000  0.5770520000000  0.5091450000000 1.0
C      1  0.5693370000000  0.4418630000000  0.5077960000000 1.0
C      1  0.4387250000000  0.5268180000000  0.4740630000000 1.0
C      1  0.4306550000000  0.4819370000000  0.4882810000000 1.0
C      1  0.4235190000000  0.3852420000000  0.5347910000000 1.0
C      1  0.4765400000000  0.6049470000000  0.5369000000000 1.0
C      1  0.4773790000000  0.6106370000000  0.4520280000000 1.0
C      1  0.4800510000000  0.3946930000000  0.4642230000000 1.0
C      1  0.5285970000000  0.5113540000000  0.4399030000000 1.0
C      1  0.5246860000000  0.4825780000000  0.4414010000000 1.0
C      1  0.4252430000000  0.5827550000000  0.4817500000000 1.0
C      1  0.4207070000000  0.4236750000000  0.4825440000000 1.0
C      1  0.6237810000000  0.5223650000000  0.5397960000000 1.0
C      1  0.6272460000000  0.4959920000000  0.5455980000000 1.0
C      1  0.5861850000000  0.4210790000000  0.5156250000000 1.0
C      1  0.5761780000000  0.6004360000000  0.5246320000000 1.0
C      1  0.4010080000000  0.4528890000000  0.5382870000000 1.0
C      1  0.4150790000000  0.5577440000000  0.5495410000000 1.0
C      1  0.5009680000000  0.5616210000000  0.3999290000000 1.0
C      1  0.4982820000000  0.4387790000000  0.4069000000000 1.0
C      1  0.5343760000000  0.4734750000000  0.5692630000000 1.0
C      1  0.5309800000000  0.5292650000000  0.5684760000000 1.0
C      1  0.5421350000000  0.4835580000000  0.5962820000000 1.0
C      1  0.5399680000000  0.5189910000000  0.5952400000000 1.0
C      1  0.4105520000000  0.5608690000000  0.4673470000000 1.0
C      1  0.4067140000000  0.4455440000000  0.4681240000000 1.0
C      1  0.4797310000000  0.6050930000000  0.4791780000000 1.0
C      1  0.4857510000000  0.3893740000000  0.4909860000000 1.0
C      1  0.5459370000000  0.3944060000000  0.4710650000000 1.0
C      1  0.5355420000000  0.5964920000000  0.4749150000000 1.0
C      1  0.4999810000000  0.4909860000000  0.4997020000000 1.0
C      1  0.5097990000000  0.5152430000000  0.4901060000000 1.0
C      1  0.4605080000000  0.5346130000000  0.5277160000000 1.0
C      1  0.4800500000000  0.4426110000000  0.5308860000000 1.0
C      1  0.4565560000000  0.5533900000000  0.5070340000000 1.0
C      1  0.4583850000000  0.4409800000000  0.5116800000000 1.0
C      1  0.4217380000000  0.5136570000000  0.5715120000000 1.0
C      1  0.4200500000000  0.4857490000000  0.5659380000000 1.0
C      1  0.4911930000000  0.5864140000000  0.4965220000000 1.0
C      1  0.4968560000000  0.4038850000000  0.5104790000000 1.0
C      1  0.4915800000000  0.5951720000000  0.6069720000000 1.0
C      1  0.4936380000000  0.4116930000000  0.5860940000000 1.0
C      1  0.5877780000000  0.5540910000000  0.5785340000000 1.0
C      1  0.5933790000000  0.4545620000000  0.5863920000000 1.0
C      1  0.4421320000000  0.5784210000000  0.5074950000000 1.0
C      1  0.4345810000000  0.4255830000000  0.5080570000000 1.0
C      1  0.4406540000000  0.5129250000000  0.4497440000000 1.0
C      1  0.4487860000000  0.4853960000000  0.4542110000000 1.0
C      1  0.6029930000000  0.4560120000000  0.4149110000000 1.0
C      1  0.6068320000000  0.5291970000000  0.4171920000000 1.0
C      1  0.5378840000000  0.5124500000000  0.4824100000000 1.0
C      1  0.5426990000000  0.4839450000000  0.4857900000000 1.0
C      1  0.4168480000000  0.5295330000000  0.5477010000000 1.0
C      1  0.4129080000000  0.4784580000000  0.5381800000000 1.0
C      1  0.4444450000000  0.4686170000000  0.5745160000000 1.0
C      1  0.4491500000000  0.5210200000000  0.5839610000000 1.0
C      1  0.5616360000000  0.5110690000000  0.4027900000000 1.0
C      1  0.5605350000000  0.4804350000000  0.4018620000000 1.0
C      1  0.5227120000000  0.6202300000000  0.5743330000000 1.0
C      1  0.5319420000000  0.3897450000000  0.5528190000000 1.0
C      1  0.5875390000000  0.4686030000000  0.5632030000000 1.0
C      1  0.5806290000000  0.5432160000000  0.5541830000000 1.0
C      1  0.5376770000000  0.4100520000000  0.5951830000000 1.0
C      1  0.5367440000000  0.5937930000000  0.6091850000000 1.0
C      1  0.5041460000000  0.5612140000000  0.4945430000000 1.0
C      1  0.5027270000000  0.4294340000000  0.5204860000000 1.0
C      1  0.5867000000000  0.4856750000000  0.5210400000000 1.0
C      1  0.5797560000000  0.5131150000000  0.5198480000000 1.0
C      1  0.4572220000000  0.5806530000000  0.4243600000000 1.0
C      1  0.4570390000000  0.4199490000000  0.4325040000000 1.0
C      1  0.5272480000000  0.5660320000000  0.6173890000000 1.0
C      1  0.5276890000000  0.4341980000000  0.6099720000000 1.0
C      1  0.5486490000000  0.4556420000000  0.6090110000000 1.0
C      1  0.5470950000000  0.5457870000000  0.6085570000000 1.0
C      1  0.5160920000000  0.5842870000000  0.4548060000000 1.0
C      1  0.5253430000000  0.4144740000000  0.4613540000000 1.0
C      1  0.5972070000000  0.6166080000000  0.5306600000000 1.0
C      1  0.6132180000000  0.4206930000000  0.5134720000000 1.0
C      1  0.4784260000000  0.4885550000000  0.4570180000000 1.0
C      1  0.4829320000000  0.5215520000000  0.4388920000000 1.0
C      1  0.4098530000000  0.4474120000000  0.4388800000000 1.0
C      1  0.4151780000000  0.5544900000000  0.4379440000000 1.0
C      1  0.4485630000000  0.4666140000000  0.4305870000000 1.0
C      1  0.4562530000000  0.5294560000000  0.4295530000000 1.0
C      1  0.3786410000000  0.4891360000000  0.4300350000000 1.0
C      1  0.3800400000000  0.5164950000000  0.4297330000000 1.0
C      1  0.5580340000000  0.5609310000000  0.5017290000000 1.0
C      1  0.5445370000000  0.4359540000000  0.4951280000000 1.0
C      1  0.4675780000000  0.4550300000000  0.4893710000000 1.0
C      1  0.4629870000000  0.5385490000000  0.4839120000000 1.0
C      1  0.5143460000000  0.6113660000000  0.6004060000000 1.0
C      1  0.5175710000000  0.3980530000000  0.5768320000000 1.0
C      1  0.5386810000000  0.4396580000000  0.4673680000000 1.0
C      1  0.5158100000000  0.5562580000000  0.4494390000000 1.0
C      1  0.4641540000000  0.4808840000000  0.5547330000000 1.0
C      1  0.4682050000000  0.5082090000000  0.5619720000000 1.0
C      1  0.5501640000000  0.3878460000000  0.5060050000000 1.0
C      1  0.5292650000000  0.6050700000000  0.5108330000000 1.0
C      1  0.3903950000000  0.5176160000000  0.4851780000000 1.0
C      1  0.3854000000000  0.4909820000000  0.4828090000000 1.0
C      1  0.4117420000000  0.5353630000000  0.4806300000000 1.0
C      1  0.4055060000000  0.4711630000000  0.4804400000000 1.0
C      1  0.5314060000000  0.5583910000000  0.5019660000000 1.0
C      1  0.5233190000000  0.4461540000000  0.5114670000000 1.0
C      1  0.5492380000000  0.6055000000000  0.5332180000000 1.0
C      1  0.5704240000000  0.3999150000000  0.5258040000000 1.0
C      1  0.4497170000000  0.5532410000000  0.5792550000000 1.0
C      1  0.4340600000000  0.4406680000000  0.5708080000000 1.0
C      1  0.6048920000000  0.4790850000000  0.5431140000000 1.0
C      1  0.5976170000000  0.5314410000000  0.5343760000000 1.0
END
