TITL C-3623286-7563-962 -7.28205032629035e-07 125000 -711.688691139817 0 0 114 (C1) n - 1
REM
REM in /home/nfs/bkarasulu/CARBON/AIRSS/Generating-Clusters/LCBOP/Higher-Symm/SD-CG/FIRE-CG
REM
REM
REM
REM
REM
REM ./C.cell (b20cbc046b6831c77cfcea5457e17084)
REM AIRSS Version 0.9.1 bugfix July 2018 build 013d7b7c2542+ Fri, 06 Jul 2018 19:26:36 +0100
REM compiler GCC version 9.2.1 20190827 (Red Hat 9.2.1-1)
REM options -cpp -mtune=generic -march=x86-64 -g -O0 -fpre-include=/usr/include/finclude/math-vector-fortran.h
REM seed -759721346 -1193165467 -676643857 692855758 1328538558 -502083632 683103083 1668091659 1607681401 1452528895 725236782 1704361541 -1085155548 -206703620 1368326071 -1914244745 103581843 -360764285 -1557051683 -1784837350 -309219811 1296094320 -844400772 -797968276 -1872060777 -1226883516 863662811 1230025266 65468488 37136862 -19090880 -1505560523 408975308
REM
CELL 1.54180   50.00000   50.00000   50.00000   90.00000   90.00000   90.00000
LATT -1
SFAC C  
C      1  0.4969510000000  0.4842050000000  0.5988330000000 1.0
C      1  0.4867600000000  0.5910040000000  0.5511220000000 1.0
C      1  0.4979670000000  0.5689050000000  0.4339130000000 1.0
C      1  0.4927830000000  0.4549600000000  0.4088580000000 1.0
C      1  0.4933960000000  0.3985440000000  0.5142280000000 1.0
C      1  0.4871030000000  0.3983590000000  0.4864340000000 1.0
C      1  0.4944240000000  0.4579820000000  0.5885330000000 1.0
C      1  0.4839180000000  0.5749550000000  0.5742550000000 1.0
C      1  0.4940770000000  0.5842990000000  0.4577280000000 1.0
C      1  0.4893930000000  0.4816200000000  0.3990160000000 1.0
C      1  0.5628990000000  0.4734970000000  0.5751730000000 1.0
C      1  0.5544090000000  0.5775090000000  0.5758240000000 1.0
C      1  0.5635520000000  0.5680880000000  0.4752280000000 1.0
C      1  0.5586520000000  0.4802130000000  0.4074250000000 1.0
C      1  0.5561430000000  0.4065020000000  0.4872980000000 1.0
C      1  0.5314720000000  0.5603000000000  0.5735410000000 1.0
C      1  0.5365200000000  0.5718340000000  0.4859450000000 1.0
C      1  0.5366580000000  0.4984280000000  0.4102820000000 1.0
C      1  0.5321250000000  0.4158280000000  0.4744190000000 1.0
C      1  0.5395470000000  0.4584410000000  0.5658840000000 1.0
C      1  0.5072900000000  0.4222190000000  0.5579350000000 1.0
C      1  0.4981900000000  0.5346250000000  0.5975500000000 1.0
C      1  0.5004970000000  0.5988160000000  0.5039180000000 1.0
C      1  0.4995870000000  0.5294650000000  0.4022050000000 1.0
C      1  0.4970250000000  0.4151260000000  0.4410460000000 1.0
C      1  0.5371230000000  0.5081330000000  0.4376840000000 1.0
C      1  0.5376970000000  0.4423550000000  0.4635060000000 1.0
C      1  0.5449600000000  0.4566410000000  0.5369750000000 1.0
C      1  0.5353940000000  0.5396440000000  0.5540720000000 1.0
C      1  0.5325240000000  0.5460330000000  0.5024660000000 1.0
C      1  0.4852480000000  0.5391280000000  0.4816170000000 1.0
C      1  0.4861280000000  0.4972740000000  0.4556510000000 1.0
C      1  0.4970660000000  0.4601600000000  0.4858840000000 1.0
C      1  0.5035990000000  0.4806910000000  0.5314350000000 1.0
C      1  0.4943480000000  0.5312810000000  0.5290080000000 1.0
C      1  0.5867980000000  0.4582900000000  0.5700180000000 1.0
C      1  0.5770850000000  0.5694130000000  0.5598610000000 1.0
C      1  0.5837730000000  0.5665400000000  0.4962500000000 1.0
C      1  0.5833570000000  0.4915860000000  0.4163960000000 1.0
C      1  0.5774200000000  0.4047550000000  0.4682130000000 1.0
C      1  0.5125670000000  0.5872530000000  0.4805430000000 1.0
C      1  0.5099810000000  0.5024820000000  0.3990970000000 1.0
C      1  0.5065520000000  0.4060070000000  0.4667560000000 1.0
C      1  0.5155080000000  0.4450010000000  0.5738540000000 1.0
C      1  0.5055090000000  0.5594690000000  0.5853180000000 1.0
C      1  0.5544510000000  0.4540840000000  0.4172930000000 1.0
C      1  0.5621170000000  0.4166540000000  0.5129380000000 1.0
C      1  0.5636580000000  0.5015470000000  0.5701750000000 1.0
C      1  0.5548340000000  0.5997170000000  0.5916430000000 1.0
C      1  0.5649290000000  0.5469750000000  0.4556790000000 1.0
C      1  0.4184460000000  0.5347150000000  0.5257660000000 1.0
C      1  0.4177380000000  0.5386340000000  0.4712410000000 1.0
C      1  0.4179280000000  0.4865580000000  0.4538700000000 1.0
C      1  0.4189590000000  0.4544870000000  0.4981240000000 1.0
C      1  0.4214920000000  0.4840260000000  0.5409910000000 1.0
C      1  0.5319370000000  0.4774050000000  0.5231810000000 1.0
C      1  0.5208420000000  0.5417760000000  0.5301020000000 1.0
C      1  0.5129820000000  0.5316060000000  0.4852870000000 1.0
C      1  0.5129510000000  0.5005500000000  0.4487260000000 1.0
C      1  0.5257010000000  0.4625070000000  0.4788990000000 1.0
C      1  0.5849310000000  0.5040930000000  0.4406110000000 1.0
C      1  0.5775690000000  0.4219070000000  0.4469280000000 1.0
C      1  0.5881140000000  0.4414450000000  0.5483750000000 1.0
C      1  0.5792720000000  0.5452660000000  0.5443220000000 1.0
C      1  0.5798730000000  0.5453350000000  0.5156450000000 1.0
C      1  0.4751390000000  0.4402170000000  0.5275900000000 1.0
C      1  0.4737890000000  0.5086140000000  0.5647840000000 1.0
C      1  0.4644310000000  0.5688730000000  0.5139690000000 1.0
C      1  0.4644540000000  0.5342650000000  0.4358890000000 1.0
C      1  0.4669910000000  0.4513630000000  0.4491500000000 1.0
C      1  0.4251880000000  0.4713030000000  0.5671940000000 1.0
C      1  0.4195130000000  0.5541400000000  0.5479840000000 1.0
C      1  0.4227610000000  0.5646460000000  0.4579180000000 1.0
C      1  0.4211610000000  0.4804890000000  0.4251660000000 1.0
C      1  0.4195690000000  0.4255070000000  0.4943990000000 1.0
C      1  0.4909490000000  0.4175400000000  0.5350490000000 1.0
C      1  0.4882020000000  0.5093570000000  0.5896160000000 1.0
C      1  0.4819750000000  0.5895680000000  0.5233520000000 1.0
C      1  0.4858920000000  0.5464240000000  0.4207740000000 1.0
C      1  0.4843290000000  0.4383360000000  0.4304330000000 1.0
C      1  0.4298000000000  0.4632060000000  0.5225260000000 1.0
C      1  0.4294100000000  0.5108850000000  0.5389990000000 1.0
C      1  0.4230950000000  0.5453330000000  0.4997490000000 1.0
C      1  0.4225800000000  0.5159520000000  0.4544820000000 1.0
C      1  0.4246190000000  0.4649100000000  0.4710910000000 1.0
C      1  0.4394770000000  0.4984970000000  0.4119900000000 1.0
C      1  0.4389070000000  0.4182770000000  0.4743130000000 1.0
C      1  0.4463790000000  0.4516720000000  0.5663450000000 1.0
C      1  0.4402930000000  0.5475370000000  0.5670140000000 1.0
C      1  0.4417460000000  0.5810440000000  0.4722100000000 1.0
C      1  0.5586380000000  0.5295030000000  0.5033790000000 1.0
C      1  0.5613650000000  0.5162950000000  0.4550260000000 1.0
C      1  0.5568000000000  0.4409800000000  0.4419650000000 1.0
C      1  0.5658380000000  0.4380370000000  0.5307010000000 1.0
C      1  0.5605950000000  0.5255430000000  0.5558550000000 1.0
C      1  0.4801370000000  0.4707560000000  0.4648390000000 1.0
C      1  0.4900550000000  0.4600430000000  0.5143810000000 1.0
C      1  0.4905020000000  0.5053660000000  0.5417290000000 1.0
C      1  0.4775110000000  0.5443090000000  0.5094190000000 1.0
C      1  0.4741550000000  0.5234620000000  0.4602930000000 1.0
C      1  0.4576540000000  0.5655870000000  0.5792060000000 1.0
C      1  0.4663900000000  0.5908610000000  0.4626170000000 1.0
C      1  0.4621650000000  0.4904470000000  0.3974910000000 1.0
C      1  0.4598510000000  0.4002790000000  0.4787600000000 1.0
C      1  0.4677560000000  0.4490590000000  0.5841790000000 1.0
C      1  0.4420470000000  0.4433270000000  0.4593370000000 1.0
C      1  0.4497600000000  0.4470900000000  0.5374860000000 1.0
C      1  0.4481010000000  0.5200880000000  0.5602600000000 1.0
C      1  0.4402880000000  0.5700600000000  0.4993340000000 1.0
C      1  0.4396890000000  0.5216780000000  0.4299340000000 1.0
C      1  0.5097120000000  0.5045310000000  0.4926970000000 1.0
C      1  0.5570010000000  0.5068290000000  0.4850190000000 1.0
C      1  0.5353910000000  0.4868350000000  0.4942200000000 1.0
C      1  0.4825510000000  0.4993880000000  0.4986830000000 1.0
END
