TITL C-3623288-6813-477 1.2542931988803e-10 125000 -82.9326121196769 0 0 14 (D3h) n - 1
REM
REM in /home/nfs/bkarasulu/CARBON/AIRSS/Generating-Clusters/LCBOP/Higher-Symm/SD-CG/FIRE-CG
REM
REM
REM
REM
REM
REM ./C.cell (b20cbc046b6831c77cfcea5457e17084)
REM AIRSS Version 0.9.1 bugfix July 2018 build 013d7b7c2542+ Fri, 06 Jul 2018 19:26:36 +0100
REM compiler GCC version 9.2.1 20190827 (Red Hat 9.2.1-1)
REM options -cpp -mtune=generic -march=x86-64 -g -O0 -fpre-include=/usr/include/finclude/math-vector-fortran.h
REM seed -1276683728 -1617780377 1696678158 392257495 1054391869 -446114189 350982993 1969405729 1723551103 -601031548 -583938746 1485379309 1135979093 -547884241 -1324157439 633452112 1648996857 -1960373924 214725185 -76994273 42658512 1255586386 -1944515770 904608354 -1312447094 1927082594 595279387 -101150540 -1333644434 1535268201 1659511298 701889324 793352287
REM
CELL 1.54180   50.00000   50.00000   50.00000   90.00000   90.00000   90.00000
LATT -1
SFAC C  
C      1  0.4619240000000  0.4750860000000  0.4876180000000 1.0
C      1  0.4619230000000  0.5233840000000  0.4876160000000 1.0
C      1  0.4619230000000  0.4992370000000  0.5294450000000 1.0
C      1  0.5300090000000  0.5233860000000  0.4876170000000 1.0
C      1  0.5300100000000  0.4750870000000  0.4876190000000 1.0
C      1  0.5300090000000  0.4992380000000  0.5294460000000 1.0
C      1  0.5093510000000  0.4603140000000  0.4790910000000 1.0
C      1  0.5093500000000  0.5381570000000  0.4790880000000 1.0
C      1  0.5093490000000  0.4992380000000  0.5465030000000 1.0
C      1  0.4825820000000  0.5381570000000  0.4790870000000 1.0
C      1  0.4825840000000  0.4603140000000  0.4790900000000 1.0
C      1  0.4825820000000  0.4992380000000  0.5465030000000 1.0
C      1  0.5340610000000  0.4992370000000  0.5015610000000 1.0
C      1  0.4578710000000  0.4992360000000  0.5015600000000 1.0
END
