TITL C-3623286-7563-318 -0.021891276284386 125000 -287.324283186638 0 0 49 (C1) n - 1
REM
REM in /home/nfs/bkarasulu/CARBON/AIRSS/Generating-Clusters/LCBOP/Higher-Symm/SD-CG/FIRE-CG
REM
REM
REM
REM
REM
REM ./C.cell (b20cbc046b6831c77cfcea5457e17084)
REM AIRSS Version 0.9.1 bugfix July 2018 build 013d7b7c2542+ Fri, 06 Jul 2018 19:26:36 +0100
REM compiler GCC version 9.2.1 20190827 (Red Hat 9.2.1-1)
REM options -cpp -mtune=generic -march=x86-64 -g -O0 -fpre-include=/usr/include/finclude/math-vector-fortran.h
REM seed 554145672 1824113298 928546761 2067356644 -1201237322 -747318821 -130819777 547275907 821737911 1973350185 -1753977683 705642407 756923300 1955299145 -2067503275 1139000800 -826080306 -1218248507 716029195 1828715745 2046733279 597455984 887115522 146534920 -479060106 -778588082 -907282965 992060680 72867041 -154020646 2004119877 -993868413 1413795429
REM
CELL 1.54180   50.00000   50.00000   50.00000   90.00000   90.00000   90.00000
LATT -1
SFAC C  
C      1  0.4967010000000  0.4486180000000  0.4755170000000 1.0
C      1  0.5067500000000  0.5405250000000  0.4364500000000 1.0
C      1  0.4703220000000  0.5318490000000  0.7034390000000 1.0
C      1  0.4395340000000  0.4876770000000  0.5907530000000 1.0
C      1  0.4557340000000  0.4728580000000  0.4008090000000 1.0
C      1  0.5069930000000  0.5337290000000  0.4106910000000 1.0
C      1  0.5140990000000  0.5369520000000  0.4633970000000 1.0
C      1  0.4359990000000  0.4821880000000  0.5644610000000 1.0
C      1  0.4684760000000  0.4836380000000  0.4929700000000 1.0
C      1  0.5400570000000  0.5101040000000  0.5494050000000 1.0
C      1  0.4767710000000  0.4454300000000  0.3671750000000 1.0
C      1  0.4901430000000  0.5210400000000  0.5342100000000 1.0
C      1  0.4435410000000  0.4843970000000  0.4213740000000 1.0
C      1  0.4946960000000  0.4263830000000  0.4913360000000 1.0
C      1  0.5237710000000  0.5135380000000  0.5058840000000 1.0
C      1  0.4632930000000  0.5096640000000  0.6278780000000 1.0
C      1  0.4540540000000  0.4908530000000  0.5446650000000 1.0
C      1  0.4785180000000  0.4614380000000  0.3892250000000 1.0
C      1  0.5144180000000  0.4549790000000  0.4251610000000 1.0
C      1  0.5424590000000  0.5312250000000  0.4683970000000 1.0
C      1  0.5214710000000  0.4884780000000  0.3927850000000 1.0
C      1  0.5230750000000  0.5731860000000  0.4991870000000 1.0
C      1  0.5199290000000  0.4899700000000  0.4896710000000 1.0
C      1  0.4829260000000  0.5345370000000  0.5093320000000 1.0
C      1  0.4429360000000  0.4918200000000  0.4468500000000 1.0
C      1  0.4930630000000  0.5379660000000  0.4838240000000 1.0
C      1  0.5094150000000  0.5082490000000  0.5882520000000 1.0
C      1  0.4951160000000  0.4749410000000  0.4872000000000 1.0
C      1  0.4679740000000  0.5245280000000  0.6785280000000 1.0
C      1  0.5532030000000  0.5497400000000  0.5290990000000 1.0
C      1  0.4523980000000  0.4920280000000  0.4716230000000 1.0
C      1  0.4655870000000  0.5170850000000  0.6532010000000 1.0
C      1  0.5520130000000  0.4682880000000  0.4539760000000 1.0
C      1  0.5337620000000  0.5075750000000  0.5766240000000 1.0
C      1  0.4616230000000  0.5020320000000  0.6012250000000 1.0
C      1  0.5032850000000  0.4670760000000  0.4012840000000 1.0
C      1  0.5724410000000  0.5144550000000  0.5086000000000 1.0
C      1  0.5421380000000  0.4780980000000  0.4767990000000 1.0
C      1  0.5421630000000  0.4642890000000  0.4282300000000 1.0
C      1  0.4818940000000  0.5082910000000  0.5819330000000 1.0
C      1  0.5005810000000  0.4463320000000  0.4477610000000 1.0
C      1  0.5334860000000  0.5507300000000  0.5093960000000 1.0
C      1  0.5465680000000  0.4813950000000  0.4055100000000 1.0
C      1  0.5638520000000  0.5225080000000  0.4834390000000 1.0
C      1  0.4569900000000  0.4816280000000  0.5184940000000 1.0
C      1  0.4739790000000  0.5093570000000  0.5540730000000 1.0
C      1  0.5129160000000  0.5150530000000  0.3924940000000 1.0
C      1  0.5167830000000  0.5105010000000  0.5325790000000 1.0
C      1  0.5621070000000  0.5227830000000  0.5348310000000 1.0
END
