TITL C-3623284-6838-1640 6.99215256764964 125000 -796.530713799938 0 0 130 (C1) n - 1
REM
REM in /home/nfs/bkarasulu/CARBON/AIRSS/Generating-Clusters/LCBOP/Higher-Symm/SD-CG/FIRE-CG
REM
REM
REM
REM
REM
REM ./C.cell (b20cbc046b6831c77cfcea5457e17084)
REM AIRSS Version 0.9.1 bugfix July 2018 build 013d7b7c2542+ Fri, 06 Jul 2018 19:26:36 +0100
REM compiler GCC version 9.2.1 20190827 (Red Hat 9.2.1-1)
REM options -cpp -mtune=generic -march=x86-64 -g -O0 -fpre-include=/usr/include/finclude/math-vector-fortran.h
REM seed -427665214 1672030673 1216371279 1164106285 921217443 96114281 -1583220023 -336055364 1522552612 -1959982890 -1298082889 -893476176 1375498161 21803717 1828987179 2026158583 -699880615 862469731 5848120 -1639045147 -594640914 1697842388 1489692232 736826020 1492396310 -152035830 -2011988083 1510795204 905953483 -1029259979 -1050912898 530342786 -1749608507
REM
CELL 1.54180   50.00000   50.00000   50.00000   90.00000   90.00000   90.00000
LATT -1
SFAC C  
C      1  0.5437500000000  0.5073320000000  0.5060460000000 1.0
C      1  0.4879960000000  0.5836590000000  0.3978950000000 1.0
C      1  0.5644260000000  0.5433310000000  0.4281710000000 1.0
C      1  0.4293050000000  0.4675110000000  0.5382850000000 1.0
C      1  0.6011390000000  0.5321150000000  0.4774080000000 1.0
C      1  0.5217270000000  0.5395310000000  0.4459560000000 1.0
C      1  0.4797480000000  0.4795420000000  0.4014100000000 1.0
C      1  0.4548540000000  0.4372230000000  0.5683910000000 1.0
C      1  0.4443380000000  0.5341180000000  0.5679030000000 1.0
C      1  0.5309110000000  0.4270880000000  0.5508970000000 1.0
C      1  0.4894500000000  0.5539020000000  0.5879740000000 1.0
C      1  0.4990250000000  0.5451400000000  0.5346990000000 1.0
C      1  0.5320630000000  0.5547170000000  0.4978550000000 1.0
C      1  0.4408530000000  0.4834030000000  0.5820620000000 1.0
C      1  0.3970390000000  0.4769000000000  0.5049980000000 1.0
C      1  0.4129670000000  0.5599180000000  0.5399720000000 1.0
C      1  0.4374750000000  0.4533520000000  0.4425820000000 1.0
C      1  0.4079540000000  0.5231100000000  0.4478260000000 1.0
C      1  0.5290990000000  0.4863050000000  0.4923000000000 1.0
C      1  0.5834690000000  0.4967670000000  0.5650210000000 1.0
C      1  0.4225810000000  0.4752160000000  0.4310120000000 1.0
C      1  0.5333090000000  0.4067790000000  0.5030930000000 1.0
C      1  0.4767300000000  0.3670730000000  0.5778850000000 1.0
C      1  0.4772830000000  0.5921150000000  0.4999980000000 1.0
C      1  0.4516380000000  0.4500910000000  0.4923350000000 1.0
C      1  0.5283320000000  0.4944580000000  0.4487980000000 1.0
C      1  0.4224410000000  0.5342050000000  0.5485510000000 1.0
C      1  0.5406530000000  0.4827070000000  0.4247400000000 1.0
C      1  0.5099550000000  0.5907440000000  0.4117930000000 1.0
C      1  0.4769610000000  0.3931970000000  0.5734860000000 1.0
C      1  0.5524520000000  0.5973550000000  0.4853560000000 1.0
C      1  0.4547750000000  0.5177330000000  0.4319670000000 1.0
C      1  0.4957550000000  0.4965950000000  0.4179780000000 1.0
C      1  0.4697520000000  0.5072030000000  0.5401100000000 1.0
C      1  0.5903380000000  0.4750280000000  0.5455220000000 1.0
C      1  0.5641880000000  0.4331260000000  0.4740100000000 1.0
C      1  0.5707350000000  0.4336140000000  0.5220710000000 1.0
C      1  0.5096860000000  0.5162060000000  0.4032890000000 1.0
C      1  0.4395650000000  0.4611410000000  0.5643350000000 1.0
C      1  0.5184130000000  0.5557510000000  0.5822110000000 1.0
C      1  0.5641340000000  0.4454810000000  0.4478290000000 1.0
C      1  0.4808260000000  0.4982300000000  0.4967080000000 1.0
C      1  0.5024240000000  0.4327020000000  0.5582710000000 1.0
C      1  0.3682140000000  0.5462040000000  0.5363700000000 1.0
C      1  0.5104070000000  0.5058710000000  0.5646770000000 1.0
C      1  0.5448560000000  0.5527340000000  0.5747130000000 1.0
C      1  0.4848180000000  0.5232610000000  0.6254080000000 1.0
C      1  0.4536530000000  0.5394570000000  0.4904560000000 1.0
C      1  0.5061180000000  0.3998320000000  0.5037280000000 1.0
C      1  0.5435840000000  0.4361850000000  0.4281590000000 1.0
C      1  0.5314760000000  0.5789880000000  0.4823710000000 1.0
C      1  0.4811030000000  0.5892760000000  0.5281160000000 1.0
C      1  0.4546390000000  0.5465410000000  0.3943170000000 1.0
C      1  0.5916790000000  0.5126730000000  0.4597330000000 1.0
C      1  0.6024510000000  0.5343570000000  0.5040610000000 1.0
C      1  0.5056200000000  0.6011430000000  0.5373410000000 1.0
C      1  0.4407180000000  0.5569970000000  0.4719050000000 1.0
C      1  0.3761890000000  0.5205410000000  0.5406840000000 1.0
C      1  0.5109490000000  0.5849420000000  0.4624750000000 1.0
C      1  0.5455000000000  0.4178210000000  0.5263260000000 1.0
C      1  0.4939830000000  0.4618200000000  0.4591010000000 1.0
C      1  0.4050870000000  0.4624240000000  0.4833460000000 1.0
C      1  0.4444140000000  0.5101670000000  0.5835690000000 1.0
C      1  0.5729600000000  0.6132550000000  0.4877270000000 1.0
C      1  0.4483270000000  0.4679950000000  0.5170310000000 1.0
C      1  0.5684070000000  0.4897940000000  0.4261760000000 1.0
C      1  0.5381280000000  0.4084430000000  0.4304400000000 1.0
C      1  0.4823670000000  0.5858640000000  0.4722830000000 1.0
C      1  0.5768560000000  0.4457130000000  0.4965690000000 1.0
C      1  0.5037690000000  0.4817220000000  0.5033010000000 1.0
C      1  0.4884690000000  0.4972360000000  0.6207900000000 1.0
C      1  0.4732110000000  0.5698700000000  0.6310010000000 1.0
C      1  0.5225700000000  0.5580930000000  0.5244820000000 1.0
C      1  0.4988130000000  0.4339930000000  0.4542150000000 1.0
C      1  0.4972870000000  0.4607430000000  0.5533280000000 1.0
C      1  0.5577340000000  0.4939770000000  0.5781670000000 1.0
C      1  0.5256140000000  0.4566490000000  0.4164900000000 1.0
C      1  0.5383540000000  0.5071470000000  0.5604890000000 1.0
C      1  0.4101460000000  0.4985480000000  0.4368410000000 1.0
C      1  0.4036180000000  0.5115560000000  0.5414770000000 1.0
C      1  0.5791520000000  0.4697990000000  0.4452390000000 1.0
C      1  0.5860220000000  0.5234540000000  0.5520280000000 1.0
C      1  0.3868680000000  0.5659900000000  0.5352410000000 1.0
C      1  0.5767530000000  0.5174940000000  0.4345130000000 1.0
C      1  0.5893750000000  0.4727180000000  0.4946600000000 1.0
C      1  0.5271740000000  0.5842860000000  0.5358530000000 1.0
C      1  0.5363650000000  0.4711850000000  0.5351340000000 1.0
C      1  0.4766380000000  0.3413220000000  0.5819450000000 1.0
C      1  0.4822500000000  0.5493710000000  0.6153560000000 1.0
C      1  0.5329570000000  0.5196200000000  0.4617140000000 1.0
C      1  0.4897280000000  0.4544850000000  0.4087480000000 1.0
C      1  0.4178180000000  0.5454720000000  0.4593670000000 1.0
C      1  0.5503440000000  0.4668450000000  0.5828280000000 1.0
C      1  0.5482360000000  0.4522120000000  0.5571670000000 1.0
C      1  0.4943400000000  0.5396810000000  0.4445110000000 1.0
C      1  0.5954080000000  0.4875850000000  0.5193400000000 1.0
C      1  0.5206430000000  0.5289910000000  0.3833450000000 1.0
C      1  0.5081850000000  0.4683720000000  0.5281710000000 1.0
C      1  0.4637790000000  0.5711700000000  0.4052770000000 1.0
C      1  0.4733560000000  0.5230970000000  0.4521320000000 1.0
C      1  0.5402230000000  0.3959860000000  0.4545360000000 1.0
C      1  0.4617510000000  0.4403220000000  0.4284010000000 1.0
C      1  0.5960990000000  0.5169990000000  0.5250130000000 1.0
C      1  0.4801200000000  0.4058040000000  0.5035290000000 1.0
C      1  0.4289460000000  0.4510900000000  0.4718190000000 1.0
C      1  0.4991480000000  0.4808100000000  0.5739430000000 1.0
C      1  0.4726140000000  0.4630770000000  0.4761810000000 1.0
C      1  0.5763680000000  0.4498910000000  0.5453640000000 1.0
C      1  0.5472160000000  0.4098940000000  0.4782770000000 1.0
C      1  0.4706550000000  0.5190160000000  0.4800090000000 1.0
C      1  0.4771360000000  0.5638480000000  0.5414630000000 1.0
C      1  0.4544130000000  0.5792250000000  0.4307610000000 1.0
C      1  0.4773410000000  0.4215030000000  0.4425820000000 1.0
C      1  0.5400190000000  0.5289890000000  0.4883530000000 1.0
C      1  0.5015520000000  0.4854330000000  0.4448810000000 1.0
C      1  0.5904000000000  0.4843160000000  0.4680090000000 1.0
C      1  0.4630820000000  0.4921930000000  0.5179120000000 1.0
C      1  0.4075840000000  0.4848530000000  0.5306600000000 1.0
C      1  0.4941860000000  0.5198190000000  0.5462980000000 1.0
C      1  0.5232810000000  0.5823460000000  0.4351610000000 1.0
C      1  0.4586630000000  0.4950680000000  0.3903990000000 1.0
C      1  0.5444190000000  0.4991400000000  0.5331490000000 1.0
C      1  0.4583540000000  0.5760540000000  0.4584860000000 1.0
C      1  0.4597010000000  0.4226910000000  0.5001210000000 1.0
C      1  0.4781830000000  0.4201980000000  0.5669900000000 1.0
C      1  0.4674320000000  0.5536170000000  0.5674260000000 1.0
C      1  0.4523010000000  0.5198460000000  0.4036310000000 1.0
C      1  0.5395680000000  0.5576880000000  0.4333970000000 1.0
C      1  0.4929350000000  0.4795810000000  0.6011760000000 1.0
C      1  0.5683200000000  0.5440080000000  0.5628430000000 1.0
END
