TITL C-3623287-7182-311 -14.8626042396219 125000 -1034.14748881402 0 0 165 (C1) n - 1
REM
REM in /home/nfs/bkarasulu/CARBON/AIRSS/Generating-Clusters/LCBOP/Higher-Symm/SD-CG/FIRE-CG
REM
REM
REM
REM
REM
REM ./C.cell (b20cbc046b6831c77cfcea5457e17084)
REM AIRSS Version 0.9.1 bugfix July 2018 build 013d7b7c2542+ Fri, 06 Jul 2018 19:26:36 +0100
REM compiler GCC version 9.2.1 20190827 (Red Hat 9.2.1-1)
REM options -cpp -mtune=generic -march=x86-64 -g -O0 -fpre-include=/usr/include/finclude/math-vector-fortran.h
REM seed 524389499 -63081950 511723029 -1738736949 -783474080 -645951142 -357682098 -787048933 778110849 27105413 1884729096 1635259458 1568078610 -2088253090 -352389000 1953835866 -843276107 613308017 -224422352 83180352 -884841131 1957279615 -2039782151 764172619 918490558 1237611418 324571911 687132927 1772037658 -1008979473 685717117 414857657 -1046005532
REM
CELL 1.54180   50.00000   50.00000   50.00000   90.00000   90.00000   90.00000
LATT -1
SFAC C  
C      1  0.5590110000000  0.4217470000000  0.4988970000000 1.0
C      1  0.3994430000000  0.4888710000000  0.4992030000000 1.0
C      1  0.5402540000000  0.5923020000000  0.5002330000000 1.0
C      1  0.5855390000000  0.5910090000000  0.4850180000000 1.0
C      1  0.5371710000000  0.3817400000000  0.4856750000000 1.0
C      1  0.3791630000000  0.5290840000000  0.4837500000000 1.0
C      1  0.5063010000000  0.4023140000000  0.4394230000000 1.0
C      1  0.4171550000000  0.5421380000000  0.4476020000000 1.0
C      1  0.5794620000000  0.5506150000000  0.4490710000000 1.0
C      1  0.4262430000000  0.4086180000000  0.4893150000000 1.0
C      1  0.4574550000000  0.6094220000000  0.4896280000000 1.0
C      1  0.6183890000000  0.4817190000000  0.4893230000000 1.0
C      1  0.6095590000000  0.4734860000000  0.5168420000000 1.0
C      1  0.4236440000000  0.4207130000000  0.5166830000000 1.0
C      1  0.4690830000000  0.6057210000000  0.5168220000000 1.0
C      1  0.5056640000000  0.6154300000000  0.4740630000000 1.0
C      1  0.5979670000000  0.4374790000000  0.4738170000000 1.0
C      1  0.3965080000000  0.4470960000000  0.4733420000000 1.0
C      1  0.4806990000000  0.4784510000000  0.4025720000000 1.0
C      1  0.4923910000000  0.5270580000000  0.4084210000000 1.0
C      1  0.5262630000000  0.4934240000000  0.4143540000000 1.0
C      1  0.5960450000000  0.5009640000000  0.4453350000000 1.0
C      1  0.4525960000000  0.4162560000000  0.4440120000000 1.0
C      1  0.4516720000000  0.5812390000000  0.4453630000000 1.0
C      1  0.4670740000000  0.5477100000000  0.5214470000000 1.0
C      1  0.5614870000000  0.5047030000000  0.5207780000000 1.0
C      1  0.4748810000000  0.4518520000000  0.5191550000000 1.0
C      1  0.5166180000000  0.5623950000000  0.4731950000000 1.0
C      1  0.5391320000000  0.4538210000000  0.4723730000000 1.0
C      1  0.4365810000000  0.4819440000000  0.4698510000000 1.0
C      1  0.5493450000000  0.4807100000000  0.5690300000000 1.0
C      1  0.4576130000000  0.4683060000000  0.5692070000000 1.0
C      1  0.4936230000000  0.5528300000000  0.5691760000000 1.0
C      1  0.5956260000000  0.4599390000000  0.5670760000000 1.0
C      1  0.4180200000000  0.4377630000000  0.5678730000000 1.0
C      1  0.4878910000000  0.6028680000000  0.5669860000000 1.0
C      1  0.4948910000000  0.5283110000000  0.5830960000000 1.0
C      1  0.5270380000000  0.4916040000000  0.5826390000000 1.0
C      1  0.4786840000000  0.4821980000000  0.5821330000000 1.0
C      1  0.5533950000000  0.4756890000000  0.4694990000000 1.0
C      1  0.4478560000000  0.4585790000000  0.4686490000000 1.0
C      1  0.4911210000000  0.5588820000000  0.4679340000000 1.0
C      1  0.4893950000000  0.5017210000000  0.4581080000000 1.0
C      1  0.5125560000000  0.5169850000000  0.4522100000000 1.0
C      1  0.4947250000000  0.4763700000000  0.4466300000000 1.0
C      1  0.5627330000000  0.4768700000000  0.5252000000000 1.0
C      1  0.4485710000000  0.4612730000000  0.5243400000000 1.0
C      1  0.4905690000000  0.5633690000000  0.5246220000000 1.0
C      1  0.5970270000000  0.5480190000000  0.5144070000000 1.0
C      1  0.4946270000000  0.3939210000000  0.5151980000000 1.0
C      1  0.4104080000000  0.5590510000000  0.5147840000000 1.0
C      1  0.5372980000000  0.5197440000000  0.5240100000000 1.0
C      1  0.4997380000000  0.4662680000000  0.5217000000000 1.0
C      1  0.4626660000000  0.5196050000000  0.5247790000000 1.0
C      1  0.5727200000000  0.5112390000000  0.4963110000000 1.0
C      1  0.4750860000000  0.4335220000000  0.4986470000000 1.0
C      1  0.4544510000000  0.5540560000000  0.4974370000000 1.0
C      1  0.5356620000000  0.5473610000000  0.5360240000000 1.0
C      1  0.5228160000000  0.4503730000000  0.5336310000000 1.0
C      1  0.4382910000000  0.5068670000000  0.5371910000000 1.0
C      1  0.4719450000000  0.4326430000000  0.4226190000000 1.0
C      1  0.4557370000000  0.5561550000000  0.4265490000000 1.0
C      1  0.5716030000000  0.5099770000000  0.4275430000000 1.0
C      1  0.4248930000000  0.4497140000000  0.5132260000000 1.0
C      1  0.4932050000000  0.5895030000000  0.5134320000000 1.0
C      1  0.5832440000000  0.4611650000000  0.5136380000000 1.0
C      1  0.5723780000000  0.4698330000000  0.5825610000000 1.0
C      1  0.4380760000000  0.4528160000000  0.5835010000000 1.0
C      1  0.4909790000000  0.5781070000000  0.5825550000000 1.0
C      1  0.5595740000000  0.4532650000000  0.6029290000000 1.0
C      1  0.4306840000000  0.4714280000000  0.6047590000000 1.0
C      1  0.5109400000000  0.5756400000000  0.6036660000000 1.0
C      1  0.5841110000000  0.5460120000000  0.5416280000000 1.0
C      1  0.4992990000000  0.4075050000000  0.5411900000000 1.0
C      1  0.4179570000000  0.5499310000000  0.5423980000000 1.0
C      1  0.5532980000000  0.4110360000000  0.5833270000000 1.0
C      1  0.3956690000000  0.4974000000000  0.5873180000000 1.0
C      1  0.5509000000000  0.5922390000000  0.5854500000000 1.0
C      1  0.3873170000000  0.5480040000000  0.5016650000000 1.0
C      1  0.5985530000000  0.5739350000000  0.5018910000000 1.0
C      1  0.5160030000000  0.3794460000000  0.5027400000000 1.0
C      1  0.6024220000000  0.4727620000000  0.4433080000000 1.0
C      1  0.4249390000000  0.4251090000000  0.4426050000000 1.0
C      1  0.4727370000000  0.6014180000000  0.4433940000000 1.0
C      1  0.5309780000000  0.5181530000000  0.4755310000000 1.0
C      1  0.4942870000000  0.4541200000000  0.4622240000000 1.0
C      1  0.4702260000000  0.5139730000000  0.4766420000000 1.0
C      1  0.5230610000000  0.5199200000000  0.5860390000000 1.0
C      1  0.5054330000000  0.4717240000000  0.5850590000000 1.0
C      1  0.4720050000000  0.5107320000000  0.5856870000000 1.0
C      1  0.5822840000000  0.4376770000000  0.4977470000000 1.0
C      1  0.4036590000000  0.4609160000000  0.4975450000000 1.0
C      1  0.5138240000000  0.6022760000000  0.4982240000000 1.0
C      1  0.5442940000000  0.5921100000000  0.4504020000000 1.0
C      1  0.5586810000000  0.4160390000000  0.4498340000000 1.0
C      1  0.3978450000000  0.4920830000000  0.4491720000000 1.0
C      1  0.6120230000000  0.4731660000000  0.5462770000000 1.0
C      1  0.4220360000000  0.4183960000000  0.5460050000000 1.0
C      1  0.4684310000000  0.6091620000000  0.5459060000000 1.0
C      1  0.5379370000000  0.5687920000000  0.5955410000000 1.0
C      1  0.5398120000000  0.4339940000000  0.5938130000000 1.0
C      1  0.4227180000000  0.4982450000000  0.5967660000000 1.0
C      1  0.5530080000000  0.4038460000000  0.4766250000000 1.0
C      1  0.3891490000000  0.5033880000000  0.4757900000000 1.0
C      1  0.5582040000000  0.5945900000000  0.4770420000000 1.0
C      1  0.5038060000000  0.4759510000000  0.4193480000000 1.0
C      1  0.4779210000000  0.5060180000000  0.3951090000000 1.0
C      1  0.5158010000000  0.5184400000000  0.4235930000000 1.0
C      1  0.3966620000000  0.4630970000000  0.4485070000000 1.0
C      1  0.5195820000000  0.6073550000000  0.4494190000000 1.0
C      1  0.5841080000000  0.4295270000000  0.4492430000000 1.0
C      1  0.5849980000000  0.4528250000000  0.4314570000000 1.0
C      1  0.4164050000000  0.4505470000000  0.4305310000000 1.0
C      1  0.4988040000000  0.5966280000000  0.4315310000000 1.0
C      1  0.5121350000000  0.6182400000000  0.5672650000000 1.0
C      1  0.5960890000000  0.4311770000000  0.5668840000000 1.0
C      1  0.3924710000000  0.4508610000000  0.5688990000000 1.0
C      1  0.5588850000000  0.4585820000000  0.4203480000000 1.0
C      1  0.4343110000000  0.4705090000000  0.4185560000000 1.0
C      1  0.5061210000000  0.5713760000000  0.4202300000000 1.0
C      1  0.3840310000000  0.4756720000000  0.5757960000000 1.0
C      1  0.5379370000000  0.6131010000000  0.5737480000000 1.0
C      1  0.5781450000000  0.4116130000000  0.5722750000000 1.0
C      1  0.5637640000000  0.5400520000000  0.4276980000000 1.0
C      1  0.5058660000000  0.4235640000000  0.4210310000000 1.0
C      1  0.4340420000000  0.5340350000000  0.4260610000000 1.0
C      1  0.4103900000000  0.4216950000000  0.4685920000000 1.0
C      1  0.4768510000000  0.6161780000000  0.4690650000000 1.0
C      1  0.6135050000000  0.4616990000000  0.4687570000000 1.0
C      1  0.5099440000000  0.4314290000000  0.5544400000000 1.0
C      1  0.4311510000000  0.5283390000000  0.5581980000000 1.0
C      1  0.5585310000000  0.5450370000000  0.5571410000000 1.0
C      1  0.4308400000000  0.5693180000000  0.4964620000000 1.0
C      1  0.5972530000000  0.5251060000000  0.4957090000000 1.0
C      1  0.4744660000000  0.4052650000000  0.4974410000000 1.0
C      1  0.5388180000000  0.5464830000000  0.4765690000000 1.0
C      1  0.5163710000000  0.4387840000000  0.4687890000000 1.0
C      1  0.4417450000000  0.5084230000000  0.4727590000000 1.0
C      1  0.5436080000000  0.5425300000000  0.5830240000000 1.0
C      1  0.5146860000000  0.4431490000000  0.5811490000000 1.0
C      1  0.4419440000000  0.5168590000000  0.5836900000000 1.0
C      1  0.4383730000000  0.5898570000000  0.4776650000000 1.0
C      1  0.6117370000000  0.5083240000000  0.4772120000000 1.0
C      1  0.4529490000000  0.4014300000000  0.4775910000000 1.0
C      1  0.4606280000000  0.4594450000000  0.4110450000000 1.0
C      1  0.4835910000000  0.5529600000000  0.4156030000000 1.0
C      1  0.5535610000000  0.4873650000000  0.4178580000000 1.0
C      1  0.4754040000000  0.5044370000000  0.5047210000000 1.0
C      1  0.5202710000000  0.5103470000000  0.5032220000000 1.0
C      1  0.5000260000000  0.4923000000000  0.5099770000000 1.0
C      1  0.4236990000000  0.5296040000000  0.4705060000000 1.0
C      1  0.5658020000000  0.5520090000000  0.4722340000000 1.0
C      1  0.5117680000000  0.4111650000000  0.4643720000000 1.0
C      1  0.4141260000000  0.5025430000000  0.5193340000000 1.0
C      1  0.5442970000000  0.5717530000000  0.5194420000000 1.0
C      1  0.5381330000000  0.4307170000000  0.5157770000000 1.0
C      1  0.5075700000000  0.5539370000000  0.5445130000000 1.0
C      1  0.5442410000000  0.4684400000000  0.5440440000000 1.0
C      1  0.4473950000000  0.4795050000000  0.5453460000000 1.0
C      1  0.5560680000000  0.5024730000000  0.4752180000000 1.0
C      1  0.4712870000000  0.4464240000000  0.4744580000000 1.0
C      1  0.4698950000000  0.5438020000000  0.4762820000000 1.0
C      1  0.4245010000000  0.4994310000000  0.4256520000000 1.0
C      1  0.5386820000000  0.5654910000000  0.4275040000000 1.0
C      1  0.5397560000000  0.4348190000000  0.4252590000000 1.0
END
