TITL C-3623287-7182-117 44826.1615038343 125000 -1255.50877088099 0 0 200 (C1) n - 1
REM
REM in /home/nfs/bkarasulu/CARBON/AIRSS/Generating-Clusters/LCBOP/Higher-Symm/SD-CG/FIRE-CG
REM
REM
REM
REM
REM
REM ./C.cell (b20cbc046b6831c77cfcea5457e17084)
REM AIRSS Version 0.9.1 bugfix July 2018 build 013d7b7c2542+ Fri, 06 Jul 2018 19:26:36 +0100
REM compiler GCC version 9.2.1 20190827 (Red Hat 9.2.1-1)
REM options -cpp -mtune=generic -march=x86-64 -g -O0 -fpre-include=/usr/include/finclude/math-vector-fortran.h
REM seed -1881305825 1868437520 -583311808 -1273280004 -1634842339 2125130952 687848736 1371375046 1386711621 -2072376632 -300807348 1031822643 -774259743 -321109315 -1596513113 1956988306 1031263044 -1931296343 2013757382 1392432030 -256906741 1605866188 -260380966 -159126124 1524314060 2076488570 249045430 -1284254106 1253043365 1488276440 382599603 691524629 -385540557
REM
CELL 1.54180   50.00000   50.00000   50.00000   90.00000   90.00000   90.00000
LATT -1
SFAC C  
C      1  0.5770230000000  0.5243730000000  0.6034900000000 1.0
C      1  0.5251000000000  0.6033690000000  0.5708300000000 1.0
C      1  0.6064980000000  0.5669770000000  0.5259350000000 1.0
C      1  0.5769790000000  0.4790700000000  0.3955360000000 1.0
C      1  0.4269990000000  0.5245370000000  0.4005790000000 1.0
C      1  0.4251830000000  0.4772950000000  0.6088050000000 1.0
C      1  0.5300340000000  0.3955240000000  0.4336670000000 1.0
C      1  0.4716180000000  0.5974190000000  0.4163730000000 1.0
C      1  0.4687450000000  0.4099060000000  0.5756760000000 1.0
C      1  0.6034970000000  0.4194000000000  0.4667660000000 1.0
C      1  0.4058210000000  0.5644290000000  0.4723940000000 1.0
C      1  0.3979140000000  0.4272170000000  0.5266930000000 1.0
C      1  0.4255500000000  0.5293690000000  0.6072010000000 1.0
C      1  0.4736920000000  0.6025330000000  0.5663650000000 1.0
C      1  0.3981650000000  0.5729720000000  0.5220390000000 1.0
C      1  0.4263930000000  0.4739050000000  0.3995600000000 1.0
C      1  0.5792550000000  0.5294620000000  0.3974650000000 1.0
C      1  0.5773470000000  0.4731560000000  0.6031200000000 1.0
C      1  0.4793810000000  0.3926820000000  0.4289890000000 1.0
C      1  0.5172110000000  0.6050080000000  0.4422320000000 1.0
C      1  0.5203790000000  0.4010010000000  0.5763820000000 1.0
C      1  0.3953900000000  0.4294980000000  0.4738770000000 1.0
C      1  0.6016800000000  0.5608880000000  0.4754980000000 1.0
C      1  0.6019730000000  0.4249070000000  0.5186370000000 1.0
C      1  0.5251470000000  0.5119890000000  0.4342090000000 1.0
C      1  0.5173150000000  0.4630980000000  0.5248880000000 1.0
C      1  0.4701280000000  0.5048710000000  0.5123890000000 1.0
C      1  0.5147350000000  0.4890180000000  0.5506480000000 1.0
C      1  0.4769030000000  0.5175370000000  0.5369450000000 1.0
C      1  0.4828140000000  0.4778670000000  0.4538140000000 1.0
C      1  0.5190240000000  0.5403690000000  0.4844350000000 1.0
C      1  0.4916360000000  0.4542910000000  0.4694160000000 1.0
C      1  0.4877290000000  0.5447590000000  0.5327070000000 1.0
C      1  0.4442130000000  0.4710210000000  0.4937920000000 1.0
C      1  0.5425930000000  0.5229320000000  0.4881460000000 1.0
C      1  0.5439110000000  0.4772820000000  0.5093910000000 1.0
C      1  0.4800630000000  0.4997610000000  0.4366300000000 1.0
C      1  0.4869700000000  0.4574370000000  0.5177150000000 1.0
C      1  0.5474270000000  0.5125070000000  0.5153700000000 1.0
C      1  0.4864720000000  0.4987340000000  0.5577640000000 1.0
C      1  0.5260120000000  0.5180790000000  0.5343320000000 1.0
C      1  0.5256140000000  0.4961440000000  0.4560640000000 1.0
C      1  0.4896060000000  0.5390700000000  0.4837220000000 1.0
C      1  0.5192000000000  0.4530700000000  0.4748390000000 1.0
C      1  0.5151480000000  0.5439200000000  0.5322000000000 1.0
C      1  0.5396770000000  0.4768610000000  0.4779950000000 1.0
C      1  0.4673210000000  0.5198790000000  0.4884450000000 1.0
C      1  0.4673230000000  0.4774270000000  0.5089810000000 1.0
C      1  0.3812260000000  0.5283750000000  0.5303000000000 1.0
C      1  0.5331170000000  0.5329660000000  0.3891430000000 1.0
C      1  0.5218360000000  0.4033300000000  0.5086370000000 1.0
C      1  0.4032140000000  0.4924350000000  0.4779780000000 1.0
C      1  0.6160900000000  0.5111840000000  0.4764820000000 1.0
C      1  0.6047390000000  0.4723100000000  0.5093400000000 1.0
C      1  0.5304120000000  0.4762330000000  0.6035310000000 1.0
C      1  0.4721740000000  0.5317970000000  0.6223260000000 1.0
C      1  0.4717890000000  0.4706200000000  0.3799310000000 1.0
C      1  0.4940600000000  0.6274950000000  0.4783670000000 1.0
C      1  0.4742120000000  0.3942950000000  0.4758730000000 1.0
C      1  0.4777810000000  0.6013620000000  0.5185890000000 1.0
C      1  0.6047220000000  0.5203750000000  0.5301830000000 1.0
C      1  0.4729520000000  0.5230120000000  0.3905980000000 1.0
C      1  0.4730740000000  0.3968570000000  0.5307700000000 1.0
C      1  0.5986160000000  0.4884790000000  0.4837110000000 1.0
C      1  0.4126090000000  0.5182190000000  0.4846460000000 1.0
C      1  0.3795980000000  0.4717510000000  0.5287810000000 1.0
C      1  0.4717390000000  0.4811390000000  0.6068520000000 1.0
C      1  0.5303120000000  0.5277770000000  0.6199090000000 1.0
C      1  0.5302410000000  0.4764670000000  0.3800990000000 1.0
C      1  0.4732470000000  0.6193840000000  0.4964270000000 1.0
C      1  0.5234490000000  0.4038540000000  0.4804180000000 1.0
C      1  0.5292780000000  0.6026210000000  0.5233470000000 1.0
C      1  0.6534810000000  0.5004490000000  0.4389950000000 1.0
C      1  0.4877350000000  0.4649660000000  0.6228640000000 1.0
C      1  0.4482140000000  0.6317070000000  0.4940330000000 1.0
C      1  0.6243060000000  0.5039400000000  0.5413970000000 1.0
C      1  0.3560720000000  0.4873450000000  0.5307970000000 1.0
C      1  0.3533310000000  0.4896090000000  0.4586040000000 1.0
C      1  0.4882640000000  0.5357380000000  0.3712010000000 1.0
C      1  0.5142990000000  0.4767400000000  0.3566690000000 1.0
C      1  0.5158350000000  0.5307170000000  0.6439860000000 1.0
C      1  0.4591480000000  0.3770920000000  0.5169580000000 1.0
C      1  0.5359080000000  0.6218180000000  0.5040330000000 1.0
C      1  0.5324120000000  0.3537760000000  0.5254240000000 1.0
C      1  0.3770430000000  0.4886730000000  0.4693980000000 1.0
C      1  0.5139700000000  0.4622440000000  0.6210710000000 1.0
C      1  0.5187040000000  0.6359060000000  0.4890620000000 1.0
C      1  0.3569480000000  0.5143150000000  0.5323490000000 1.0
C      1  0.6274930000000  0.4811460000000  0.5280400000000 1.0
C      1  0.6365510000000  0.5061540000000  0.4579660000000 1.0
C      1  0.5143380000000  0.5410930000000  0.3704310000000 1.0
C      1  0.4874680000000  0.4732260000000  0.3565010000000 1.0
C      1  0.4889360000000  0.5332130000000  0.6449610000000 1.0
C      1  0.5250380000000  0.3783450000000  0.5206700000000 1.0
C      1  0.4258850000000  0.6448520000000  0.4912480000000 1.0
C      1  0.4587360000000  0.3761310000000  0.4903670000000 1.0
C      1  0.4692760000000  0.5536690000000  0.5771340000000 1.0
C      1  0.5547170000000  0.5713510000000  0.4737980000000 1.0
C      1  0.5762500000000  0.4667110000000  0.5534290000000 1.0
C      1  0.4729680000000  0.4416750000000  0.4216760000000 1.0
C      1  0.5340570000000  0.5595850000000  0.4300020000000 1.0
C      1  0.5339780000000  0.4469920000000  0.5681050000000 1.0
C      1  0.5557030000000  0.4292810000000  0.5283990000000 1.0
C      1  0.4456770000000  0.5669200000000  0.5315870000000 1.0
C      1  0.4460870000000  0.4301270000000  0.4677820000000 1.0
C      1  0.5706160000000  0.5325880000000  0.4466750000000 1.0
C      1  0.4320990000000  0.4679330000000  0.4463880000000 1.0
C      1  0.4236320000000  0.5288440000000  0.5576370000000 1.0
C      1  0.5297420000000  0.5544930000000  0.5777270000000 1.0
C      1  0.4537210000000  0.5698180000000  0.4714510000000 1.0
C      1  0.4209910000000  0.4729060000000  0.5579420000000 1.0
C      1  0.5328070000000  0.4442090000000  0.4192290000000 1.0
C      1  0.4752290000000  0.5507070000000  0.4292820000000 1.0
C      1  0.4672300000000  0.4562820000000  0.5672500000000 1.0
C      1  0.4445850000000  0.4369650000000  0.5278540000000 1.0
C      1  0.5580520000000  0.5675890000000  0.5343410000000 1.0
C      1  0.5573590000000  0.4304980000000  0.4606060000000 1.0
C      1  0.4380440000000  0.5295320000000  0.4485560000000 1.0
C      1  0.5721660000000  0.4727140000000  0.4424290000000 1.0
C      1  0.5674890000000  0.5248940000000  0.5566170000000 1.0
C      1  0.5807670000000  0.5121600000000  0.5780020000000 1.0
C      1  0.5138460000000  0.5787820000000  0.5788730000000 1.0
C      1  0.5805770000000  0.5747070000000  0.5175800000000 1.0
C      1  0.5822040000000  0.4890810000000  0.4218240000000 1.0
C      1  0.4257440000000  0.5141820000000  0.4273730000000 1.0
C      1  0.4182220000000  0.4869160000000  0.5832140000000 1.0
C      1  0.5188820000000  0.4186730000000  0.4208100000000 1.0
C      1  0.4879160000000  0.5743020000000  0.4206620000000 1.0
C      1  0.4837090000000  0.4341780000000  0.5749530000000 1.0
C      1  0.5771300000000  0.4202560000000  0.4782160000000 1.0
C      1  0.4289310000000  0.5762960000000  0.4846320000000 1.0
C      1  0.4228920000000  0.4261380000000  0.5132790000000 1.0
C      1  0.4191950000000  0.5162780000000  0.5828970000000 1.0
C      1  0.4843490000000  0.5786780000000  0.5772450000000 1.0
C      1  0.4252760000000  0.5770420000000  0.5141310000000 1.0
C      1  0.4241200000000  0.4849910000000  0.4258620000000 1.0
C      1  0.5821280000000  0.5185150000000  0.4238130000000 1.0
C      1  0.5832250000000  0.4827280000000  0.5767670000000 1.0
C      1  0.4893690000000  0.4176090000000  0.4201140000000 1.0
C      1  0.5148200000000  0.5799620000000  0.4292460000000 1.0
C      1  0.5131610000000  0.4287170000000  0.5745460000000 1.0
C      1  0.4220920000000  0.4256800000000  0.4837210000000 1.0
C      1  0.5791190000000  0.5740220000000  0.4880790000000 1.0
C      1  0.5754180000000  0.4208370000000  0.5087350000000 1.0
C      1  0.4732760000000  0.6191730000000  0.4327450000000 1.0
C      1  0.6224020000000  0.4355670000000  0.4778940000000 1.0
C      1  0.4482150000000  0.4902400000000  0.6192590000000 1.0
C      1  0.4787710000000  0.3908580000000  0.5574550000000 1.0
C      1  0.5155560000000  0.6124780000000  0.5459570000000 1.0
C      1  0.5170710000000  0.3872120000000  0.4580710000000 1.0
C      1  0.6143140000000  0.5418020000000  0.5156950000000 1.0
C      1  0.3793660000000  0.4461620000000  0.5165620000000 1.0
C      1  0.3960940000000  0.5416580000000  0.4866640000000 1.0
C      1  0.4475420000000  0.5127900000000  0.3843480000000 1.0
C      1  0.5551250000000  0.4905170000000  0.3814280000000 1.0
C      1  0.5551600000000  0.5140740000000  0.6182750000000 1.0
C      1  0.4948540000000  0.6206360000000  0.4510450000000 1.0
C      1  0.3751930000000  0.4406570000000  0.4887770000000 1.0
C      1  0.5543400000000  0.4855900000000  0.6146830000000 1.0
C      1  0.5040640000000  0.3816080000000  0.5663350000000 1.0
C      1  0.4869900000000  0.6120860000000  0.5432730000000 1.0
C      1  0.4889290000000  0.3845780000000  0.4543630000000 1.0
C      1  0.3858320000000  0.5491810000000  0.5124500000000 1.0
C      1  0.6151970000000  0.4448390000000  0.5035930000000 1.0
C      1  0.6138180000000  0.5380120000000  0.4873520000000 1.0
C      1  0.5567780000000  0.5194680000000  0.3824800000000 1.0
C      1  0.4467790000000  0.4840180000000  0.3827470000000 1.0
C      1  0.4470990000000  0.5187510000000  0.6221300000000 1.0
C      1  0.5750280000000  0.5114880000000  0.5300730000000 1.0
C      1  0.5156700000000  0.5362880000000  0.5961260000000 1.0
C      1  0.5320480000000  0.5725460000000  0.5197600000000 1.0
C      1  0.5703540000000  0.4861750000000  0.4696870000000 1.0
C      1  0.4403390000000  0.5213500000000  0.4762850000000 1.0
C      1  0.4037130000000  0.4852050000000  0.5385620000000 1.0
C      1  0.5173600000000  0.4628270000000  0.4026460000000 1.0
C      1  0.4787570000000  0.5238210000000  0.4189730000000 1.0
C      1  0.4742250000000  0.4817270000000  0.5779110000000 1.0
C      1  0.5319920000000  0.4288440000000  0.4718040000000 1.0
C      1  0.4756910000000  0.5640650000000  0.4889350000000 1.0
C      1  0.4721810000000  0.4287090000000  0.5159080000000 1.0
C      1  0.4049670000000  0.5149350000000  0.5393220000000 1.0
C      1  0.4850380000000  0.5373370000000  0.5967890000000 1.0
C      1  0.4732540000000  0.5700920000000  0.5188720000000 1.0
C      1  0.4249930000000  0.4745510000000  0.4733450000000 1.0
C      1  0.5633390000000  0.5163640000000  0.4689170000000 1.0
C      1  0.5778520000000  0.4795700000000  0.5262020000000 1.0
C      1  0.4865960000000  0.4605890000000  0.4029830000000 1.0
C      1  0.5284120000000  0.5346520000000  0.4172540000000 1.0
C      1  0.5273590000000  0.4743270000000  0.5747800000000 1.0
C      1  0.4721130000000  0.4250890000000  0.4822800000000 1.0
C      1  0.5313970000000  0.5662240000000  0.4900170000000 1.0
C      1  0.5287460000000  0.4284060000000  0.5211760000000 1.0
C      1  0.4430010000000  0.4544870000000  0.5512760000000 1.0
C      1  0.4533280000000  0.5537460000000  0.4468980000000 1.0
C      1  0.5568100000000  0.4483860000000  0.4376190000000 1.0
C      1  0.5586760000000  0.4438980000000  0.5531930000000 1.0
C      1  0.5562630000000  0.5582430000000  0.4477310000000 1.0
C      1  0.4449940000000  0.5500400000000  0.5565290000000 1.0
C      1  0.5534700000000  0.5504300000000  0.5584620000000 1.0
C      1  0.4496720000000  0.4448750000000  0.4421960000000 1.0
END
