TITL C-3623288-6813-1915 1.50004374897489e-06 125000 -572.907481150823 0 0 93 (C1) n - 1
REM
REM in /home/nfs/bkarasulu/CARBON/AIRSS/Generating-Clusters/LCBOP/Higher-Symm/SD-CG/FIRE-CG
REM
REM
REM
REM
REM
REM ./C.cell (b20cbc046b6831c77cfcea5457e17084)
REM AIRSS Version 0.9.1 bugfix July 2018 build 013d7b7c2542+ Fri, 06 Jul 2018 19:26:36 +0100
REM compiler GCC version 9.2.1 20190827 (Red Hat 9.2.1-1)
REM options -cpp -mtune=generic -march=x86-64 -g -O0 -fpre-include=/usr/include/finclude/math-vector-fortran.h
REM seed -29233088 1868001521 1220236752 1539522794 -1839362160 -763693264 1070666082 -111269391 -276065165 -72732458 2036264116 102052478 -693623853 1381843115 333934210 37212304 -978868556 854722265 -2040843741 -488931879 507022869 2020947613 -1029541331 188791509 1870313096 -257279246 872866962 124319195 -385857868 -1082300783 -371465986 -1084180290 242529093
REM
CELL 1.54180   50.00000   50.00000   50.00000   90.00000   90.00000   90.00000
LATT -1
SFAC C  
C      1  0.5570070000000  0.4501230000000  0.4470120000000 1.0
C      1  0.5572740000000  0.5623110000000  0.5465100000000 1.0
C      1  0.4451870000000  0.4503420000000  0.4492000000000 1.0
C      1  0.4466030000000  0.5560360000000  0.5478810000000 1.0
C      1  0.4855430000000  0.4084420000000  0.5111370000000 1.0
C      1  0.4859430000000  0.5810150000000  0.4726160000000 1.0
C      1  0.5142400000000  0.4080420000000  0.5114410000000 1.0
C      1  0.5146810000000  0.5828950000000  0.4733820000000 1.0
C      1  0.4434700000000  0.4239520000000  0.5310140000000 1.0
C      1  0.4448840000000  0.5579790000000  0.4581270000000 1.0
C      1  0.5550570000000  0.4245560000000  0.5325540000000 1.0
C      1  0.5608610000000  0.5737610000000  0.4617440000000 1.0
C      1  0.4878280000000  0.5357350000000  0.4187260000000 1.0
C      1  0.4852140000000  0.4454150000000  0.5820650000000 1.0
C      1  0.5145450000000  0.5398840000000  0.4215540000000 1.0
C      1  0.5123810000000  0.4462730000000  0.5815300000000 1.0
C      1  0.5133600000000  0.4673680000000  0.4391390000000 1.0
C      1  0.5140480000000  0.5485750000000  0.5622170000000 1.0
C      1  0.4849990000000  0.4659700000000  0.4323090000000 1.0
C      1  0.4884110000000  0.5615320000000  0.5696510000000 1.0
C      1  0.4309220000000  0.4620610000000  0.4276590000000 1.0
C      1  0.4336070000000  0.5561500000000  0.5730670000000 1.0
C      1  0.5690460000000  0.4693070000000  0.4296140000000 1.0
C      1  0.5694470000000  0.5599920000000  0.5720320000000 1.0
C      1  0.5291120000000  0.5756710000000  0.4982250000000 1.0
C      1  0.5303830000000  0.4178100000000  0.4887640000000 1.0
C      1  0.4696250000000  0.5747450000000  0.4973870000000 1.0
C      1  0.4704720000000  0.4193260000000  0.4883600000000 1.0
C      1  0.5755500000000  0.5404340000000  0.5036560000000 1.0
C      1  0.5762680000000  0.4518500000000  0.4943670000000 1.0
C      1  0.4255950000000  0.5394070000000  0.5058080000000 1.0
C      1  0.4246150000000  0.4535770000000  0.4927540000000 1.0
C      1  0.4722040000000  0.4425740000000  0.4439450000000 1.0
C      1  0.4722870000000  0.5689690000000  0.5471130000000 1.0
C      1  0.5291500000000  0.4407490000000  0.4431470000000 1.0
C      1  0.5292490000000  0.5709590000000  0.5466600000000 1.0
C      1  0.4385560000000  0.4289460000000  0.5027270000000 1.0
C      1  0.4414130000000  0.5608980000000  0.4885600000000 1.0
C      1  0.5618080000000  0.4278050000000  0.5046340000000 1.0
C      1  0.5614260000000  0.5631540000000  0.4881050000000 1.0
C      1  0.5314820000000  0.4722160000000  0.5150010000000 1.0
C      1  0.5313290000000  0.5219410000000  0.4910610000000 1.0
C      1  0.4644080000000  0.4735820000000  0.5187530000000 1.0
C      1  0.4661000000000  0.5201280000000  0.4867080000000 1.0
C      1  0.5125110000000  0.4642020000000  0.5360490000000 1.0
C      1  0.5137950000000  0.5295600000000  0.4688620000000 1.0
C      1  0.4843120000000  0.4648320000000  0.5376180000000 1.0
C      1  0.4866040000000  0.5230530000000  0.4658750000000 1.0
C      1  0.5582690000000  0.4591430000000  0.4737060000000 1.0
C      1  0.5600520000000  0.5410090000000  0.5280900000000 1.0
C      1  0.4444280000000  0.4628080000000  0.4742600000000 1.0
C      1  0.4439510000000  0.5366760000000  0.5281370000000 1.0
C      1  0.5773040000000  0.5108550000000  0.4949440000000 1.0
C      1  0.5786760000000  0.4781710000000  0.5097530000000 1.0
C      1  0.4212480000000  0.5113330000000  0.4946110000000 1.0
C      1  0.4196760000000  0.4786110000000  0.5092150000000 1.0
C      1  0.4673670000000  0.5752330000000  0.4510640000000 1.0
C      1  0.4670580000000  0.4070010000000  0.5332960000000 1.0
C      1  0.5362510000000  0.5843000000000  0.4538760000000 1.0
C      1  0.5316560000000  0.4073900000000  0.5344440000000 1.0
C      1  0.5277370000000  0.4851730000000  0.4202210000000 1.0
C      1  0.5296160000000  0.5395100000000  0.5860060000000 1.0
C      1  0.4689990000000  0.4903790000000  0.4267560000000 1.0
C      1  0.4751750000000  0.5604110000000  0.5946690000000 1.0
C      1  0.4424330000000  0.4477810000000  0.5479900000000 1.0
C      1  0.4437460000000  0.5300940000000  0.4484130000000 1.0
C      1  0.5542180000000  0.4495040000000  0.5476160000000 1.0
C      1  0.5526560000000  0.5144840000000  0.4469900000000 1.0
C      1  0.5541300000000  0.4936910000000  0.4276120000000 1.0
C      1  0.5553180000000  0.5469240000000  0.5913230000000 1.0
C      1  0.4431060000000  0.4835870000000  0.4160830000000 1.0
C      1  0.4480800000000  0.5579080000000  0.5960920000000 1.0
C      1  0.4913150000000  0.5157450000000  0.5262640000000 1.0
C      1  0.4915480000000  0.4834720000000  0.4843360000000 1.0
C      1  0.5127810000000  0.5280450000000  0.5391870000000 1.0
C      1  0.5127100000000  0.4755210000000  0.4686660000000 1.0
C      1  0.5343900000000  0.4692220000000  0.4858240000000 1.0
C      1  0.5350370000000  0.5283310000000  0.5201950000000 1.0
C      1  0.4666950000000  0.4723970000000  0.4897380000000 1.0
C      1  0.4670060000000  0.5248190000000  0.5157430000000 1.0
C      1  0.5291820000000  0.5316720000000  0.4441150000000 1.0
C      1  0.5276960000000  0.4537930000000  0.5592520000000 1.0
C      1  0.4715990000000  0.5192610000000  0.4378790000000 1.0
C      1  0.4692000000000  0.4526820000000  0.5601780000000 1.0
C      1  0.4401170000000  0.5132470000000  0.4728260000000 1.0
C      1  0.4376970000000  0.4725050000000  0.5312860000000 1.0
C      1  0.5556780000000  0.5111570000000  0.4758440000000 1.0
C      1  0.5581030000000  0.4731970000000  0.5295880000000 1.0
C      1  0.4848670000000  0.5764580000000  0.5223620000000 1.0
C      1  0.4856270000000  0.4260630000000  0.4641800000000 1.0
C      1  0.5146960000000  0.5780500000000  0.5225580000000 1.0
C      1  0.5159230000000  0.4243790000000  0.4639680000000 1.0
C      1  0.5003000000000  0.4984770000000  0.5060650000000 1.0
END
