TITL C-3623284-6838-1115 0.0534456420468718 125000 -865.861760337977 0 0 139 (C1) n - 1
REM
REM in /home/nfs/bkarasulu/CARBON/AIRSS/Generating-Clusters/LCBOP/Higher-Symm/SD-CG/FIRE-CG
REM
REM
REM
REM
REM
REM ./C.cell (b20cbc046b6831c77cfcea5457e17084)
REM AIRSS Version 0.9.1 bugfix July 2018 build 013d7b7c2542+ Fri, 06 Jul 2018 19:26:36 +0100
REM compiler GCC version 9.2.1 20190827 (Red Hat 9.2.1-1)
REM options -cpp -mtune=generic -march=x86-64 -g -O0 -fpre-include=/usr/include/finclude/math-vector-fortran.h
REM seed 657690811 1262486680 -921983458 -1114821561 256593395 -367347064 -1882166302 2110395005 -1091216837 1552270399 1743025999 -385646396 1792457800 2129617724 -1396948108 -184301032 -1353578511 -374527386 1097032907 1598577170 -549117109 1600304940 479350701 1547628451 2144644094 1648036785 660330910 454348273 225519084 -199858608 1321106747 -443049318 421120065
REM
CELL 1.54180   50.00000   50.00000   50.00000   90.00000   90.00000   90.00000
LATT -1
SFAC C  
C      1  0.5654810000000  0.5622770000000  0.4755740000000 1.0
C      1  0.5782900000000  0.5066990000000  0.5850470000000 1.0
C      1  0.5723120000000  0.4335400000000  0.4440070000000 1.0
C      1  0.4768990000000  0.5687120000000  0.4495550000000 1.0
C      1  0.4846290000000  0.5095600000000  0.5985040000000 1.0
C      1  0.4696570000000  0.4008560000000  0.4585190000000 1.0
C      1  0.5574000000000  0.5143180000000  0.5460720000000 1.0
C      1  0.6183480000000  0.4471390000000  0.4281950000000 1.0
C      1  0.5669600000000  0.5134680000000  0.4821010000000 1.0
C      1  0.5707400000000  0.5259060000000  0.4350970000000 1.0
C      1  0.5761060000000  0.5559330000000  0.5526390000000 1.0
C      1  0.5662950000000  0.4257670000000  0.5496360000000 1.0
C      1  0.4246620000000  0.5512810000000  0.5396450000000 1.0
C      1  0.4116450000000  0.4354300000000  0.5209550000000 1.0
C      1  0.3987270000000  0.5246120000000  0.4356610000000 1.0
C      1  0.5836580000000  0.5096810000000  0.5059540000000 1.0
C      1  0.5744470000000  0.4963870000000  0.5300440000000 1.0
C      1  0.6230420000000  0.4728130000000  0.4224870000000 1.0
C      1  0.5330200000000  0.4630890000000  0.5329070000000 1.0
C      1  0.5266030000000  0.4898630000000  0.4608830000000 1.0
C      1  0.5303330000000  0.5373000000000  0.5163430000000 1.0
C      1  0.4902520000000  0.4429210000000  0.5903800000000 1.0
C      1  0.4990690000000  0.4518500000000  0.4088570000000 1.0
C      1  0.4895290000000  0.5965280000000  0.5184200000000 1.0
C      1  0.4159710000000  0.5109170000000  0.5169990000000 1.0
C      1  0.4170010000000  0.4720440000000  0.4899290000000 1.0
C      1  0.4325710000000  0.5254780000000  0.4690010000000 1.0
C      1  0.4926860000000  0.5757720000000  0.5605210000000 1.0
C      1  0.4710230000000  0.4048870000000  0.5590680000000 1.0
C      1  0.4923100000000  0.4993440000000  0.4008350000000 1.0
C      1  0.5541650000000  0.6212020000000  0.6252000000000 1.0
C      1  0.5464360000000  0.4013820000000  0.4706700000000 1.0
C      1  0.5453080000000  0.5817590000000  0.4360970000000 1.0
C      1  0.5563860000000  0.6075120000000  0.6031260000000 1.0
C      1  0.5308250000000  0.4045900000000  0.4939730000000 1.0
C      1  0.5248850000000  0.5671830000000  0.4232540000000 1.0
C      1  0.5075300000000  0.4209290000000  0.4914980000000 1.0
C      1  0.4995750000000  0.5736090000000  0.4332020000000 1.0
C      1  0.5103240000000  0.5323700000000  0.5577240000000 1.0
C      1  0.5665640000000  0.5647060000000  0.5043780000000 1.0
C      1  0.5958370000000  0.4873560000000  0.5721570000000 1.0
C      1  0.5628580000000  0.4599010000000  0.4455880000000 1.0
C      1  0.4059220000000  0.4642410000000  0.5168070000000 1.0
C      1  0.4114490000000  0.5101720000000  0.4562480000000 1.0
C      1  0.4158780000000  0.5391110000000  0.5141730000000 1.0
C      1  0.5726910000000  0.5290650000000  0.5662210000000 1.0
C      1  0.5991710000000  0.4305040000000  0.4368060000000 1.0
C      1  0.5703500000000  0.5355850000000  0.4630870000000 1.0
C      1  0.4940490000000  0.4899450000000  0.5808960000000 1.0
C      1  0.4842830000000  0.4128530000000  0.4389280000000 1.0
C      1  0.4810880000000  0.5707970000000  0.4788670000000 1.0
C      1  0.4498420000000  0.4463610000000  0.4124830000000 1.0
C      1  0.4422890000000  0.5750130000000  0.5381300000000 1.0
C      1  0.4351610000000  0.4284470000000  0.5358890000000 1.0
C      1  0.4653630000000  0.5388850000000  0.4124440000000 1.0
C      1  0.4821810000000  0.5604100000000  0.6065670000000 1.0
C      1  0.4635450000000  0.4007950000000  0.5084300000000 1.0
C      1  0.4159470000000  0.4995050000000  0.5611990000000 1.0
C      1  0.4257230000000  0.4116440000000  0.4766390000000 1.0
C      1  0.4286620000000  0.5636400000000  0.4300540000000 1.0
C      1  0.4771990000000  0.5140480000000  0.4194230000000 1.0
C      1  0.4886830000000  0.5493870000000  0.5502520000000 1.0
C      1  0.4842030000000  0.4210510000000  0.5073510000000 1.0
C      1  0.5578680000000  0.5933720000000  0.5807740000000 1.0
C      1  0.5400900000000  0.3976970000000  0.5198130000000 1.0
C      1  0.5312310000000  0.5421260000000  0.4119530000000 1.0
C      1  0.5073180000000  0.5903240000000  0.5407810000000 1.0
C      1  0.4932520000000  0.4200890000000  0.5710250000000 1.0
C      1  0.5119990000000  0.4791250000000  0.4054700000000 1.0
C      1  0.4811040000000  0.5337780000000  0.6091330000000 1.0
C      1  0.4517460000000  0.3997640000000  0.4814830000000 1.0
C      1  0.4560850000000  0.5576440000000  0.4325960000000 1.0
C      1  0.4266040000000  0.5987350000000  0.4858930000000 1.0
C      1  0.4350580000000  0.4809690000000  0.5728230000000 1.0
C      1  0.4224100000000  0.4236460000000  0.4512090000000 1.0
C      1  0.4593370000000  0.5948080000000  0.5232370000000 1.0
C      1  0.4637280000000  0.4496310000000  0.6003170000000 1.0
C      1  0.4727320000000  0.4501950000000  0.3963990000000 1.0
C      1  0.5397440000000  0.5047500000000  0.4809190000000 1.0
C      1  0.5322950000000  0.5256580000000  0.5419590000000 1.0
C      1  0.5127450000000  0.4445280000000  0.5361380000000 1.0
C      1  0.4625900000000  0.5456990000000  0.3859630000000 1.0
C      1  0.4870800000000  0.5789600000000  0.5876990000000 1.0
C      1  0.4523150000000  0.4044410000000  0.5361040000000 1.0
C      1  0.4970230000000  0.5082110000000  0.5014060000000 1.0
C      1  0.4871830000000  0.4999850000000  0.5272660000000 1.0
C      1  0.4882830000000  0.4640020000000  0.4714390000000 1.0
C      1  0.5877980000000  0.4758410000000  0.5467000000000 1.0
C      1  0.6140860000000  0.4979070000000  0.4214660000000 1.0
C      1  0.5998130000000  0.5323890000000  0.5135390000000 1.0
C      1  0.5227460000000  0.5179700000000  0.4981360000000 1.0
C      1  0.4939010000000  0.4910570000000  0.5526530000000 1.0
C      1  0.5066310000000  0.4424170000000  0.4732670000000 1.0
C      1  0.5367020000000  0.4742320000000  0.5856580000000 1.0
C      1  0.5307430000000  0.4170820000000  0.4274910000000 1.0
C      1  0.5249090000000  0.5927080000000  0.4792890000000 1.0
C      1  0.4427330000000  0.4670410000000  0.5967320000000 1.0
C      1  0.4705010000000  0.4512170000000  0.3690980000000 1.0
C      1  0.4437030000000  0.6090720000000  0.5039430000000 1.0
C      1  0.5468700000000  0.5193330000000  0.4184410000000 1.0
C      1  0.5563620000000  0.5775390000000  0.5578960000000 1.0
C      1  0.5418680000000  0.4109360000000  0.5450600000000 1.0
C      1  0.4224350000000  0.5468040000000  0.4871150000000 1.0
C      1  0.4052450000000  0.4896150000000  0.5344300000000 1.0
C      1  0.4048760000000  0.4852490000000  0.4680220000000 1.0
C      1  0.5047770000000  0.4276210000000  0.4245220000000 1.0
C      1  0.4986320000000  0.5904890000000  0.4909360000000 1.0
C      1  0.5085440000000  0.4667050000000  0.5908400000000 1.0
C      1  0.4320950000000  0.4365970000000  0.4298980000000 1.0
C      1  0.4191130000000  0.5737220000000  0.4799480000000 1.0
C      1  0.4515150000000  0.4701650000000  0.5524830000000 1.0
C      1  0.5403210000000  0.5636060000000  0.5155980000000 1.0
C      1  0.5420860000000  0.4714680000000  0.5579430000000 1.0
C      1  0.5431520000000  0.4785840000000  0.4411570000000 1.0
C      1  0.4750700000000  0.5500670000000  0.4981200000000 1.0
C      1  0.4548430000000  0.4494590000000  0.5349750000000 1.0
C      1  0.4976670000000  0.4868550000000  0.4575700000000 1.0
C      1  0.4722310000000  0.5430420000000  0.5272310000000 1.0
C      1  0.4723370000000  0.4468860000000  0.5129440000000 1.0
C      1  0.4771380000000  0.5044300000000  0.4460710000000 1.0
C      1  0.5859640000000  0.5551360000000  0.5238850000000 1.0
C      1  0.5822960000000  0.4475830000000  0.5460940000000 1.0
C      1  0.5956620000000  0.5167420000000  0.4253830000000 1.0
C      1  0.5369150000000  0.4909910000000  0.4162850000000 1.0
C      1  0.5350640000000  0.5809610000000  0.5379150000000 1.0
C      1  0.5161090000000  0.4222350000000  0.5535990000000 1.0
C      1  0.4677330000000  0.4643530000000  0.4909800000000 1.0
C      1  0.4779860000000  0.5240800000000  0.4867050000000 1.0
C      1  0.4626610000000  0.5149960000000  0.5275900000000 1.0
C      1  0.4430430000000  0.5023810000000  0.5121210000000 1.0
C      1  0.4446870000000  0.4800710000000  0.4941520000000 1.0
C      1  0.4605500000000  0.5175180000000  0.4656140000000 1.0
C      1  0.4083960000000  0.4186130000000  0.4980200000000 1.0
C      1  0.4061360000000  0.5491000000000  0.4268270000000 1.0
C      1  0.4205880000000  0.5296200000000  0.5607490000000 1.0
C      1  0.5518680000000  0.4140120000000  0.4460340000000 1.0
C      1  0.5472180000000  0.5816600000000  0.4641960000000 1.0
C      1  0.5552210000000  0.4932050000000  0.5976760000000 1.0
C      1  0.5454390000000  0.4644700000000  0.5088200000000 1.0
END
