TITL C-3623287-7182-1676 -0.000107271114828329 125000 -303.469858420036 0 0 51 (C3) n - 1
REM
REM in /home/nfs/bkarasulu/CARBON/AIRSS/Generating-Clusters/LCBOP/Higher-Symm/SD-CG/FIRE-CG
REM
REM
REM
REM
REM
REM ./C.cell (b20cbc046b6831c77cfcea5457e17084)
REM AIRSS Version 0.9.1 bugfix July 2018 build 013d7b7c2542+ Fri, 06 Jul 2018 19:26:36 +0100
REM compiler GCC version 9.2.1 20190827 (Red Hat 9.2.1-1)
REM options -cpp -mtune=generic -march=x86-64 -g -O0 -fpre-include=/usr/include/finclude/math-vector-fortran.h
REM seed -101234960 174711368 -5969519 -846597086 -1289732081 1270977683 -1555528446 997241585 1232472465 54086878 -84415698 -2108721904 -1808038668 2110915583 -418072761 -1700091586 -1205791588 -109961304 -2006887291 790604793 190900825 -154644982 -974930882 638113383 1035401782 41785083 727118687 2108791114 735846967 1845820711 1790940258 -1474442604 -114717531
REM
CELL 1.54180   50.00000   50.00000   50.00000   90.00000   90.00000   90.00000
LATT -1
SFAC C  
C      1  0.5687860000000  0.4822780000000  0.4006490000000 1.0
C      1  0.5516480000000  0.4822810000000  0.6092460000000 1.0
C      1  0.3795660000000  0.4822810000000  0.4901050000000 1.0
C      1  0.5770190000000  0.4876110000000  0.3760380000000 1.0
C      1  0.5688450000000  0.4876140000000  0.6286820000000 1.0
C      1  0.3541360000000  0.4876140000000  0.4952810000000 1.0
C      1  0.5186870000000  0.4576080000000  0.5209940000000 1.0
C      1  0.4724750000000  0.4576080000000  0.5056870000000 1.0
C      1  0.5088370000000  0.4576080000000  0.4733200000000 1.0
C      1  0.4887180000000  0.5655800000000  0.4667220000000 1.0
C      1  0.5344600000000  0.5655800000000  0.5068670000000 1.0
C      1  0.4768230000000  0.5655810000000  0.5264080000000 1.0
C      1  0.4292090000000  0.5146350000000  0.5075220000000 1.0
C      1  0.5288820000000  0.5146340000000  0.4349320000000 1.0
C      1  0.5419100000000  0.5146350000000  0.5575460000000 1.0
C      1  0.4909570000000  0.4529290000000  0.5266840000000 1.0
C      1  0.4814130000000  0.4529280000000  0.4788270000000 1.0
C      1  0.5276290000000  0.4529280000000  0.4944910000000 1.0
C      1  0.5850800000000  0.4929130000000  0.3518190000000 1.0
C      1  0.5857880000000  0.4929160000000  0.6477720000000 1.0
C      1  0.3291320000000  0.4929160000000  0.5004090000000 1.0
C      1  0.4624710000000  0.4466820000000  0.4591960000000 1.0
C      1  0.5541010000000  0.4466820000000  0.4879020000000 1.0
C      1  0.4834260000000  0.4466830000000  0.5529030000000 1.0
C      1  0.5368270000000  0.5384700000000  0.5470770000000 1.0
C      1  0.4408170000000  0.5384700000000  0.5083540000000 1.0
C      1  0.5223570000000  0.5384690000000  0.4445690000000 1.0
C      1  0.5745400000000  0.4618190000000  0.4446610000000 1.0
C      1  0.5106550000000  0.4618210000000  0.5922240000000 1.0
C      1  0.4148040000000  0.4618200000000  0.4631170000000 1.0
C      1  0.5355060000000  0.5702270000000  0.4792880000000 1.0
C      1  0.5001840000000  0.5702280000000  0.5411040000000 1.0
C      1  0.4643110000000  0.5702280000000  0.4796060000000 1.0
C      1  0.4910920000000  0.4501490000000  0.5782560000000 1.0
C      1  0.4366820000000  0.4501480000000  0.4531580000000 1.0
C      1  0.5722250000000  0.4501470000000  0.4685870000000 1.0
C      1  0.5550740000000  0.5858930000000  0.4683750000000 1.0
C      1  0.4998510000000  0.5858950000000  0.5635060000000 1.0
C      1  0.4450770000000  0.5858940000000  0.4681160000000 1.0
C      1  0.5244420000000  0.5584470000000  0.5319660000000 1.0
C      1  0.4600960000000  0.5584470000000  0.5051830000000 1.0
C      1  0.5154640000000  0.5584460000000  0.4628490000000 1.0
C      1  0.5383860000000  0.4872990000000  0.5621360000000 1.0
C      1  0.4269950000000  0.4872990000000  0.5021750000000 1.0
C      1  0.5346180000000  0.4872970000000  0.4356890000000 1.0
C      1  0.4064760000000  0.4772630000000  0.4850690000000 1.0
C      1  0.5596920000000  0.4772610000000  0.4264720000000 1.0
C      1  0.5338310000000  0.4772630000000  0.5884600000000 1.0
C      1  0.5174490000000  0.4701910000000  0.4498640000000 1.0
C      1  0.5346950000000  0.4701910000000  0.5401800000000 1.0
C      1  0.4478560000000  0.4701920000000  0.5099580000000 1.0
END
