TITL C-3623284-6838-1852 7.39235077051399 125000 -501.687477761212 0 0 83 (C1) n - 1
REM
REM in /home/nfs/bkarasulu/CARBON/AIRSS/Generating-Clusters/LCBOP/Higher-Symm/SD-CG/FIRE-CG
REM
REM
REM
REM
REM
REM ./C.cell (b20cbc046b6831c77cfcea5457e17084)
REM AIRSS Version 0.9.1 bugfix July 2018 build 013d7b7c2542+ Fri, 06 Jul 2018 19:26:36 +0100
REM compiler GCC version 9.2.1 20190827 (Red Hat 9.2.1-1)
REM options -cpp -mtune=generic -march=x86-64 -g -O0 -fpre-include=/usr/include/finclude/math-vector-fortran.h
REM seed 1569590075 -965546785 -839471476 -1508292327 1634324366 1425582813 -951375492 -182353295 -332883189 -738767822 -1905575138 271823181 -1680469303 73108504 -12495713 1945553461 663242975 -1136909671 1827736856 -578726275 470268097 310427439 -905731475 -1927986835 -1772306938 1948273890 -1850919811 1621355000 1797197707 -613897937 -1948165352 319191753 1300462245
REM
CELL 1.54180   50.00000   50.00000   50.00000   90.00000   90.00000   90.00000
LATT -1
SFAC C  
C      1  0.5694100000000  0.5459520000000  0.4641710000000 1.0
C      1  0.5692500000000  0.4765650000000  0.4286290000000 1.0
C      1  0.5026370000000  0.4799700000000  0.4710460000000 1.0
C      1  0.5371520000000  0.5000430000000  0.5036530000000 1.0
C      1  0.5138080000000  0.5198310000000  0.4301870000000 1.0
C      1  0.5550830000000  0.4996580000000  0.4818170000000 1.0
C      1  0.4924220000000  0.5126900000000  0.4809000000000 1.0
C      1  0.5435270000000  0.4826650000000  0.4175020000000 1.0
C      1  0.4628310000000  0.4492290000000  0.5532890000000 1.0
C      1  0.4218140000000  0.5312520000000  0.5671510000000 1.0
C      1  0.5508830000000  0.4574350000000  0.5710220000000 1.0
C      1  0.4740720000000  0.5386780000000  0.5687440000000 1.0
C      1  0.4461210000000  0.5414700000000  0.5705810000000 1.0
C      1  0.4620480000000  0.4672350000000  0.4434180000000 1.0
C      1  0.4715620000000  0.4711380000000  0.5694770000000 1.0
C      1  0.5314730000000  0.4611450000000  0.5892950000000 1.0
C      1  0.5676380000000  0.5196480000000  0.4687610000000 1.0
C      1  0.5551100000000  0.5021430000000  0.5566350000000 1.0
C      1  0.4738340000000  0.5219170000000  0.5025750000000 1.0
C      1  0.5507590000000  0.5411590000000  0.6118150000000 1.0
C      1  0.4818300000000  0.5073670000000  0.5260110000000 1.0
C      1  0.4071340000000  0.5129800000000  0.5544820000000 1.0
C      1  0.5151790000000  0.5575540000000  0.4034360000000 1.0
C      1  0.4792410000000  0.4285180000000  0.5420370000000 1.0
C      1  0.5103050000000  0.4763500000000  0.5956370000000 1.0
C      1  0.5410580000000  0.5892990000000  0.4699750000000 1.0
C      1  0.5825940000000  0.4600520000000  0.5030540000000 1.0
C      1  0.4164570000000  0.4683790000000  0.5378550000000 1.0
C      1  0.4359230000000  0.4514620000000  0.5448400000000 1.0
C      1  0.5815800000000  0.4663070000000  0.4503480000000 1.0
C      1  0.5166260000000  0.4808440000000  0.5120290000000 1.0
C      1  0.5851460000000  0.4598440000000  0.4762520000000 1.0
C      1  0.5620080000000  0.4747190000000  0.5515690000000 1.0
C      1  0.4087420000000  0.4949480000000  0.5330510000000 1.0
C      1  0.4295900000000  0.5159120000000  0.4889180000000 1.0
C      1  0.4712880000000  0.5618040000000  0.4382820000000 1.0
C      1  0.4826140000000  0.4238400000000  0.5128670000000 1.0
C      1  0.4790340000000  0.4433850000000  0.4936190000000 1.0
C      1  0.4863130000000  0.4814790000000  0.5145170000000 1.0
C      1  0.5132550000000  0.4297660000000  0.4629350000000 1.0
C      1  0.4658210000000  0.4942960000000  0.4302620000000 1.0
C      1  0.4519010000000  0.4755250000000  0.4713370000000 1.0
C      1  0.4474150000000  0.5424740000000  0.4374730000000 1.0
C      1  0.5028920000000  0.5123000000000  0.5444350000000 1.0
C      1  0.4858440000000  0.5187860000000  0.5870480000000 1.0
C      1  0.5246310000000  0.5390500000000  0.6168730000000 1.0
C      1  0.4983720000000  0.5606160000000  0.4281010000000 1.0
C      1  0.5694050000000  0.5337400000000  0.5941480000000 1.0
C      1  0.5005560000000  0.5583630000000  0.5240460000000 1.0
C      1  0.4695820000000  0.5735430000000  0.4661670000000 1.0
C      1  0.5226310000000  0.4629240000000  0.4275720000000 1.0
C      1  0.4660440000000  0.4684580000000  0.4965870000000 1.0
C      1  0.5154030000000  0.4067530000000  0.4800780000000 1.0
C      1  0.5157470000000  0.5969380000000  0.4740680000000 1.0
C      1  0.4292350000000  0.5554590000000  0.4570540000000 1.0
C      1  0.5065130000000  0.4795680000000  0.4439260000000 1.0
C      1  0.5043850000000  0.4043830000000  0.5065620000000 1.0
C      1  0.5340140000000  0.5373340000000  0.3956690000000 1.0
C      1  0.5279300000000  0.5097730000000  0.5538730000000 1.0
C      1  0.4475950000000  0.5599110000000  0.4800600000000 1.0
C      1  0.4497930000000  0.5355650000000  0.4956520000000 1.0
C      1  0.4933420000000  0.5005020000000  0.4303050000000 1.0
C      1  0.5112630000000  0.5421330000000  0.4471980000000 1.0
C      1  0.4112620000000  0.5060450000000  0.5074030000000 1.0
C      1  0.5752200000000  0.4658370000000  0.5282580000000 1.0
C      1  0.4873050000000  0.4892610000000  0.5847460000000 1.0
C      1  0.4879430000000  0.5542270000000  0.5481950000000 1.0
C      1  0.5715940000000  0.5188720000000  0.5719980000000 1.0
C      1  0.5351340000000  0.5274650000000  0.5121450000000 1.0
C      1  0.5348610000000  0.5126660000000  0.4119390000000 1.0
C      1  0.5123270000000  0.3959840000000  0.5330870000000 1.0
C      1  0.4750340000000  0.4434680000000  0.4324370000000 1.0
C      1  0.4474280000000  0.5137550000000  0.4410070000000 1.0
C      1  0.4377220000000  0.5008870000000  0.4662920000000 1.0
C      1  0.5161110000000  0.5464730000000  0.5024850000000 1.0
C      1  0.5600010000000  0.5709340000000  0.4656480000000 1.0
C      1  0.5010940000000  0.5301040000000  0.6081180000000 1.0
C      1  0.4983990000000  0.4096040000000  0.5530070000000 1.0
C      1  0.4612000000000  0.4241170000000  0.4194200000000 1.0
C      1  0.4895440000000  0.5913760000000  0.4744320000000 1.0
C      1  0.5101890000000  0.4371930000000  0.4348950000000 1.0
C      1  0.5078560000000  0.5371990000000  0.4751050000000 1.0
C      1  0.5021090000000  0.4515060000000  0.4785010000000 1.0
END
