TITL C-3623283-6828-322 -7.08026644312674e-07 125000 -348.21395472724 0 0 60 (C1) n - 1
REM
REM in /home/nfs/bkarasulu/CARBON/AIRSS/Generating-Clusters/LCBOP/Higher-Symm/SD-CG/FIRE-CG
REM
REM
REM
REM
REM
REM ./C.cell (b20cbc046b6831c77cfcea5457e17084)
REM AIRSS Version 0.9.1 bugfix July 2018 build 013d7b7c2542+ Fri, 06 Jul 2018 19:26:36 +0100
REM compiler GCC version 9.2.1 20190827 (Red Hat 9.2.1-1)
REM options -cpp -mtune=generic -march=x86-64 -g -O0 -fpre-include=/usr/include/finclude/math-vector-fortran.h
REM seed -719673787 1575589815 -1066169189 -2074765046 1777824479 -79818547 -1330559645 175318401 888391061 853343362 436849819 -562329137 -572645932 1034987481 972563814 -609794893 -37785836 718882278 -2065098909 -824142049 1292991080 -904340963 -1880394690 163117177 -704643960 211327953 1872521303 2026704516 558778494 1865063278 -1228220291 -2067117431 -1104569904
REM
CELL 1.54180   50.00000   50.00000   50.00000   90.00000   90.00000   90.00000
LATT -1
SFAC C  
C      1  0.4860120000000  0.4450620000000  0.5045500000000 1.0
C      1  0.5135590000000  0.5451160000000  0.4973310000000 1.0
C      1  0.5001140000000  0.4462510000000  0.4261250000000 1.0
C      1  0.5027860000000  0.5558520000000  0.5776780000000 1.0
C      1  0.4984720000000  0.5395820000000  0.4521900000000 1.0
C      1  0.4972950000000  0.4657710000000  0.5470520000000 1.0
C      1  0.5680170000000  0.5241330000000  0.4366810000000 1.0
C      1  0.4261530000000  0.4833980000000  0.5590670000000 1.0
C      1  0.4901810000000  0.5475010000000  0.4787050000000 1.0
C      1  0.5071520000000  0.4480370000000  0.5261590000000 1.0
C      1  0.4512430000000  0.4569350000000  0.5913170000000 1.0
C      1  0.5428790000000  0.5527420000000  0.4061930000000 1.0
C      1  0.4187050000000  0.5079870000000  0.5473810000000 1.0
C      1  0.5773050000000  0.5006430000000  0.4489360000000 1.0
C      1  0.4581430000000  0.5062680000000  0.4470810000000 1.0
C      1  0.5381600000000  0.5006710000000  0.5478560000000 1.0
C      1  0.5262790000000  0.4505450000000  0.4292490000000 1.0
C      1  0.4774590000000  0.5487530000000  0.5727350000000 1.0
C      1  0.5289110000000  0.5556730000000  0.5718530000000 1.0
C      1  0.4740920000000  0.4479090000000  0.4318620000000 1.0
C      1  0.4484710000000  0.4675340000000  0.5656790000000 1.0
C      1  0.5461200000000  0.5408590000000  0.4311690000000 1.0
C      1  0.4596830000000  0.5348660000000  0.5561910000000 1.0
C      1  0.5481690000000  0.4582260000000  0.4449490000000 1.0
C      1  0.4679880000000  0.4626180000000  0.5458550000000 1.0
C      1  0.5275650000000  0.5451530000000  0.4519970000000 1.0
C      1  0.4424960000000  0.5546920000000  0.4872710000000 1.0
C      1  0.5532180000000  0.4324980000000  0.5308740000000 1.0
C      1  0.5680040000000  0.5276860000000  0.5144040000000 1.0
C      1  0.4313480000000  0.4800740000000  0.4832820000000 1.0
C      1  0.4391640000000  0.4595370000000  0.5019140000000 1.0
C      1  0.5603560000000  0.5487150000000  0.4960180000000 1.0
C      1  0.5538670000000  0.5236800000000  0.5399710000000 1.0
C      1  0.4450310000000  0.4827930000000  0.4574520000000 1.0
C      1  0.4877530000000  0.4697290000000  0.4874510000000 1.0
C      1  0.5195970000000  0.5157550000000  0.5030830000000 1.0
C      1  0.4096550000000  0.5081340000000  0.5205600000000 1.0
C      1  0.5875170000000  0.5012430000000  0.4753610000000 1.0
C      1  0.4654950000000  0.5405420000000  0.4902190000000 1.0
C      1  0.5343270000000  0.4477980000000  0.5186250000000 1.0
C      1  0.4796460000000  0.5217150000000  0.4406160000000 1.0
C      1  0.5160340000000  0.4860490000000  0.5540670000000 1.0
C      1  0.4529230000000  0.4592390000000  0.4437130000000 1.0
C      1  0.5490760000000  0.5458400000000  0.5570810000000 1.0
C      1  0.4600080000000  0.4518810000000  0.5197310000000 1.0
C      1  0.5374870000000  0.5513530000000  0.4790290000000 1.0
C      1  0.4686150000000  0.5172990000000  0.5063780000000 1.0
C      1  0.5399370000000  0.4652280000000  0.4969210000000 1.0
C      1  0.5392390000000  0.5638290000000  0.3828910000000 1.0
C      1  0.4545380000000  0.4471480000000  0.6152450000000 1.0
C      1  0.5842080000000  0.5084340000000  0.5011950000000 1.0
C      1  0.4146200000000  0.4994700000000  0.4954770000000 1.0
C      1  0.4786950000000  0.4942940000000  0.4937740000000 1.0
C      1  0.5316680000000  0.4922550000000  0.4981580000000 1.0
C      1  0.5682960000000  0.4763780000000  0.4376370000000 1.0
C      1  0.4318680000000  0.5305790000000  0.5586890000000 1.0
C      1  0.5113210000000  0.5636080000000  0.5204270000000 1.0
C      1  0.4860190000000  0.4190940000000  0.4903340000000 1.0
C      1  0.5467140000000  0.4536590000000  0.4725090000000 1.0
C      1  0.4703470000000  0.5216850000000  0.5338010000000 1.0
END
