TITL C-3623285-6872-48 2.62277566264798e-07 125000 -713.86014685781 0 0 118 (C1) n - 1
REM
REM in /home/nfs/bkarasulu/CARBON/AIRSS/Generating-Clusters/LCBOP/Higher-Symm/SD-CG/FIRE-CG
REM
REM
REM
REM
REM
REM ./C.cell (b20cbc046b6831c77cfcea5457e17084)
REM AIRSS Version 0.9.1 bugfix July 2018 build 013d7b7c2542+ Fri, 06 Jul 2018 19:26:36 +0100
REM compiler GCC version 9.2.1 20190827 (Red Hat 9.2.1-1)
REM options -cpp -mtune=generic -march=x86-64 -g -O0 -fpre-include=/usr/include/finclude/math-vector-fortran.h
REM seed 1892993553 -1897701134 -656476809 -547858427 1119761962 -1963880898 1333880365 -1834505904 1110654478 430158872 882570280 -2093502988 1810783721 2084322083 415932261 -783992886 -616953177 355455486 243350938 -623343281 -1609313080 730888187 -1330681051 -162319542 -2099828012 1015221002 1550005562 1402027216 2066150995 1369575848 177431475 -1369822330 -128076350
REM
CELL 1.54180   50.00000   50.00000   50.00000   90.00000   90.00000   90.00000
LATT -1
SFAC C  
C      1  0.4518720000000  0.5207480000000  0.4129090000000 1.0
C      1  0.4783500000000  0.5980390000000  0.5133980000000 1.0
C      1  0.5758890000000  0.5566500000000  0.4850870000000 1.0
C      1  0.4152910000000  0.4768760000000  0.5522810000000 1.0
C      1  0.3955100000000  0.4255540000000  0.5104000000000 1.0
C      1  0.4709510000000  0.4261330000000  0.5267740000000 1.0
C      1  0.5909020000000  0.4601130000000  0.5232590000000 1.0
C      1  0.5309260000000  0.4293350000000  0.4332230000000 1.0
C      1  0.4851890000000  0.4389880000000  0.4290800000000 1.0
C      1  0.5080050000000  0.5966120000000  0.5185480000000 1.0
C      1  0.4910070000000  0.4287730000000  0.5961220000000 1.0
C      1  0.4609780000000  0.4829810000000  0.3843250000000 1.0
C      1  0.4823980000000  0.4791670000000  0.4567190000000 1.0
C      1  0.5535910000000  0.5088750000000  0.4969850000000 1.0
C      1  0.4530660000000  0.4851350000000  0.5006730000000 1.0
C      1  0.4999460000000  0.4562650000000  0.5593060000000 1.0
C      1  0.4965170000000  0.4474690000000  0.4038280000000 1.0
C      1  0.4518760000000  0.4256550000000  0.4724780000000 1.0
C      1  0.4648370000000  0.4374270000000  0.5930910000000 1.0
C      1  0.4559440000000  0.4505830000000  0.5690610000000 1.0
C      1  0.4058450000000  0.5250980000000  0.5762290000000 1.0
C      1  0.4791120000000  0.5078160000000  0.4559850000000 1.0
C      1  0.5645580000000  0.4482610000000  0.5275470000000 1.0
C      1  0.4191970000000  0.5387330000000  0.4623990000000 1.0
C      1  0.4427240000000  0.4255330000000  0.5210200000000 1.0
C      1  0.4240000000000  0.5163010000000  0.5185080000000 1.0
C      1  0.5838830000000  0.5377390000000  0.4666660000000 1.0
C      1  0.4668730000000  0.4439450000000  0.4849330000000 1.0
C      1  0.4366980000000  0.4727890000000  0.3912780000000 1.0
C      1  0.5481160000000  0.5357930000000  0.5748280000000 1.0
C      1  0.5198150000000  0.5778330000000  0.5372580000000 1.0
C      1  0.4717060000000  0.5921140000000  0.4851920000000 1.0
C      1  0.4834190000000  0.5437390000000  0.4866900000000 1.0
C      1  0.5026590000000  0.5757550000000  0.5610420000000 1.0
C      1  0.5212330000000  0.4929130000000  0.4009100000000 1.0
C      1  0.5315430000000  0.5157950000000  0.4405150000000 1.0
C      1  0.5283370000000  0.5460590000000  0.4735150000000 1.0
C      1  0.5191740000000  0.4545340000000  0.5156430000000 1.0
C      1  0.5513770000000  0.5082460000000  0.5814960000000 1.0
C      1  0.4565410000000  0.5485990000000  0.4108090000000 1.0
C      1  0.5095060000000  0.4714420000000  0.4640010000000 1.0
C      1  0.5852940000000  0.5132430000000  0.4541520000000 1.0
C      1  0.5994930000000  0.4773440000000  0.5448150000000 1.0
C      1  0.5493120000000  0.4391970000000  0.4716130000000 1.0
C      1  0.4978470000000  0.4729270000000  0.5133630000000 1.0
C      1  0.5502160000000  0.5746160000000  0.6127510000000 1.0
C      1  0.5415430000000  0.4532320000000  0.4202340000000 1.0
C      1  0.5771090000000  0.4400000000000  0.4675100000000 1.0
C      1  0.5125440000000  0.4829300000000  0.5566490000000 1.0
C      1  0.4794300000000  0.5594560000000  0.5647400000000 1.0
C      1  0.5372600000000  0.5978430000000  0.6160570000000 1.0
C      1  0.5173020000000  0.6074940000000  0.6009020000000 1.0
C      1  0.5039250000000  0.4239080000000  0.4465490000000 1.0
C      1  0.5037770000000  0.5597240000000  0.4750760000000 1.0
C      1  0.4068180000000  0.5366300000000  0.5094640000000 1.0
C      1  0.5182240000000  0.6013530000000  0.4916740000000 1.0
C      1  0.5453860000000  0.4284880000000  0.5418620000000 1.0
C      1  0.4022530000000  0.5451010000000  0.4841920000000 1.0
C      1  0.4235350000000  0.4897240000000  0.5034810000000 1.0
C      1  0.4146610000000  0.4679530000000  0.5241470000000 1.0
C      1  0.5497470000000  0.5540510000000  0.5958600000000 1.0
C      1  0.4019520000000  0.4995810000000  0.5635070000000 1.0
C      1  0.4809950000000  0.5583930000000  0.4041740000000 1.0
C      1  0.4956060000000  0.4165540000000  0.5111900000000 1.0
C      1  0.5461100000000  0.5633280000000  0.5312710000000 1.0
C      1  0.6006690000000  0.5007110000000  0.5005250000000 1.0
C      1  0.5052400000000  0.5970880000000  0.5794600000000 1.0
C      1  0.4216820000000  0.4833740000000  0.4113780000000 1.0
C      1  0.4549640000000  0.4988090000000  0.5561120000000 1.0
C      1  0.5780290000000  0.5147910000000  0.5104460000000 1.0
C      1  0.5475730000000  0.4820760000000  0.4922000000000 1.0
C      1  0.5036500000000  0.5149710000000  0.4443110000000 1.0
C      1  0.4188080000000  0.5114960000000  0.4527060000000 1.0
C      1  0.5794550000000  0.5022040000000  0.5813870000000 1.0
C      1  0.3841710000000  0.5365020000000  0.5887430000000 1.0
C      1  0.5803490000000  0.4846900000000  0.4492360000000 1.0
C      1  0.5062630000000  0.4153490000000  0.4762000000000 1.0
C      1  0.4450060000000  0.5165790000000  0.5378450000000 1.0
C      1  0.4450520000000  0.5500080000000  0.4639850000000 1.0
C      1  0.4510270000000  0.5769610000000  0.4726060000000 1.0
C      1  0.5201400000000  0.4268840000000  0.5243760000000 1.0
C      1  0.5064800000000  0.4952710000000  0.5306320000000 1.0
C      1  0.5109500000000  0.5198730000000  0.5165730000000 1.0
C      1  0.5587870000000  0.4767570000000  0.4293820000000 1.0
C      1  0.4548530000000  0.5512850000000  0.5727100000000 1.0
C      1  0.4758410000000  0.4451810000000  0.5484400000000 1.0
C      1  0.5571740000000  0.5418070000000  0.5480850000000 1.0
C      1  0.4418080000000  0.4742770000000  0.5637290000000 1.0
C      1  0.4737530000000  0.4670340000000  0.4998290000000 1.0
C      1  0.4376620000000  0.4073320000000  0.4605290000000 1.0
C      1  0.5199530000000  0.4637600000000  0.4020510000000 1.0
C      1  0.4177380000000  0.4395970000000  0.5184050000000 1.0
C      1  0.5054030000000  0.5432450000000  0.4042650000000 1.0
C      1  0.5359940000000  0.4654840000000  0.4717450000000 1.0
C      1  0.4696570000000  0.4594750000000  0.4411860000000 1.0
C      1  0.5617040000000  0.5666750000000  0.5065060000000 1.0
C      1  0.4992630000000  0.5875070000000  0.4746120000000 1.0
C      1  0.5494040000000  0.4606570000000  0.5788300000000 1.0
C      1  0.5315860000000  0.5263830000000  0.4960950000000 1.0
C      1  0.5904450000000  0.5023320000000  0.5553330000000 1.0
C      1  0.5114280000000  0.4363710000000  0.5776870000000 1.0
C      1  0.5419080000000  0.4992240000000  0.4208490000000 1.0
C      1  0.4722450000000  0.5054740000000  0.3975510000000 1.0
C      1  0.5774180000000  0.5222680000000  0.5378450000000 1.0
C      1  0.5900430000000  0.4651000000000  0.4695300000000 1.0
C      1  0.4306900000000  0.5396080000000  0.5767760000000 1.0
C      1  0.4142010000000  0.4925490000000  0.4743240000000 1.0
C      1  0.5006700000000  0.5137610000000  0.3976260000000 1.0
C      1  0.5450600000000  0.4654370000000  0.5146480000000 1.0
C      1  0.5358880000000  0.4859080000000  0.5736460000000 1.0
C      1  0.5393760000000  0.4352950000000  0.5699410000000 1.0
C      1  0.5980910000000  0.4723380000000  0.4966720000000 1.0
C      1  0.4297570000000  0.5063670000000  0.4262900000000 1.0
C      1  0.4663600000000  0.5306050000000  0.4683030000000 1.0
C      1  0.4877720000000  0.5352810000000  0.5126930000000 1.0
C      1  0.5350080000000  0.4162710000000  0.4793980000000 1.0
C      1  0.5267540000000  0.5549200000000  0.4208790000000 1.0
C      1  0.5370970000000  0.5433120000000  0.4456440000000 1.0
END
