TITL C-3623288-6813-326 34937.4712841888 125000 -1014.45408520318 0 0 161 (C1) n - 1
REM
REM in /home/nfs/bkarasulu/CARBON/AIRSS/Generating-Clusters/LCBOP/Higher-Symm/SD-CG/FIRE-CG
REM
REM
REM
REM
REM
REM ./C.cell (b20cbc046b6831c77cfcea5457e17084)
REM AIRSS Version 0.9.1 bugfix July 2018 build 013d7b7c2542+ Fri, 06 Jul 2018 19:26:36 +0100
REM compiler GCC version 9.2.1 20190827 (Red Hat 9.2.1-1)
REM options -cpp -mtune=generic -march=x86-64 -g -O0 -fpre-include=/usr/include/finclude/math-vector-fortran.h
REM seed 443716380 -1466371468 696200455 1095939566 958313099 -45376046 1232624274 -418753807 -179778319 -72135673 -676946337 1726044428 173930893 -1121096081 -1034775783 -1995376885 -2186337 -1999497292 865171955 -1612162594 -1150213064 -163540464 -1288362738 1748465844 -442796747 -2075768294 -316713054 -1386904070 1153034060 -2106778992 -823127486 898922139 1029501809
REM
CELL 1.54180   50.00000   50.00000   50.00000   90.00000   90.00000   90.00000
LATT -1
SFAC C  
C      1  0.5317930000000  0.5887230000000  0.5603610000000 1.0
C      1  0.4246490000000  0.5495260000000  0.5531980000000 1.0
C      1  0.4299360000000  0.4385180000000  0.5609850000000 1.0
C      1  0.5371260000000  0.4087500000000  0.5753720000000 1.0
C      1  0.6010300000000  0.5018190000000  0.5750760000000 1.0
C      1  0.4701800000000  0.5976820000000  0.4303940000000 1.0
C      1  0.5736740000000  0.5550910000000  0.4439240000000 1.0
C      1  0.5692510000000  0.4444800000000  0.4425960000000 1.0
C      1  0.4637990000000  0.4159120000000  0.4405850000000 1.0
C      1  0.4046010000000  0.5098540000000  0.4380800000000 1.0
C      1  0.4654700000000  0.4935540000000  0.4558830000000 1.0
C      1  0.4879310000000  0.4744030000000  0.4572780000000 1.0
C      1  0.5144800000000  0.4858660000000  0.4679390000000 1.0
C      1  0.5248530000000  0.5102990000000  0.4581840000000 1.0
C      1  0.4873860000000  0.5357810000000  0.4731390000000 1.0
C      1  0.5340790000000  0.4801650000000  0.5337840000000 1.0
C      1  0.5096810000000  0.4648470000000  0.5244600000000 1.0
C      1  0.4819230000000  0.4772980000000  0.5318310000000 1.0
C      1  0.4794970000000  0.5042900000000  0.5166730000000 1.0
C      1  0.5165420000000  0.5332530000000  0.5236550000000 1.0
C      1  0.5089170000000  0.4729610000000  0.5738560000000 1.0
C      1  0.5297450000000  0.4940370000000  0.5624310000000 1.0
C      1  0.5124640000000  0.5233550000000  0.5573110000000 1.0
C      1  0.4819570000000  0.5130890000000  0.5651660000000 1.0
C      1  0.4805440000000  0.4816230000000  0.5639380000000 1.0
C      1  0.4958850000000  0.4681810000000  0.4286950000000 1.0
C      1  0.4658570000000  0.5103140000000  0.4334750000000 1.0
C      1  0.4886460000000  0.5303360000000  0.4357920000000 1.0
C      1  0.5168840000000  0.5152490000000  0.4301690000000 1.0
C      1  0.5172700000000  0.4856790000000  0.4205900000000 1.0
C      1  0.5823460000000  0.4722070000000  0.5310830000000 1.0
C      1  0.5589370000000  0.5590900000000  0.5233770000000 1.0
C      1  0.4610520000000  0.5488110000000  0.5116300000000 1.0
C      1  0.4318850000000  0.4693270000000  0.5122160000000 1.0
C      1  0.5112560000000  0.4160900000000  0.5272630000000 1.0
C      1  0.4279320000000  0.4771580000000  0.4853050000000 1.0
C      1  0.4521820000000  0.5714990000000  0.4720040000000 1.0
C      1  0.5346400000000  0.5547060000000  0.4839880000000 1.0
C      1  0.5585670000000  0.4778440000000  0.4901470000000 1.0
C      1  0.4990660000000  0.4334270000000  0.4849980000000 1.0
C      1  0.4100590000000  0.4164010000000  0.4731930000000 1.0
C      1  0.5524760000000  0.3965330000000  0.4770940000000 1.0
C      1  0.6033850000000  0.5240140000000  0.4881380000000 1.0
C      1  0.5006470000000  0.6070260000000  0.4845160000000 1.0
C      1  0.3887310000000  0.5618180000000  0.4691170000000 1.0
C      1  0.5892290000000  0.4106750000000  0.5392710000000 1.0
C      1  0.4539370000000  0.3923440000000  0.5259880000000 1.0
C      1  0.3878530000000  0.5149340000000  0.5138080000000 1.0
C      1  0.4931790000000  0.6040650000000  0.5097550000000 1.0
C      1  0.6207700000000  0.5516390000000  0.5379860000000 1.0
C      1  0.5537580000000  0.5754450000000  0.4445390000000 1.0
C      1  0.4434410000000  0.5871160000000  0.4286210000000 1.0
C      1  0.4071930000000  0.4810890000000  0.4403560000000 1.0
C      1  0.4918170000000  0.4103420000000  0.4418450000000 1.0
C      1  0.5815380000000  0.4694380000000  0.4468990000000 1.0
C      1  0.4455170000000  0.5694130000000  0.5524990000000 1.0
C      1  0.5585120000000  0.5783030000000  0.5664530000000 1.0
C      1  0.5963430000000  0.4733190000000  0.5770140000000 1.0
C      1  0.5089980000000  0.4031490000000  0.5733430000000 1.0
C      1  0.4151880000000  0.4631250000000  0.5576460000000 1.0
C      1  0.4082240000000  0.4806320000000  0.5790600000000 1.0
C      1  0.4893930000000  0.4046130000000  0.5939430000000 1.0
C      1  0.5878170000000  0.4588440000000  0.6001280000000 1.0
C      1  0.5692210000000  0.5687530000000  0.5912950000000 1.0
C      1  0.4570590000000  0.5839870000000  0.5741890000000 1.0
C      1  0.5902630000000  0.4847340000000  0.4245670000000 1.0
C      1  0.5078440000000  0.4094160000000  0.4181010000000 1.0
C      1  0.4131530000000  0.4661640000000  0.4166500000000 1.0
C      1  0.4301380000000  0.5751910000000  0.4064830000000 1.0
C      1  0.5440310000000  0.5882890000000  0.4211230000000 1.0
C      1  0.4857180000000  0.5252850000000  0.6246990000000 1.0
C      1  0.4735280000000  0.4983450000000  0.6267850000000 1.0
C      1  0.4952120000000  0.4788110000000  0.6309930000000 1.0
C      1  0.5209770000000  0.4938220000000  0.6295450000000 1.0
C      1  0.5148630000000  0.5221640000000  0.6257500000000 1.0
C      1  0.5129170000000  0.5261510000000  0.3697890000000 1.0
C      1  0.5251100000000  0.4989980000000  0.3677730000000 1.0
C      1  0.5023420000000  0.4786250000000  0.3681000000000 1.0
C      1  0.4773190000000  0.4944220000000  0.3708700000000 1.0
C      1  0.4837630000000  0.5231610000000  0.3704720000000 1.0
C      1  0.5036780000000  0.4536590000000  0.3837180000000 1.0
C      1  0.5476920000000  0.4929610000000  0.3856610000000 1.0
C      1  0.5237200000000  0.5439800000000  0.3899120000000 1.0
C      1  0.4688110000000  0.5401770000000  0.3885030000000 1.0
C      1  0.4573340000000  0.4861210000000  0.3901330000000 1.0
C      1  0.4938360000000  0.4545510000000  0.6154420000000 1.0
C      1  0.4536760000000  0.4914380000000  0.6068650000000 1.0
C      1  0.4761400000000  0.5421920000000  0.6035260000000 1.0
C      1  0.5305190000000  0.5356350000000  0.6057280000000 1.0
C      1  0.5421200000000  0.4831010000000  0.6129640000000 1.0
C      1  0.4960090000000  0.4053140000000  0.5478170000000 1.0
C      1  0.5897390000000  0.4577480000000  0.5536000000000 1.0
C      1  0.5737960000000  0.5645420000000  0.5458520000000 1.0
C      1  0.4640060000000  0.5697130000000  0.5302570000000 1.0
C      1  0.4144680000000  0.4779760000000  0.5327050000000 1.0
C      1  0.5085610000000  0.4150850000000  0.4654000000000 1.0
C      1  0.4140300000000  0.4646520000000  0.4639370000000 1.0
C      1  0.4329540000000  0.5756550000000  0.4527620000000 1.0
C      1  0.5341980000000  0.5767600000000  0.4661020000000 1.0
C      1  0.5780670000000  0.4857670000000  0.4707140000000 1.0
C      1  0.4505920000000  0.5061960000000  0.4093390000000 1.0
C      1  0.4847920000000  0.4537500000000  0.4062760000000 1.0
C      1  0.5379220000000  0.4733870000000  0.4042150000000 1.0
C      1  0.5363390000000  0.5291770000000  0.4108680000000 1.0
C      1  0.4846660000000  0.5500040000000  0.4110180000000 1.0
C      1  0.5486620000000  0.4984680000000  0.5889140000000 1.0
C      1  0.5145830000000  0.4542410000000  0.5955400000000 1.0
C      1  0.4621370000000  0.4711100000000  0.5880690000000 1.0
C      1  0.4632800000000  0.5271180000000  0.5829350000000 1.0
C      1  0.5165370000000  0.5453230000000  0.5833080000000 1.0
C      1  0.5639640000000  0.4426690000000  0.5991440000000 1.0
C      1  0.5764720000000  0.5408560000000  0.5929870000000 1.0
C      1  0.4855720000000  0.5828740000000  0.5782320000000 1.0
C      1  0.4172980000000  0.5078760000000  0.5790830000000 1.0
C      1  0.4666030000000  0.4219410000000  0.5909790000000 1.0
C      1  0.4362620000000  0.4493300000000  0.4148020000000 1.0
C      1  0.4235680000000  0.5471090000000  0.4077680000000 1.0
C      1  0.5161850000000  0.5870730000000  0.4150540000000 1.0
C      1  0.5806800000000  0.5111910000000  0.4202630000000 1.0
C      1  0.5314810000000  0.4254790000000  0.4144580000000 1.0
C      1  0.4098860000000  0.5583280000000  0.4522110000000 1.0
C      1  0.4211860000000  0.4368480000000  0.4588250000000 1.0
C      1  0.5368970000000  0.4122770000000  0.4610900000000 1.0
C      1  0.5878910000000  0.5130660000000  0.4683920000000 1.0
C      1  0.5109460000000  0.5939590000000  0.4621870000000 1.0
C      1  0.5972700000000  0.5483610000000  0.5515180000000 1.0
C      1  0.5801800000000  0.4303140000000  0.5560460000000 1.0
C      1  0.4669690000000  0.4059030000000  0.5458880000000 1.0
C      1  0.4051650000000  0.5057250000000  0.5329300000000 1.0
C      1  0.4874070000000  0.5874690000000  0.5313520000000 1.0
C      1  0.5592360000000  0.5141820000000  0.4021020000000 1.0
C      1  0.5074930000000  0.5643790000000  0.4012800000000 1.0
C      1  0.4432470000000  0.5306510000000  0.3968720000000 1.0
C      1  0.4579950000000  0.4595970000000  0.4002130000000 1.0
C      1  0.5298520000000  0.4471710000000  0.3958530000000 1.0
C      1  0.4409720000000  0.5125710000000  0.5929150000000 1.0
C      1  0.4942760000000  0.5602520000000  0.5918280000000 1.0
C      1  0.5549630000000  0.5243160000000  0.5982980000000 1.0
C      1  0.5405530000000  0.4555520000000  0.6068800000000 1.0
C      1  0.4696210000000  0.4473740000000  0.6020510000000 1.0
C      1  0.4579560000000  0.4622240000000  0.5212640000000 1.0
C      1  0.5089910000000  0.4387460000000  0.5112370000000 1.0
C      1  0.5586330000000  0.4792240000000  0.5184600000000 1.0
C      1  0.5348830000000  0.5518070000000  0.5121730000000 1.0
C      1  0.4574130000000  0.5219750000000  0.5199650000000 1.0
C      1  0.5339830000000  0.4698840000000  0.4794660000000 1.0
C      1  0.4810600000000  0.4518350000000  0.4743750000000 1.0
C      1  0.4463700000000  0.4958270000000  0.4756990000000 1.0
C      1  0.4678540000000  0.5526170000000  0.4842260000000 1.0
C      1  0.5379600000000  0.5300730000000  0.4715520000000 1.0
C      1  0.5610820000000  0.4246200000000  0.5769490000000 1.0
C      1  0.5947790000000  0.5300630000000  0.5736550000000 1.0
C      1  0.5027220000000  0.5893540000000  0.5559240000000 1.0
C      1  0.4137420000000  0.5227970000000  0.5547280000000 1.0
C      1  0.4523320000000  0.4208620000000  0.5658580000000 1.0
C      1  0.4403210000000  0.4319520000000  0.4375860000000 1.0
C      1  0.4103360000000  0.5376430000000  0.4320480000000 1.0
C      1  0.4983810000000  0.5957880000000  0.4360930000000 1.0
C      1  0.5823600000000  0.5279350000000  0.4439020000000 1.0
C      1  0.5478480000000  0.4266200000000  0.4384500000000 1.0
C      1  0.4994840000000  0.5201290000000  0.5038260000000 1.0
END
