TITL C-3623286-7563-1218 0.086433599137722 125000 -536.802877820857 0 0 89 (C1) n - 1
REM
REM in /home/nfs/bkarasulu/CARBON/AIRSS/Generating-Clusters/LCBOP/Higher-Symm/SD-CG/FIRE-CG
REM
REM
REM
REM
REM
REM ./C.cell (b20cbc046b6831c77cfcea5457e17084)
REM AIRSS Version 0.9.1 bugfix July 2018 build 013d7b7c2542+ Fri, 06 Jul 2018 19:26:36 +0100
REM compiler GCC version 9.2.1 20190827 (Red Hat 9.2.1-1)
REM options -cpp -mtune=generic -march=x86-64 -g -O0 -fpre-include=/usr/include/finclude/math-vector-fortran.h
REM seed -746565145 1570011248 -1039163335 -875247319 -376463467 2057790897 -2082108591 -580890133 -334231153 1992337993 -498164071 1692415067 1044950369 1898199715 -1772783858 856312575 -1280489601 -1009732300 1994825311 242236744 1581124005 1651549629 -459691171 -166175876 -214499842 1740385869 1749906971 418335920 -1869321938 612472394 847173620 803297114 213006375
REM
CELL 1.54180   50.00000   50.00000   50.00000   90.00000   90.00000   90.00000
LATT -1
SFAC C  
C      1  0.5149500000000  0.5146230000000  0.4446710000000 1.0
C      1  0.4893650000000  0.5162940000000  0.4300630000000 1.0
C      1  0.4580610000000  0.4425150000000  0.4958170000000 1.0
C      1  0.5499560000000  0.4375120000000  0.4972650000000 1.0
C      1  0.5639650000000  0.5453630000000  0.5323350000000 1.0
C      1  0.4342910000000  0.5481830000000  0.5410310000000 1.0
C      1  0.4132180000000  0.5265410000000  0.4963260000000 1.0
C      1  0.5868420000000  0.5243590000000  0.4903710000000 1.0
C      1  0.4579740000000  0.5644660000000  0.5547580000000 1.0
C      1  0.5443720000000  0.5583540000000  0.5499410000000 1.0
C      1  0.5697930000000  0.4582320000000  0.4922710000000 1.0
C      1  0.4409030000000  0.4660300000000  0.4927260000000 1.0
C      1  0.5277680000000  0.4947250000000  0.5601890000000 1.0
C      1  0.4750260000000  0.4911010000000  0.5566330000000 1.0
C      1  0.4345450000000  0.4689660000000  0.5409340000000 1.0
C      1  0.5686170000000  0.4700410000000  0.5411840000000 1.0
C      1  0.5416410000000  0.4299150000000  0.5254230000000 1.0
C      1  0.4646670000000  0.4330820000000  0.5234940000000 1.0
C      1  0.4807050000000  0.5265010000000  0.4806990000000 1.0
C      1  0.5051740000000  0.5176650000000  0.4883900000000 1.0
C      1  0.5280020000000  0.4300840000000  0.4790350000000 1.0
C      1  0.4782850000000  0.4309930000000  0.4777630000000 1.0
C      1  0.4867950000000  0.5667410000000  0.5616940000000 1.0
C      1  0.5185580000000  0.5507620000000  0.5616900000000 1.0
C      1  0.5519880000000  0.4460630000000  0.5476360000000 1.0
C      1  0.4523230000000  0.4458350000000  0.5460000000000 1.0
C      1  0.5147760000000  0.5224320000000  0.5653410000000 1.0
C      1  0.4846590000000  0.5197030000000  0.5623520000000 1.0
C      1  0.4799300000000  0.5335780000000  0.5330550000000 1.0
C      1  0.5221130000000  0.5288340000000  0.5072650000000 1.0
C      1  0.4341130000000  0.5028000000000  0.4560000000000 1.0
C      1  0.5715240000000  0.4954860000000  0.4507130000000 1.0
C      1  0.4709230000000  0.5289140000000  0.5870700000000 1.0
C      1  0.4601510000000  0.5325690000000  0.6105170000000 1.0
C      1  0.5088180000000  0.5563580000000  0.4211120000000 1.0
C      1  0.4814480000000  0.5444520000000  0.4264480000000 1.0
C      1  0.5168380000000  0.4708390000000  0.5769770000000 1.0
C      1  0.4873030000000  0.4689320000000  0.5745910000000 1.0
C      1  0.4887130000000  0.4061880000000  0.4876880000000 1.0
C      1  0.5160100000000  0.4055080000000  0.4880810000000 1.0
C      1  0.4732970000000  0.4948880000000  0.4217350000000 1.0
C      1  0.5366400000000  0.4803950000000  0.4137350000000 1.0
C      1  0.5264040000000  0.5454910000000  0.4452030000000 1.0
C      1  0.4637300000000  0.5551140000000  0.4478680000000 1.0
C      1  0.4089420000000  0.4998750000000  0.5083570000000 1.0
C      1  0.5937110000000  0.4994780000000  0.5053170000000 1.0
C      1  0.5160440000000  0.4850480000000  0.5336900000000 1.0
C      1  0.4883960000000  0.4843200000000  0.5296960000000 1.0
C      1  0.5352470000000  0.4489040000000  0.5712790000000 1.0
C      1  0.4688160000000  0.4469950000000  0.5699690000000 1.0
C      1  0.5631100000000  0.4784270000000  0.4726840000000 1.0
C      1  0.4470750000000  0.4907140000000  0.4787060000000 1.0
C      1  0.4226820000000  0.5279800000000  0.4669490000000 1.0
C      1  0.5756560000000  0.5226690000000  0.4615590000000 1.0
C      1  0.5127030000000  0.4653110000000  0.4105530000000 1.0
C      1  0.4863020000000  0.4757270000000  0.4049960000000 1.0
C      1  0.5559180000000  0.5447980000000  0.4579060000000 1.0
C      1  0.4380530000000  0.5531470000000  0.4631150000000 1.0
C      1  0.5160180000000  0.4165000000000  0.5257590000000 1.0
C      1  0.4887390000000  0.4177270000000  0.5250070000000 1.0
C      1  0.5296670000000  0.4705350000000  0.5159830000000 1.0
C      1  0.4852710000000  0.4782040000000  0.5022450000000 1.0
C      1  0.5560670000000  0.5612280000000  0.4836020000000 1.0
C      1  0.4417250000000  0.5648340000000  0.4917040000000 1.0
C      1  0.4463990000000  0.4959400000000  0.4313580000000 1.0
C      1  0.5589770000000  0.4894610000000  0.4259490000000 1.0
C      1  0.4444620000000  0.4929010000000  0.5537700000000 1.0
C      1  0.5572670000000  0.4954150000000  0.5514360000000 1.0
C      1  0.4589560000000  0.5181710000000  0.5201010000000 1.0
C      1  0.5449170000000  0.5122620000000  0.5080330000000 1.0
C      1  0.5161520000000  0.5565710000000  0.5116250000000 1.0
C      1  0.4882250000000  0.5579170000000  0.5184850000000 1.0
C      1  0.5172860000000  0.4979200000000  0.4702850000000 1.0
C      1  0.5005890000000  0.4737960000000  0.4778040000000 1.0
C      1  0.5290510000000  0.5696470000000  0.4894600000000 1.0
C      1  0.4703710000000  0.5683780000000  0.4973280000000 1.0
C      1  0.4734490000000  0.4673210000000  0.3822000000000 1.0
C      1  0.5150190000000  0.4378960000000  0.4124610000000 1.0
C      1  0.5433570000000  0.4951110000000  0.4847500000000 1.0
C      1  0.4606430000000  0.5114250000000  0.4932230000000 1.0
C      1  0.5739260000000  0.5492600000000  0.5039900000000 1.0
C      1  0.4245870000000  0.5512090000000  0.5118080000000 1.0
C      1  0.4231420000000  0.4745560000000  0.5146880000000 1.0
C      1  0.5824070000000  0.4731820000000  0.5147620000000 1.0
C      1  0.5600060000000  0.5165350000000  0.5324370000000 1.0
C      1  0.4388540000000  0.5186100000000  0.5414280000000 1.0
C      1  0.5117960000000  0.5630660000000  0.4670650000000 1.0
C      1  0.4829400000000  0.5559970000000  0.4719050000000 1.0
C      1  0.5034940000000  0.4463970000000  0.4716380000000 1.0
END
