TITL C-3623287-7182-1818 -1.51740114497966e-06 125000 -1194.43920526173 0 0 195 (D2) n - 1
REM
REM in /home/nfs/bkarasulu/CARBON/AIRSS/Generating-Clusters/LCBOP/Higher-Symm/SD-CG/FIRE-CG
REM
REM
REM
REM
REM
REM ./C.cell (b20cbc046b6831c77cfcea5457e17084)
REM AIRSS Version 0.9.1 bugfix July 2018 build 013d7b7c2542+ Fri, 06 Jul 2018 19:26:36 +0100
REM compiler GCC version 9.2.1 20190827 (Red Hat 9.2.1-1)
REM options -cpp -mtune=generic -march=x86-64 -g -O0 -fpre-include=/usr/include/finclude/math-vector-fortran.h
REM seed -1494567975 1403680447 -2113188401 1902816315 1599009129 1526849237 -657343274 -2108213691 -938931551 1222202215 1267729736 1690858671 -902205575 -207573835 1123163170 412695965 -1198851283 -1949523329 -59336950 662143282 -1547139920 -1043927939 1232440137 72657753 -1179875930 -2041547793 1202797334 -1823047934 -1456676201 -427075651 -1443731087 239731078 1320736184
REM
CELL 1.54180   50.00000   50.00000   50.00000   90.00000   90.00000   90.00000
LATT -1
SFAC C  
C      1  0.4903240000000  0.5766640000000  0.4516940000000 1.0
C      1  0.5100540000000  0.4236440000000  0.4516710000000 1.0
C      1  0.4902540000000  0.4236380000000  0.5490050000000 1.0
C      1  0.5101220000000  0.5766400000000  0.5490280000000 1.0
C      1  0.5316970000000  0.4506020000000  0.5489790000000 1.0
C      1  0.4686790000000  0.5496760000000  0.5489940000000 1.0
C      1  0.5317420000000  0.5496620000000  0.4517200000000 1.0
C      1  0.4686360000000  0.4506450000000  0.4517050000000 1.0
C      1  0.5113170000000  0.5196500000000  0.5827990000000 1.0
C      1  0.4890590000000  0.4806190000000  0.5827930000000 1.0
C      1  0.5113000000000  0.4806340000000  0.4179000000000 1.0
C      1  0.4890780000000  0.5196840000000  0.4179060000000 1.0
C      1  0.4174210000000  0.5500350000000  0.5392430000000 1.0
C      1  0.5829550000000  0.4502460000000  0.5392300000000 1.0
C      1  0.4173770000000  0.4503320000000  0.4614540000000 1.0
C      1  0.5830010000000  0.5499730000000  0.4614710000000 1.0
C      1  0.4459260000000  0.5195880000000  0.6058890000000 1.0
C      1  0.5544490000000  0.4806730000000  0.6058840000000 1.0
C      1  0.4459110000000  0.4807540000000  0.3948090000000 1.0
C      1  0.5544680000000  0.5195710000000  0.3948160000000 1.0
C      1  0.4783150000000  0.4966450000000  0.4569860000000 1.0
C      1  0.5220630000000  0.5036610000000  0.4569880000000 1.0
C      1  0.4783170000000  0.5036680000000  0.5437120000000 1.0
C      1  0.5220590000000  0.4966120000000  0.5437120000000 1.0
C      1  0.5548410000000  0.4899340000000  0.3980820000000 1.0
C      1  0.4455370000000  0.5103900000000  0.3980840000000 1.0
C      1  0.5548490000000  0.5103110000000  0.6026180000000 1.0
C      1  0.4455260000000  0.4899520000000  0.6026140000000 1.0
C      1  0.5602660000000  0.4668790000000  0.5443960000000 1.0
C      1  0.4401100000000  0.5334010000000  0.5444050000000 1.0
C      1  0.5602960000000  0.5333600000000  0.4563040000000 1.0
C      1  0.4400810000000  0.4669460000000  0.4562930000000 1.0
C      1  0.4884430000000  0.5665030000000  0.5663150000000 1.0
C      1  0.5119330000000  0.4337700000000  0.5662960000000 1.0
C      1  0.4883840000000  0.4338010000000  0.4343830000000 1.0
C      1  0.5119940000000  0.5665120000000  0.4344030000000 1.0
C      1  0.4334090000000  0.4465820000000  0.5382370000000 1.0
C      1  0.5669670000000  0.5536990000000  0.5382550000000 1.0
C      1  0.4334570000000  0.5537710000000  0.4624600000000 1.0
C      1  0.5669200000000  0.4465340000000  0.4624450000000 1.0
C      1  0.4701970000000  0.6322860000000  0.5279080000000 1.0
C      1  0.5301790000000  0.3679990000000  0.5278690000000 1.0
C      1  0.4700790000000  0.3680340000000  0.4727900000000 1.0
C      1  0.5302980000000  0.6322670000000  0.4728300000000 1.0
C      1  0.3925610000000  0.5005910000000  0.5137770000000 1.0
C      1  0.6078150000000  0.4996980000000  0.5137780000000 1.0
C      1  0.3925610000000  0.4997990000000  0.4869200000000 1.0
C      1  0.6078160000000  0.5004980000000  0.4869220000000 1.0
C      1  0.5142690000000  0.4541590000000  0.5225900000000 1.0
C      1  0.4861080000000  0.5461270000000  0.5226030000000 1.0
C      1  0.5143100000000  0.5461210000000  0.4781090000000 1.0
C      1  0.4860670000000  0.4541790000000  0.4780950000000 1.0
C      1  0.4840600000000  0.5553430000000  0.4726740000000 1.0
C      1  0.5163180000000  0.4449580000000  0.4726580000000 1.0
C      1  0.4840100000000  0.4449640000000  0.5280240000000 1.0
C      1  0.5163670000000  0.5553200000000  0.5280410000000 1.0
C      1  0.4840680000000  0.5165930000000  0.5192130000000 1.0
C      1  0.5163090000000  0.4836950000000  0.5192080000000 1.0
C      1  0.4840530000000  0.4837150000000  0.4814860000000 1.0
C      1  0.5163240000000  0.5165840000000  0.4814910000000 1.0
C      1  0.5694720000000  0.4577220000000  0.5993260000000 1.0
C      1  0.4309030000000  0.5425410000000  0.5993380000000 1.0
C      1  0.5695120000000  0.5425090000000  0.4013740000000 1.0
C      1  0.4308660000000  0.4578140000000  0.4013600000000 1.0
C      1  0.5906490000000  0.5402300000000  0.5310910000000 1.0
C      1  0.4097280000000  0.4600540000000  0.5310780000000 1.0
C      1  0.5906130000000  0.4599820000000  0.4696090000000 1.0
C      1  0.4097640000000  0.5403200000000  0.4696190000000 1.0
C      1  0.4099140000000  0.5578190000000  0.5137630000000 1.0
C      1  0.5904620000000  0.4424710000000  0.5137470000000 1.0
C      1  0.4098630000000  0.4425560000000  0.4869350000000 1.0
C      1  0.5905140000000  0.5577420000000  0.4869530000000 1.0
C      1  0.4367200000000  0.3805120000000  0.5246890000000 1.0
C      1  0.5636560000000  0.6197740000000  0.5247260000000 1.0
C      1  0.4368280000000  0.6198380000000  0.4760080000000 1.0
C      1  0.5635490000000  0.3804620000000  0.4759730000000 1.0
C      1  0.5046300000000  0.4392810000000  0.5938450000000 1.0
C      1  0.4957450000000  0.5609840000000  0.5938630000000 1.0
C      1  0.5046860000000  0.5610080000000  0.4068540000000 1.0
C      1  0.4956920000000  0.4393130000000  0.4068360000000 1.0
C      1  0.5175100000000  0.3603860000000  0.4184080000000 1.0
C      1  0.4828680000000  0.6399320000000  0.4184500000000 1.0
C      1  0.5176340000000  0.6398920000000  0.5822910000000 1.0
C      1  0.4827420000000  0.3603770000000  0.5822490000000 1.0
C      1  0.3671740000000  0.5564280000000  0.4935280000000 1.0
C      1  0.6332030000000  0.4438670000000  0.4935130000000 1.0
C      1  0.3671230000000  0.4439850000000  0.5071690000000 1.0
C      1  0.6332530000000  0.5563060000000  0.5071880000000 1.0
C      1  0.4607480000000  0.6057360000000  0.5281430000000 1.0
C      1  0.5396290000000  0.3945490000000  0.5281120000000 1.0
C      1  0.4606530000000  0.3945930000000  0.4725550000000 1.0
C      1  0.5397240000000  0.6057090000000  0.4725870000000 1.0
C      1  0.4031960000000  0.4423720000000  0.4380380000000 1.0
C      1  0.5971820000000  0.5579400000000  0.4380570000000 1.0
C      1  0.4032470000000  0.5580080000000  0.5626590000000 1.0
C      1  0.5971290000000  0.4422660000000  0.5626430000000 1.0
C      1  0.5408360000000  0.3957340000000  0.4784590000000 1.0
C      1  0.4595410000000  0.6045660000000  0.4784890000000 1.0
C      1  0.5409290000000  0.6045230000000  0.5222410000000 1.0
C      1  0.4594470000000  0.3957640000000  0.5222090000000 1.0
C      1  0.4797300000000  0.3782820000000  0.5635550000000 1.0
C      1  0.5206450000000  0.6219920000000  0.5635920000000 1.0
C      1  0.4798410000000  0.6220290000000  0.4371430000000 1.0
C      1  0.5205370000000  0.3782830000000  0.4371070000000 1.0
C      1  0.5178170000000  0.4321570000000  0.3894790000000 1.0
C      1  0.4825610000000  0.5681690000000  0.3894990000000 1.0
C      1  0.5178770000000  0.5681200000000  0.6112200000000 1.0
C      1  0.4824980000000  0.4321400000000  0.6111990000000 1.0
C      1  0.3560870000000  0.4386300000000  0.4584230000000 1.0
C      1  0.6442900000000  0.5616760000000  0.4584440000000 1.0
C      1  0.3561420000000  0.5617920000000  0.5422730000000 1.0
C      1  0.6442350000000  0.4384880000000  0.5422570000000 1.0
C      1  0.5782810000000  0.4359070000000  0.5831950000000 1.0
C      1  0.4220940000000  0.5643610000000  0.5832130000000 1.0
C      1  0.5783400000000  0.5643160000000  0.4175050000000 1.0
C      1  0.4220380000000  0.4360020000000  0.4174850000000 1.0
C      1  0.4757670000000  0.5645590000000  0.5008380000000 1.0
C      1  0.5246090000000  0.4357340000000  0.5008190000000 1.0
C      1  0.4757100000000  0.4357560000000  0.4998610000000 1.0
C      1  0.5246670000000  0.5645370000000  0.4998800000000 1.0
C      1  0.6480610000000  0.4402990000000  0.5157250000000 1.0
C      1  0.3523150000000  0.5599900000000  0.5157410000000 1.0
C      1  0.6481150000000  0.5598620000000  0.4849760000000 1.0
C      1  0.3522620000000  0.4404360000000  0.4849560000000 1.0
C      1  0.4557900000000  0.5139720000000  0.4503080000000 1.0
C      1  0.5445880000000  0.4863360000000  0.4503040000000 1.0
C      1  0.4557770000000  0.4863610000000  0.5503900000000 1.0
C      1  0.5445990000000  0.5139170000000  0.5503950000000 1.0
C      1  0.5357460000000  0.4094260000000  0.5035170000000 1.0
C      1  0.4646310000000  0.5908660000000  0.5035440000000 1.0
C      1  0.5358270000000  0.5908350000000  0.4971820000000 1.0
C      1  0.4645500000000  0.4094590000000  0.4971540000000 1.0
C      1  0.5904010000000  0.4891490000000  0.4680230000000 1.0
C      1  0.4099760000000  0.5111540000000  0.4680250000000 1.0
C      1  0.5904100000000  0.5110630000000  0.5326770000000 1.0
C      1  0.4099660000000  0.4892200000000  0.5326720000000 1.0
C      1  0.4481110000000  0.4029010000000  0.4483840000000 1.0
C      1  0.5522670000000  0.5974080000000  0.4484140000000 1.0
C      1  0.4481970000000  0.5974390000000  0.5523140000000 1.0
C      1  0.5521790000000  0.4028390000000  0.5522850000000 1.0
C      1  0.5620990000000  0.5864170000000  0.4256590000000 1.0
C      1  0.4382790000000  0.4138980000000  0.4256320000000 1.0
C      1  0.5620200000000  0.4138200000000  0.5750410000000 1.0
C      1  0.4383550000000  0.5864500000000  0.5750660000000 1.0
C      1  0.5272510000000  0.4774260000000  0.6175980000000 1.0
C      1  0.4731230000000  0.5228320000000  0.6176040000000 1.0
C      1  0.5272740000000  0.5228430000000  0.3831010000000 1.0
C      1  0.4731050000000  0.4774860000000  0.3830940000000 1.0
C      1  0.3948880000000  0.5527740000000  0.4904680000000 1.0
C      1  0.6054890000000  0.4475220000000  0.4904540000000 1.0
C      1  0.3948400000000  0.4476140000000  0.5102290000000 1.0
C      1  0.6055360000000  0.5526760000000  0.5102470000000 1.0
C      1  0.5077680000000  0.5329210000000  0.4009750000000 1.0
C      1  0.4926100000000  0.4674020000000  0.4009650000000 1.0
C      1  0.5077370000000  0.4673660000000  0.5997240000000 1.0
C      1  0.4926380000000  0.5328980000000  0.5997340000000 1.0
C      1  0.5417060000000  0.4593390000000  0.4626010000000 1.0
C      1  0.4586710000000  0.5409650000000  0.4626130000000 1.0
C      1  0.5417420000000  0.5409170000000  0.5380980000000 1.0
C      1  0.4586340000000  0.4593650000000  0.5380860000000 1.0
C      1  0.4327630000000  0.5039860000000  0.5433430000000 1.0
C      1  0.5676130000000  0.4962940000000  0.5433430000000 1.0
C      1  0.4327600000000  0.4963680000000  0.4573550000000 1.0
C      1  0.5676170000000  0.5039380000000  0.4573570000000 1.0
C      1  0.4770420000000  0.6573640000000  0.5260550000000 1.0
C      1  0.5233340000000  0.3429210000000  0.5260080000000 1.0
C      1  0.4769020000000  0.3429500000000  0.4746430000000 1.0
C      1  0.5234750000000  0.6573510000000  0.4746910000000 1.0
C      1  0.4600940000000  0.4810980000000  0.5798560000000 1.0
C      1  0.5402810000000  0.5191720000000  0.5798630000000 1.0
C      1  0.4601130000000  0.5192310000000  0.4208420000000 1.0
C      1  0.5402650000000  0.4810860000000  0.4208370000000 1.0
C      1  0.3755340000000  0.5611560000000  0.5608340000000 1.0
C      1  0.6248420000000  0.4391190000000  0.5608180000000 1.0
C      1  0.3754800000000  0.4392490000000  0.4398630000000 1.0
C      1  0.6248980000000  0.5610630000000  0.4398830000000 1.0
C      1  0.5259050000000  0.4999290000000  0.3646670000000 1.0
C      1  0.4744740000000  0.5004050000000  0.3646670000000 1.0
C      1  0.5259030000000  0.5003410000000  0.6360320000000 1.0
C      1  0.4744720000000  0.4999110000000  0.6360310000000 1.0
C      1  0.4585190000000  0.4771810000000  0.6265010000000 1.0
C      1  0.5418560000000  0.5230750000000  0.6265090000000 1.0
C      1  0.4585420000000  0.5231500000000  0.3741970000000 1.0
C      1  0.5418370000000  0.4771810000000  0.3741910000000 1.0
C      1  0.4662700000000  0.5506560000000  0.3757940000000 1.0
C      1  0.5341090000000  0.4496740000000  0.3757790000000 1.0
C      1  0.4662230000000  0.4496670000000  0.6249050000000 1.0
C      1  0.5341520000000  0.5505880000000  0.6249200000000 1.0
C      1  0.4769310000000  0.6013680000000  0.4556840000000 1.0
C      1  0.5234460000000  0.3989390000000  0.4556540000000 1.0
C      1  0.4768400000000  0.3989460000000  0.5450150000000 1.0
C      1  0.5235370000000  0.6013340000000  0.5450450000000 1.0
C      1  0.5001880000000  0.5001370000000  0.5632080000000 1.0
C      1  0.5001890000000  0.5001560000000  0.4374910000000 1.0
C      1  0.5001880000000  0.5001470000000  0.5003490000000 1.0
END
