TITL C-3623288-6813-1476 0.132450953539353 125000 -475.063551372367 0 0 79 (C1) n - 1
REM
REM in /home/nfs/bkarasulu/CARBON/AIRSS/Generating-Clusters/LCBOP/Higher-Symm/SD-CG/FIRE-CG
REM
REM
REM
REM
REM
REM ./C.cell (b20cbc046b6831c77cfcea5457e17084)
REM AIRSS Version 0.9.1 bugfix July 2018 build 013d7b7c2542+ Fri, 06 Jul 2018 19:26:36 +0100
REM compiler GCC version 9.2.1 20190827 (Red Hat 9.2.1-1)
REM options -cpp -mtune=generic -march=x86-64 -g -O0 -fpre-include=/usr/include/finclude/math-vector-fortran.h
REM seed 1513933235 -296407064 1736966521 56833897 -1049060809 -235092769 -1824469144 719607163 1619567303 -865650476 -1333073198 -892272728 -1519711171 -395898590 -1963332957 1213708084 -1791835102 -662599351 -383555591 -810644273 484774647 -848898641 196402030 -345786185 -881742745 -744685986 -431792940 -1626891022 -210253884 1594692913 -322605251 729302240 881656992
REM
CELL 1.54180   50.00000   50.00000   50.00000   90.00000   90.00000   90.00000
LATT -1
SFAC C  
C      1  0.4202870000000  0.4526860000000  0.5943660000000 1.0
C      1  0.5775650000000  0.4531860000000  0.5240170000000 1.0
C      1  0.5077760000000  0.6130230000000  0.5667470000000 1.0
C      1  0.5227610000000  0.4676280000000  0.4550110000000 1.0
C      1  0.5368140000000  0.5112160000000  0.4718790000000 1.0
C      1  0.4483130000000  0.5408910000000  0.4113980000000 1.0
C      1  0.5145100000000  0.4863430000000  0.5165090000000 1.0
C      1  0.5172140000000  0.5018890000000  0.5394050000000 1.0
C      1  0.4537170000000  0.4810470000000  0.4717360000000 1.0
C      1  0.4796730000000  0.6061190000000  0.5730530000000 1.0
C      1  0.4332740000000  0.4260590000000  0.5940190000000 1.0
C      1  0.5927160000000  0.4721330000000  0.5410770000000 1.0
C      1  0.5716150000000  0.4767720000000  0.4687010000000 1.0
C      1  0.4359040000000  0.5668100000000  0.4521890000000 1.0
C      1  0.4848440000000  0.4357780000000  0.4494880000000 1.0
C      1  0.4538410000000  0.4991690000000  0.3871110000000 1.0
C      1  0.5412490000000  0.4444120000000  0.4158590000000 1.0
C      1  0.5242550000000  0.5589040000000  0.4698290000000 1.0
C      1  0.5622520000000  0.4290220000000  0.4223080000000 1.0
C      1  0.5067770000000  0.5789900000000  0.4693550000000 1.0
C      1  0.4536860000000  0.4727670000000  0.3905760000000 1.0
C      1  0.4279590000000  0.5191780000000  0.4487450000000 1.0
C      1  0.4794970000000  0.4737960000000  0.4795200000000 1.0
C      1  0.5367480000000  0.4734620000000  0.5038930000000 1.0
C      1  0.4614620000000  0.4511830000000  0.4040190000000 1.0
C      1  0.5796390000000  0.4323220000000  0.4425200000000 1.0
C      1  0.4831920000000  0.5880710000000  0.4610400000000 1.0
C      1  0.4357570000000  0.5431780000000  0.4363950000000 1.0
C      1  0.4963620000000  0.4586970000000  0.4621770000000 1.0
C      1  0.5422620000000  0.4813760000000  0.4750180000000 1.0
C      1  0.4696340000000  0.6282790000000  0.5890630000000 1.0
C      1  0.4209900000000  0.4111060000000  0.6157710000000 1.0
C      1  0.6190130000000  0.4601860000000  0.5446340000000 1.0
C      1  0.5964220000000  0.4318310000000  0.5177000000000 1.0
C      1  0.5124630000000  0.6388470000000  0.5793610000000 1.0
C      1  0.4011540000000  0.4516800000000  0.6163110000000 1.0
C      1  0.4895090000000  0.6473630000000  0.5924440000000 1.0
C      1  0.4020370000000  0.4268070000000  0.6286060000000 1.0
C      1  0.6206890000000  0.4364490000000  0.5303610000000 1.0
C      1  0.4584200000000  0.5834600000000  0.4525270000000 1.0
C      1  0.4732440000000  0.4385030000000  0.4241710000000 1.0
C      1  0.5815370000000  0.4518000000000  0.4607490000000 1.0
C      1  0.5887830000000  0.4988900000000  0.4715910000000 1.0
C      1  0.4172600000000  0.5694060000000  0.4729790000000 1.0
C      1  0.4822770000000  0.4120620000000  0.4639840000000 1.0
C      1  0.5809060000000  0.5234320000000  0.5447890000000 1.0
C      1  0.4481570000000  0.5651510000000  0.5577310000000 1.0
C      1  0.4708420000000  0.4090860000000  0.5589950000000 1.0
C      1  0.5648940000000  0.5678980000000  0.5332600000000 1.0
C      1  0.4259760000000  0.5221740000000  0.5552590000000 1.0
C      1  0.5138680000000  0.4184140000000  0.5383830000000 1.0
C      1  0.5792030000000  0.5448930000000  0.5268520000000 1.0
C      1  0.4294910000000  0.5481830000000  0.5456670000000 1.0
C      1  0.4883300000000  0.4070500000000  0.5373880000000 1.0
C      1  0.5222990000000  0.4892980000000  0.4110540000000 1.0
C      1  0.5277880000000  0.5325210000000  0.4299810000000 1.0
C      1  0.4923690000000  0.5254370000000  0.3976280000000 1.0
C      1  0.4644140000000  0.5234560000000  0.3963960000000 1.0
C      1  0.5287900000000  0.4670750000000  0.4267540000000 1.0
C      1  0.5311620000000  0.5346850000000  0.4577590000000 1.0
C      1  0.5163990000000  0.5172830000000  0.5604210000000 1.0
C      1  0.4352370000000  0.4969070000000  0.4612350000000 1.0
C      1  0.4898950000000  0.4826000000000  0.5038790000000 1.0
C      1  0.4654920000000  0.5836800000000  0.5653460000000 1.0
C      1  0.4528820000000  0.4169420000000  0.5768100000000 1.0
C      1  0.5850680000000  0.4975320000000  0.5488950000000 1.0
C      1  0.5501400000000  0.4529340000000  0.5183650000000 1.0
C      1  0.5260830000000  0.5982360000000  0.5522530000000 1.0
C      1  0.4249600000000  0.4742720000000  0.5777280000000 1.0
C      1  0.5462120000000  0.5848420000000  0.5414090000000 1.0
C      1  0.4260250000000  0.4975580000000  0.5651000000000 1.0
C      1  0.5345000000000  0.4325930000000  0.5296920000000 1.0
C      1  0.4152330000000  0.5570990000000  0.5233080000000 1.0
C      1  0.4799590000000  0.3963800000000  0.5129150000000 1.0
C      1  0.5900560000000  0.5406080000000  0.5013530000000 1.0
C      1  0.4107870000000  0.5651540000000  0.4984070000000 1.0
C      1  0.4790530000000  0.3982950000000  0.4864420000000 1.0
C      1  0.5945650000000  0.5225430000000  0.4823120000000 1.0
C      1  0.5153380000000  0.5164490000000  0.4107650000000 1.0
END
