TITL C-3623285-6872-1999 -2.85407539596707e-07 125000 -123.579925861292 0 0 20 (Ih) n - 1
REM
REM in /home/nfs/bkarasulu/CARBON/AIRSS/Generating-Clusters/LCBOP/Higher-Symm/SD-CG/FIRE-CG
REM
REM
REM
REM
REM
REM ./C.cell (b20cbc046b6831c77cfcea5457e17084)
REM AIRSS Version 0.9.1 bugfix July 2018 build 013d7b7c2542+ Fri, 06 Jul 2018 19:26:36 +0100
REM compiler GCC version 9.2.1 20190827 (Red Hat 9.2.1-1)
REM options -cpp -mtune=generic -march=x86-64 -g -O0 -fpre-include=/usr/include/finclude/math-vector-fortran.h
REM seed 1166762529 -1199241628 687569435 -470687652 2077224136 -1234276382 1690149805 1113954884 -2045969646 -1658716364 2072877725 456638113 2124766429 1999686176 1750725470 -1298590742 -1444829718 -1666780141 1267952039 -550820607 1030100732 -477102253 -1272961241 1332636168 -363847203 -397297307 1903332498 -1051468928 1805472802 238209623 1658362794 1917374862 1632752229
REM
CELL 1.54180   50.00000   50.00000   50.00000   90.00000   90.00000   90.00000
LATT -1
SFAC C  
C      1  0.5077740000000  0.4669250000000  0.5240410000000 1.0
C      1  0.5204210000000  0.5330740000000  0.5148800000000 1.0
C      1  0.5252660000000  0.4669250000000  0.5000350000000 1.0
C      1  0.5204620000000  0.5330750000000  0.4851780000000 1.0
C      1  0.5078410000000  0.4669260000000  0.4759810000000 1.0
C      1  0.4922260000000  0.5330750000000  0.4759590000000 1.0
C      1  0.4795790000000  0.4669260000000  0.4851200000000 1.0
C      1  0.4747340000000  0.5330750000000  0.4999650000000 1.0
C      1  0.4795380000000  0.4669250000000  0.5148220000000 1.0
C      1  0.4921590000000  0.5330740000000  0.5240190000000 1.0
C      1  0.4873120000000  0.5078080000000  0.5388640000000 1.0
C      1  0.5125790000000  0.4921920000000  0.5388990000000 1.0
C      1  0.5330410000000  0.5078070000000  0.5240760000000 1.0
C      1  0.5408820000000  0.4921920000000  0.5000570000000 1.0
C      1  0.5331080000000  0.5078080000000  0.4760160000000 1.0
C      1  0.5126880000000  0.4921920000000  0.4611360000000 1.0
C      1  0.4874210000000  0.5078080000000  0.4611010000000 1.0
C      1  0.4669590000000  0.4921930000000  0.4759240000000 1.0
C      1  0.4591180000000  0.5078080000000  0.4999430000000 1.0
C      1  0.4668920000000  0.4921920000000  0.5239840000000 1.0
END
