TITL C-3623288-6813-909 1897.26972538502 125000 -308.415207626139 0 0 63 (S10) n - 1
REM
REM in /home/nfs/bkarasulu/CARBON/AIRSS/Generating-Clusters/LCBOP/Higher-Symm/SD-CG/FIRE-CG
REM
REM
REM
REM
REM
REM ./C.cell (b20cbc046b6831c77cfcea5457e17084)
REM AIRSS Version 0.9.1 bugfix July 2018 build 013d7b7c2542+ Fri, 06 Jul 2018 19:26:36 +0100
REM compiler GCC version 9.2.1 20190827 (Red Hat 9.2.1-1)
REM options -cpp -mtune=generic -march=x86-64 -g -O0 -fpre-include=/usr/include/finclude/math-vector-fortran.h
REM seed -1963317657 2077112537 261611166 428044947 1930068686 -323475816 1654785758 -652718702 -317518759 -847705573 101690681 141618751 -1885930988 -1727223635 -1881750137 1215422714 1323098697 1229517518 713670346 -4271320 1517415787 -304720816 -1814973155 1051878181 839986291 -2030698746 -661726945 1481994092 2065389554 1304668662 -797883269 1603740416 -818482023
REM
CELL 1.54180   50.00000   50.00000   50.00000   90.00000   90.00000   90.00000
LATT -1
SFAC C  
C      1  0.4898120000000  0.5465290000000  0.4396420000000 1.0
C      1  0.5107590000000  0.5732970000000  0.4781370000000 1.0
C      1  0.4898130000000  0.5723270000000  0.5250140000000 1.0
C      1  0.5107590000000  0.5439880000000  0.5623680000000 1.0
C      1  0.4898120000000  0.4991060000000  0.5759310000000 1.0
C      1  0.5107580000000  0.4548230000000  0.5605220000000 1.0
C      1  0.4898110000000  0.4280550000000  0.5220280000000 1.0
C      1  0.5107580000000  0.4290250000000  0.4751510000000 1.0
C      1  0.4898110000000  0.4573630000000  0.4377970000000 1.0
C      1  0.5107580000000  0.5022460000000  0.4242340000000 1.0
C      1  0.4582870000000  0.5571750000000  0.4831380000000 1.0
C      1  0.5422840000000  0.5563430000000  0.5195830000000 1.0
C      1  0.4582870000000  0.5342500000000  0.5485790000000 1.0
C      1  0.5422840000000  0.4993320000000  0.5590510000000 1.0
C      1  0.4582870000000  0.4649280000000  0.5470000000000 1.0
C      1  0.5422830000000  0.4441780000000  0.5170270000000 1.0
C      1  0.4582870000000  0.4450090000000  0.4805820000000 1.0
C      1  0.5422830000000  0.4671020000000  0.4515850000000 1.0
C      1  0.4582870000000  0.5020200000000  0.4411130000000 1.0
C      1  0.5422840000000  0.5364240000000  0.4531650000000 1.0
C      1  0.4366110000000  0.4991970000000  0.4698130000000 1.0
C      1  0.5639600000000  0.5172700000000  0.4747240000000 1.0
C      1  0.4366110000000  0.5290070000000  0.4893210000000 1.0
C      1  0.5639600000000  0.5299210000000  0.5080280000000 1.0
C      1  0.4366110000000  0.5196660000000  0.5237010000000 1.0
C      1  0.5639600000000  0.5021550000000  0.5303510000000 1.0
C      1  0.4366110000000  0.4840820000000  0.5254410000000 1.0
C      1  0.5639600000000  0.4723450000000  0.5108430000000 1.0
C      1  0.4366110000000  0.4714310000000  0.4921360000000 1.0
C      1  0.5639590000000  0.4816860000000  0.4764630000000 1.0
C      1  0.5151360000000  0.5165030000000  0.5744460000000 1.0
C      1  0.4854350000000  0.4697710000000  0.5695470000000 1.0
C      1  0.5151350000000  0.4348430000000  0.5381140000000 1.0
C      1  0.4854340000000  0.4250610000000  0.4921550000000 1.0
C      1  0.5151350000000  0.4441620000000  0.4492240000000 1.0
C      1  0.4854340000000  0.4848490000000  0.4257190000000 1.0
C      1  0.5151360000000  0.5315810000000  0.4306180000000 1.0
C      1  0.4854350000000  0.5665090000000  0.4620510000000 1.0
C      1  0.5151370000000  0.5762910000000  0.5080100000000 1.0
C      1  0.4854350000000  0.5571900000000  0.5509410000000 1.0
C      1  0.5160260000000  0.5215270000000  0.5243500000000 1.0
C      1  0.4845460000000  0.5032810000000  0.5319710000000 1.0
C      1  0.5160250000000  0.4840390000000  0.5274120000000 1.0
C      1  0.4845450000000  0.4711530000000  0.5124140000000 1.0
C      1  0.5160250000000  0.4695430000000  0.4927050000000 1.0
C      1  0.4845450000000  0.4798250000000  0.4758150000000 1.0
C      1  0.5160250000000  0.4980710000000  0.4681930000000 1.0
C      1  0.4845450000000  0.5173120000000  0.4727530000000 1.0
C      1  0.5160250000000  0.5301990000000  0.4877510000000 1.0
C      1  0.4845460000000  0.5318090000000  0.5074590000000 1.0
C      1  0.4719640000000  0.5115550000000  0.5565290000000 1.0
C      1  0.5286070000000  0.4762980000000  0.5521430000000 1.0
C      1  0.4719630000000  0.4503540000000  0.5278710000000 1.0
C      1  0.5286070000000  0.4436300000000  0.4929850000000 1.0
C      1  0.4719630000000  0.4586970000000  0.4608110000000 1.0
C      1  0.5286070000000  0.4897970000000  0.4436360000000 1.0
C      1  0.4719640000000  0.5250540000000  0.4480220000000 1.0
C      1  0.5286070000000  0.5509980000000  0.4722930000000 1.0
C      1  0.4719640000000  0.5577220000000  0.5071790000000 1.0
C      1  0.5286080000000  0.5426550000000  0.5393540000000 1.0
C      1  0.4675310000000  0.5006760000000  0.5000820000000 1.0
C      1  0.5330400000000  0.5006760000000  0.5000820000000 1.0
C      1  0.5002850000000  0.5006760000000  0.5000820000000 1.0
END
