TITL C-3623288-6813-80 -1.16031432088735e-06 125000 -1091.26396617948 0 0 171 (C1) n - 1
REM
REM in /home/nfs/bkarasulu/CARBON/AIRSS/Generating-Clusters/LCBOP/Higher-Symm/SD-CG/FIRE-CG
REM
REM
REM
REM
REM
REM ./C.cell (b20cbc046b6831c77cfcea5457e17084)
REM AIRSS Version 0.9.1 bugfix July 2018 build 013d7b7c2542+ Fri, 06 Jul 2018 19:26:36 +0100
REM compiler GCC version 9.2.1 20190827 (Red Hat 9.2.1-1)
REM options -cpp -mtune=generic -march=x86-64 -g -O0 -fpre-include=/usr/include/finclude/math-vector-fortran.h
REM seed -1274310858 540785850 -166596114 -652323873 -1376209878 -1785591827 -2030208473 -682610354 -155724081 -1069537060 578976078 -1538276795 -917333591 1003418068 -1918071634 -1508320847 -1344529064 811607137 -1331050763 -719064132 71227545 491953330 1293139230 -1093091720 2105619492 1049077047 -1707659492 739016602 -271737459 646524627 -2013850324 -414721656 1709865602
REM
CELL 1.54180   50.00000   50.00000   50.00000   90.00000   90.00000   90.00000
LATT -1
SFAC C  
C      1  0.4879810000000  0.5306630000000  0.3839560000000 1.0
C      1  0.4728680000000  0.4672580000000  0.4228670000000 1.0
C      1  0.5397150000000  0.4987610000000  0.4170790000000 1.0
C      1  0.4415680000000  0.4895470000000  0.5376490000000 1.0
C      1  0.5489540000000  0.4462840000000  0.5426470000000 1.0
C      1  0.5124710000000  0.5673850000000  0.5327100000000 1.0
C      1  0.5459950000000  0.5855490000000  0.4368100000000 1.0
C      1  0.3986210000000  0.4958190000000  0.4360380000000 1.0
C      1  0.5508540000000  0.4171830000000  0.4297850000000 1.0
C      1  0.5676520000000  0.4636380000000  0.4265590000000 1.0
C      1  0.4992990000000  0.5688290000000  0.4338650000000 1.0
C      1  0.4127290000000  0.4469220000000  0.4173240000000 1.0
C      1  0.4018940000000  0.4669880000000  0.4346060000000 1.0
C      1  0.5727350000000  0.4362540000000  0.4300920000000 1.0
C      1  0.5180520000000  0.5903460000000  0.4349860000000 1.0
C      1  0.5002720000000  0.4268570000000  0.5855570000000 1.0
C      1  0.5573130000000  0.5321410000000  0.5821170000000 1.0
C      1  0.4361660000000  0.5314250000000  0.5829850000000 1.0
C      1  0.4097710000000  0.5205550000000  0.5811320000000 1.0
C      1  0.5273250000000  0.4190160000000  0.5775740000000 1.0
C      1  0.5514420000000  0.5603320000000  0.5790630000000 1.0
C      1  0.5547950000000  0.5392360000000  0.4405400000000 1.0
C      1  0.4369210000000  0.5221460000000  0.4425070000000 1.0
C      1  0.5059980000000  0.4330290000000  0.4343080000000 1.0
C      1  0.4400900000000  0.5533780000000  0.5642630000000 1.0
C      1  0.4775010000000  0.4216780000000  0.5689060000000 1.0
C      1  0.5735280000000  0.5187330000000  0.5627410000000 1.0
C      1  0.4745740000000  0.4244160000000  0.4753890000000 1.0
C      1  0.5862550000000  0.5152170000000  0.4738450000000 1.0
C      1  0.4423780000000  0.5649700000000  0.4715570000000 1.0
C      1  0.4819920000000  0.5396940000000  0.4716120000000 1.0
C      1  0.4857880000000  0.4690830000000  0.4723700000000 1.0
C      1  0.5454360000000  0.4944970000000  0.4671270000000 1.0
C      1  0.5423500000000  0.4764180000000  0.4365940000000 1.0
C      1  0.5017340000000  0.5473770000000  0.4521610000000 1.0
C      1  0.4709710000000  0.4792550000000  0.4486120000000 1.0
C      1  0.4531420000000  0.4148230000000  0.5815680000000 1.0
C      1  0.5962120000000  0.5048300000000  0.5717220000000 1.0
C      1  0.4421610000000  0.5794090000000  0.5747110000000 1.0
C      1  0.4081110000000  0.4566730000000  0.4625090000000 1.0
C      1  0.5895640000000  0.4360670000000  0.4546430000000 1.0
C      1  0.5074710000000  0.6063470000000  0.4573710000000 1.0
C      1  0.5005620000000  0.4543170000000  0.5972850000000 1.0
C      1  0.5334610000000  0.5172960000000  0.5918420000000 1.0
C      1  0.4614910000000  0.5200240000000  0.5932000000000 1.0
C      1  0.5244520000000  0.5635050000000  0.5910430000000 1.0
C      1  0.4032550000000  0.4976510000000  0.5962630000000 1.0
C      1  0.5444570000000  0.4406810000000  0.5896990000000 1.0
C      1  0.5425820000000  0.6001250000000  0.5270780000000 1.0
C      1  0.3974650000000  0.4938750000000  0.5274370000000 1.0
C      1  0.5651690000000  0.4106580000000  0.5208320000000 1.0
C      1  0.4457850000000  0.4936490000000  0.3868850000000 1.0
C      1  0.5227480000000  0.4683230000000  0.3846420000000 1.0
C      1  0.5344400000000  0.5413360000000  0.3803770000000 1.0
C      1  0.4100140000000  0.4860760000000  0.5034330000000 1.0
C      1  0.5689800000000  0.4240840000000  0.4964770000000 1.0
C      1  0.5278960000000  0.5988960000000  0.5022000000000 1.0
C      1  0.5492840000000  0.5581560000000  0.3952600000000 1.0
C      1  0.4256030000000  0.5084220000000  0.3966130000000 1.0
C      1  0.5270130000000  0.4421460000000  0.3916540000000 1.0
C      1  0.4031020000000  0.5297890000000  0.4772130000000 1.0
C      1  0.5238760000000  0.4040800000000  0.4737370000000 1.0
C      1  0.5703650000000  0.5677670000000  0.4795030000000 1.0
C      1  0.5115920000000  0.5367200000000  0.5933670000000 1.0
C      1  0.4663050000000  0.4933560000000  0.6019640000000 1.0
C      1  0.5276710000000  0.4647820000000  0.5950680000000 1.0
C      1  0.5271790000000  0.5145750000000  0.4741600000000 1.0
C      1  0.4690150000000  0.5147480000000  0.4755690000000 1.0
C      1  0.5131860000000  0.4637530000000  0.4707890000000 1.0
C      1  0.4487630000000  0.5945510000000  0.4702240000000 1.0
C      1  0.4457630000000  0.4173010000000  0.4767550000000 1.0
C      1  0.6088970000000  0.4947930000000  0.4733530000000 1.0
C      1  0.5203860000000  0.5925670000000  0.5458220000000 1.0
C      1  0.4152430000000  0.4804950000000  0.5466550000000 1.0
C      1  0.5726380000000  0.4306080000000  0.5404560000000 1.0
C      1  0.4751050000000  0.4497910000000  0.4931300000000 1.0
C      1  0.5661490000000  0.4984130000000  0.4892350000000 1.0
C      1  0.4650820000000  0.5566690000000  0.4904490000000 1.0
C      1  0.4781080000000  0.6171950000000  0.5348140000000 1.0
C      1  0.4130450000000  0.4319670000000  0.5369760000000 1.0
C      1  0.6149050000000  0.4558540000000  0.5319920000000 1.0
C      1  0.5036740000000  0.5417110000000  0.5379790000000 1.0
C      1  0.4682570000000  0.4889480000000  0.5459960000000 1.0
C      1  0.5309990000000  0.4669140000000  0.5401000000000 1.0
C      1  0.5089010000000  0.5777670000000  0.5064270000000 1.0
C      1  0.4395140000000  0.4886250000000  0.5073930000000 1.0
C      1  0.5578730000000  0.4500570000000  0.4964270000000 1.0
C      1  0.5266220000000  0.5181630000000  0.5028470000000 1.0
C      1  0.4541670000000  0.5131220000000  0.4999270000000 1.0
C      1  0.5311840000000  0.4546320000000  0.4898530000000 1.0
C      1  0.5272430000000  0.4244140000000  0.4146170000000 1.0
C      1  0.5545300000000  0.5631540000000  0.4225590000000 1.0
C      1  0.4182360000000  0.5119360000000  0.4233220000000 1.0
C      1  0.4972770000000  0.6075720000000  0.5540290000000 1.0
C      1  0.4120510000000  0.4536100000000  0.5551180000000 1.0
C      1  0.5963390000000  0.4433970000000  0.5494280000000 1.0
C      1  0.4718790000000  0.4666850000000  0.5627640000000 1.0
C      1  0.5390550000000  0.4892840000000  0.5545270000000 1.0
C      1  0.4820320000000  0.5404960000000  0.5551320000000 1.0
C      1  0.6152090000000  0.5255790000000  0.5111110000000 1.0
C      1  0.4173350000000  0.5904710000000  0.5072570000000 1.0
C      1  0.4660060000000  0.3892380000000  0.5102390000000 1.0
C      1  0.4308720000000  0.4272520000000  0.5903380000000 1.0
C      1  0.6025460000000  0.4801830000000  0.5802280000000 1.0
C      1  0.4612230000000  0.5958810000000  0.5840000000000 1.0
C      1  0.5544850000000  0.5890550000000  0.4645440000000 1.0
C      1  0.3939880000000  0.5040710000000  0.4640670000000 1.0
C      1  0.5494200000000  0.4062400000000  0.4575010000000 1.0
C      1  0.4760460000000  0.4415010000000  0.5478460000000 1.0
C      1  0.5573790000000  0.5075440000000  0.5416440000000 1.0
C      1  0.4566300000000  0.5454840000000  0.5420340000000 1.0
C      1  0.5084740000000  0.5863270000000  0.5951900000000 1.0
C      1  0.4064760000000  0.4710490000000  0.5990630000000 1.0
C      1  0.5724930000000  0.4427980000000  0.5913340000000 1.0
C      1  0.4145400000000  0.4490970000000  0.5832600000000 1.0
C      1  0.5937900000000  0.4537450000000  0.5761930000000 1.0
C      1  0.4887540000000  0.6003650000000  0.5804080000000 1.0
C      1  0.3933600000000  0.5221950000000  0.5300670000000 1.0
C      1  0.5386360000000  0.3995950000000  0.5256630000000 1.0
C      1  0.5654170000000  0.5822640000000  0.5306010000000 1.0
C      1  0.4033040000000  0.5674260000000  0.5098040000000 1.0
C      1  0.4930330000000  0.3873990000000  0.5092970000000 1.0
C      1  0.6002860000000  0.5483910000000  0.5138090000000 1.0
C      1  0.5317160000000  0.6048860000000  0.4757270000000 1.0
C      1  0.4001560000000  0.4796270000000  0.4788100000000 1.0
C      1  0.5745330000000  0.4159790000000  0.4706290000000 1.0
C      1  0.3978920000000  0.5393000000000  0.5056300000000 1.0
C      1  0.5199700000000  0.3956780000000  0.5026590000000 1.0
C      1  0.5790310000000  0.5677170000000  0.5081550000000 1.0
C      1  0.5910000000000  0.4798700000000  0.4307520000000 1.0
C      1  0.4731500000000  0.5803180000000  0.4298710000000 1.0
C      1  0.4306020000000  0.4288970000000  0.4309020000000 1.0
C      1  0.5241060000000  0.4956790000000  0.3934950000000 1.0
C      1  0.5146090000000  0.5209570000000  0.3829260000000 1.0
C      1  0.4648460000000  0.4793990000000  0.3990250000000 1.0
C      1  0.4791850000000  0.4394850000000  0.4224750000000 1.0
C      1  0.5612910000000  0.5168740000000  0.4218960000000 1.0
C      1  0.4694990000000  0.5489080000000  0.3911870000000 1.0
C      1  0.5659190000000  0.5731280000000  0.5580550000000 1.0
C      1  0.3946450000000  0.5294330000000  0.5579450000000 1.0
C      1  0.5304930000000  0.4028400000000  0.5537180000000 1.0
C      1  0.5746920000000  0.5415250000000  0.4646630000000 1.0
C      1  0.4261810000000  0.5421460000000  0.4621600000000 1.0
C      1  0.4999390000000  0.4169650000000  0.4610550000000 1.0
C      1  0.4424520000000  0.4036040000000  0.5021210000000 1.0
C      1  0.6203950000000  0.4989110000000  0.5002330000000 1.0
C      1  0.4404370000000  0.6044980000000  0.4969760000000 1.0
C      1  0.4236310000000  0.4136050000000  0.5205790000000 1.0
C      1  0.6239070000000  0.4763640000000  0.5170630000000 1.0
C      1  0.4587530000000  0.6162970000000  0.5157470000000 1.0
C      1  0.6028320000000  0.4706160000000  0.4555880000000 1.0
C      1  0.4719270000000  0.5996680000000  0.4528370000000 1.0
C      1  0.4267910000000  0.4322320000000  0.4603020000000 1.0
C      1  0.4851850000000  0.5330960000000  0.5825410000000 1.0
C      1  0.4783770000000  0.4706070000000  0.5900970000000 1.0
C      1  0.5326560000000  0.4903820000000  0.5826370000000 1.0
C      1  0.5267910000000  0.5350350000000  0.4548270000000 1.0
C      1  0.4577540000000  0.5042930000000  0.4522100000000 1.0
C      1  0.5205720000000  0.4587120000000  0.4444060000000 1.0
C      1  0.4492350000000  0.4625630000000  0.4985630000000 1.0
C      1  0.5744520000000  0.4720830000000  0.4986180000000 1.0
C      1  0.4831890000000  0.5778300000000  0.4976040000000 1.0
C      1  0.4550150000000  0.5391060000000  0.5137670000000 1.0
C      1  0.4879990000000  0.4474640000000  0.5213240000000 1.0
C      1  0.5531740000000  0.5119820000000  0.5135850000000 1.0
C      1  0.4607210000000  0.5687310000000  0.4075000000000 1.0
C      1  0.4564190000000  0.4227640000000  0.4211420000000 1.0
C      1  0.5875030000000  0.5059590000000  0.4208660000000 1.0
C      1  0.5062690000000  0.5184130000000  0.5221740000000 1.0
C      1  0.4924040000000  0.4945600000000  0.5303990000000 1.0
C      1  0.5064830000000  0.4693580000000  0.5267120000000 1.0
END
