TITL C-3623286-7563-400 -2.25889080758907e-06 125000 -1102.80821641354 0 0 184 (C1) n - 1
REM
REM in /home/nfs/bkarasulu/CARBON/AIRSS/Generating-Clusters/LCBOP/Higher-Symm/SD-CG/FIRE-CG
REM
REM
REM
REM
REM
REM ./C.cell (b20cbc046b6831c77cfcea5457e17084)
REM AIRSS Version 0.9.1 bugfix July 2018 build 013d7b7c2542+ Fri, 06 Jul 2018 19:26:36 +0100
REM compiler GCC version 9.2.1 20190827 (Red Hat 9.2.1-1)
REM options -cpp -mtune=generic -march=x86-64 -g -O0 -fpre-include=/usr/include/finclude/math-vector-fortran.h
REM seed 2016038551 -56727608 -20842582 1935058744 958105078 -1557792091 -681314305 -1361625275 1440205090 -227773256 -443902315 1041832760 770105874 -1624609518 -1954246561 1346466951 -350325857 76134500 1697369364 -1288595604 -465476438 -344090633 188706856 742555090 1045527661 -1331709030 -1720771150 584486364 -1856926003 1300238355 -1823612064 1734637274 -2127426133
REM
CELL 1.54180   50.00000   50.00000   50.00000   90.00000   90.00000   90.00000
LATT -1
SFAC C  
C      1  0.4508730000000  0.4581260000000  0.5130650000000 1.0
C      1  0.5491260000000  0.5485100000000  0.4889320000000 1.0
C      1  0.5257380000000  0.4467510000000  0.5872720000000 1.0
C      1  0.4754630000000  0.5527800000000  0.4107980000000 1.0
C      1  0.4966170000000  0.4617390000000  0.5370080000000 1.0
C      1  0.4930340000000  0.5254650000000  0.4601580000000 1.0
C      1  0.3938740000000  0.5489430000000  0.5162060000000 1.0
C      1  0.6074890000000  0.4539180000000  0.4809370000000 1.0
C      1  0.5009500000000  0.4616270000000  0.4491990000000 1.0
C      1  0.5032080000000  0.5472630000000  0.5509620000000 1.0
C      1  0.4673790000000  0.4997490000000  0.3954620000000 1.0
C      1  0.5328060000000  0.4959210000000  0.6055220000000 1.0
C      1  0.4231020000000  0.4829980000000  0.4121610000000 1.0
C      1  0.5758640000000  0.5090730000000  0.5851150000000 1.0
C      1  0.4596550000000  0.5066210000000  0.6094830000000 1.0
C      1  0.5415750000000  0.4917250000000  0.3926360000000 1.0
C      1  0.5996750000000  0.5250840000000  0.5387250000000 1.0
C      1  0.4041580000000  0.4684470000000  0.4626960000000 1.0
C      1  0.4072630000000  0.3638200000000  0.4685940000000 1.0
C      1  0.5921390000000  0.6421720000000  0.5253700000000 1.0
C      1  0.5642940000000  0.4354320000000  0.4904460000000 1.0
C      1  0.4395150000000  0.5639040000000  0.5077650000000 1.0
C      1  0.4642870000000  0.5939230000000  0.4784500000000 1.0
C      1  0.5366490000000  0.4054480000000  0.5198980000000 1.0
C      1  0.4801090000000  0.5978380000000  0.5407680000000 1.0
C      1  0.5194810000000  0.4053550000000  0.4575360000000 1.0
C      1  0.5003050000000  0.5458270000000  0.4772820000000 1.0
C      1  0.4946240000000  0.4438880000000  0.5144810000000 1.0
C      1  0.4891710000000  0.3849330000000  0.4924380000000 1.0
C      1  0.5086480000000  0.6183930000000  0.5052670000000 1.0
C      1  0.5109480000000  0.5098730000000  0.4462040000000 1.0
C      1  0.4834960000000  0.5007870000000  0.5582850000000 1.0
C      1  0.4695700000000  0.3884570000000  0.5105660000000 1.0
C      1  0.5282480000000  0.6141100000000  0.4873990000000 1.0
C      1  0.5372130000000  0.4978120000000  0.5540970000000 1.0
C      1  0.4563510000000  0.4997830000000  0.4450690000000 1.0
C      1  0.4279270000000  0.3840990000000  0.4734650000000 1.0
C      1  0.5718260000000  0.6214240000000  0.5212990000000 1.0
C      1  0.5731500000000  0.5269220000000  0.5368710000000 1.0
C      1  0.4304750000000  0.4665680000000  0.4674140000000 1.0
C      1  0.5251130000000  0.5351470000000  0.4004000000000 1.0
C      1  0.4748380000000  0.4620320000000  0.5983600000000 1.0
C      1  0.5344950000000  0.4726450000000  0.5144540000000 1.0
C      1  0.4475520000000  0.5311160000000  0.4769900000000 1.0
C      1  0.6187670000000  0.5138500000000  0.5238160000000 1.0
C      1  0.3842870000000  0.4826910000000  0.4736140000000 1.0
C      1  0.5913590000000  0.4451230000000  0.5303600000000 1.0
C      1  0.4100880000000  0.5589480000000  0.4668870000000 1.0
C      1  0.4143480000000  0.5047910000000  0.3533550000000 1.0
C      1  0.5892250000000  0.4894120000000  0.6436590000000 1.0
C      1  0.5567510000000  0.4460160000000  0.4644530000000 1.0
C      1  0.4448020000000  0.5553380000000  0.5348900000000 1.0
C      1  0.5808770000000  0.5774750000000  0.4438630000000 1.0
C      1  0.4141440000000  0.4225010000000  0.5541460000000 1.0
C      1  0.5042900000000  0.5276980000000  0.6288980000000 1.0
C      1  0.4969370000000  0.4652150000000  0.3764400000000 1.0
C      1  0.5398900000000  0.5398470000000  0.5804000000000 1.0
C      1  0.4611700000000  0.4554410000000  0.4226620000000 1.0
C      1  0.5237500000000  0.4026340000000  0.5448640000000 1.0
C      1  0.4777400000000  0.5967270000000  0.4540300000000 1.0
C      1  0.3986970000000  0.4896340000000  0.3691790000000 1.0
C      1  0.6041420000000  0.5030210000000  0.6258000000000 1.0
C      1  0.4906000000000  0.5494250000000  0.6171760000000 1.0
C      1  0.5208950000000  0.4506050000000  0.3792910000000 1.0
C      1  0.3573430000000  0.5052630000000  0.5065650000000 1.0
C      1  0.6423820000000  0.4998540000000  0.4843750000000 1.0
C      1  0.5184010000000  0.5083350000000  0.3900490000000 1.0
C      1  0.4818720000000  0.4886050000000  0.6096130000000 1.0
C      1  0.4011460000000  0.4618500000000  0.5288430000000 1.0
C      1  0.5948120000000  0.5392710000000  0.4707940000000 1.0
C      1  0.4031430000000  0.4889000000000  0.5175020000000 1.0
C      1  0.5942460000000  0.5121780000000  0.4823910000000 1.0
C      1  0.4525750000000  0.5212590000000  0.3826030000000 1.0
C      1  0.5488230000000  0.4748170000000  0.6171800000000 1.0
C      1  0.5562050000000  0.5878450000000  0.4543930000000 1.0
C      1  0.4395040000000  0.4141940000000  0.5429170000000 1.0
C      1  0.5875270000000  0.6559770000000  0.5488730000000 1.0
C      1  0.4113380000000  0.3512000000000  0.4443360000000 1.0
C      1  0.5359940000000  0.5679160000000  0.4477550000000 1.0
C      1  0.4570920000000  0.4355600000000  0.5512430000000 1.0
C      1  0.5852370000000  0.4460840000000  0.5570850000000 1.0
C      1  0.4153410000000  0.5560220000000  0.4397920000000 1.0
C      1  0.4967230000000  0.4007940000000  0.4404180000000 1.0
C      1  0.5038680000000  0.6033890000000  0.5563070000000 1.0
C      1  0.5058020000000  0.4664620000000  0.4769500000000 1.0
C      1  0.5015200000000  0.5447200000000  0.5227450000000 1.0
C      1  0.5648830000000  0.6458670000000  0.5611010000000 1.0
C      1  0.4340230000000  0.3615480000000  0.4324060000000 1.0
C      1  0.5227580000000  0.5255580000000  0.5174330000000 1.0
C      1  0.4815440000000  0.4820570000000  0.4842490000000 1.0
C      1  0.5806080000000  0.5315530000000  0.4228260000000 1.0
C      1  0.4181110000000  0.4685280000000  0.5753730000000 1.0
C      1  0.5549490000000  0.5372850000000  0.4078870000000 1.0
C      1  0.4442870000000  0.4608710000000  0.5907200000000 1.0
C      1  0.4881580000000  0.5556140000000  0.5003080000000 1.0
C      1  0.5197980000000  0.4508560000000  0.4994790000000 1.0
C      1  0.4444720000000  0.3993170000000  0.5183310000000 1.0
C      1  0.5531790000000  0.6039060000000  0.4784540000000 1.0
C      1  0.4605830000000  0.4409770000000  0.3983520000000 1.0
C      1  0.5279350000000  0.5319260000000  0.6772230000000 1.0
C      1  0.4254640000000  0.4005120000000  0.4965110000000 1.0
C      1  0.5739240000000  0.6042790000000  0.4987190000000 1.0
C      1  0.5499410000000  0.5621330000000  0.5122860000000 1.0
C      1  0.4700270000000  0.4420430000000  0.4991120000000 1.0
C      1  0.4612570000000  0.5758280000000  0.5503460000000 1.0
C      1  0.5400690000000  0.4260960000000  0.4488290000000 1.0
C      1  0.4366530000000  0.5267080000000  0.5382140000000 1.0
C      1  0.5619160000000  0.4757890000000  0.4632280000000 1.0
C      1  0.4264420000000  0.5077320000000  0.5161900000000 1.0
C      1  0.5715770000000  0.4927300000000  0.4855860000000 1.0
C      1  0.4737390000000  0.4488860000000  0.3761150000000 1.0
C      1  0.5157580000000  0.5304630000000  0.6542290000000 1.0
C      1  0.5292450000000  0.5557470000000  0.5596110000000 1.0
C      1  0.4761540000000  0.4475100000000  0.4458380000000 1.0
C      1  0.4031610000000  0.4817240000000  0.3944570000000 1.0
C      1  0.5975720000000  0.5099760000000  0.6006820000000 1.0
C      1  0.4374740000000  0.5170740000000  0.3593690000000 1.0
C      1  0.5650480000000  0.4782740000000  0.6397260000000 1.0
C      1  0.5326780000000  0.4499060000000  0.5599780000000 1.0
C      1  0.4660900000000  0.5523690000000  0.4376420000000 1.0
C      1  0.5153670000000  0.3887280000000  0.4814390000000 1.0
C      1  0.4825970000000  0.6141030000000  0.5164810000000 1.0
C      1  0.5944320000000  0.5848730000000  0.4972370000000 1.0
C      1  0.4046100000000  0.4192260000000  0.4983530000000 1.0
C      1  0.4585790000000  0.4881010000000  0.5534780000000 1.0
C      1  0.5382400000000  0.5164000000000  0.4502730000000 1.0
C      1  0.4963690000000  0.3701870000000  0.5674810000000 1.0
C      1  0.5035950000000  0.6199390000000  0.4206100000000 1.0
C      1  0.4921460000000  0.4160310000000  0.5813290000000 1.0
C      1  0.5144900000000  0.5736080000000  0.4300900000000 1.0
C      1  0.5543940000000  0.4850340000000  0.4152700000000 1.0
C      1  0.4461740000000  0.5193420000000  0.5899200000000 1.0
C      1  0.3876140000000  0.5346970000000  0.5390330000000 1.0
C      1  0.6111320000000  0.4671270000000  0.4570810000000 1.0
C      1  0.4522870000000  0.4860800000000  0.4735050000000 1.0
C      1  0.5484070000000  0.5130800000000  0.5291230000000 1.0
C      1  0.4646250000000  0.5278400000000  0.4530180000000 1.0
C      1  0.5242630000000  0.4721870000000  0.5433160000000 1.0
C      1  0.5543610000000  0.4920100000000  0.5083210000000 1.0
C      1  0.4409180000000  0.5078560000000  0.4916560000000 1.0
C      1  0.5739310000000  0.4476450000000  0.5821410000000 1.0
C      1  0.4268740000000  0.5515770000000  0.4148380000000 1.0
C      1  0.6189300000000  0.5065710000000  0.4966840000000 1.0
C      1  0.3811690000000  0.4941840000000  0.4991490000000 1.0
C      1  0.4075240000000  0.4506310000000  0.5550540000000 1.0
C      1  0.5877510000000  0.5494780000000  0.4444100000000 1.0
C      1  0.5356310000000  0.4358410000000  0.3960070000000 1.0
C      1  0.4752640000000  0.5643430000000  0.6011440000000 1.0
C      1  0.4384490000000  0.5093400000000  0.5630490000000 1.0
C      1  0.5535650000000  0.4928550000000  0.4422580000000 1.0
C      1  0.4939240000000  0.4928550000000  0.3857500000000 1.0
C      1  0.5067410000000  0.5023310000000  0.6150970000000 1.0
C      1  0.4710140000000  0.3928370000000  0.4415480000000 1.0
C      1  0.5291070000000  0.6125520000000  0.5539020000000 1.0
C      1  0.5057050000000  0.4848660000000  0.4345620000000 1.0
C      1  0.4917950000000  0.5254690000000  0.5640530000000 1.0
C      1  0.5040470000000  0.3963600000000  0.5644830000000 1.0
C      1  0.4985290000000  0.5970960000000  0.4348640000000 1.0
C      1  0.4505780000000  0.5452930000000  0.3975850000000 1.0
C      1  0.5510260000000  0.4523680000000  0.6000030000000 1.0
C      1  0.5428230000000  0.4280460000000  0.4204680000000 1.0
C      1  0.4627100000000  0.5718600000000  0.5787240000000 1.0
C      1  0.5966130000000  0.5070830000000  0.4236820000000 1.0
C      1  0.4113500000000  0.4968600000000  0.5687560000000 1.0
C      1  0.4626760000000  0.6155850000000  0.4966270000000 1.0
C      1  0.5352740000000  0.3844140000000  0.5008920000000 1.0
C      1  0.5896040000000  0.4435200000000  0.5013940000000 1.0
C      1  0.4129710000000  0.5588840000000  0.4963360000000 1.0
C      1  0.4526000000000  0.4851050000000  0.4191530000000 1.0
C      1  0.5456680000000  0.5099440000000  0.5815700000000 1.0
C      1  0.5048970000000  0.5543730000000  0.4101140000000 1.0
C      1  0.4969510000000  0.4423110000000  0.5920020000000 1.0
C      1  0.5419910000000  0.5429230000000  0.4618020000000 1.0
C      1  0.4545150000000  0.4627910000000  0.5411860000000 1.0
C      1  0.4675620000000  0.4360720000000  0.4710620000000 1.0
C      1  0.5451770000000  0.5664960000000  0.5385680000000 1.0
C      1  0.3910720000000  0.5148130000000  0.5580270000000 1.0
C      1  0.6072610000000  0.4857280000000  0.4372790000000 1.0
C      1  0.4463830000000  0.3820070000000  0.4493750000000 1.0
C      1  0.5531400000000  0.6241820000000  0.5452240000000 1.0
C      1  0.5404800000000  0.4292250000000  0.5046470000000 1.0
C      1  0.4637100000000  0.5699420000000  0.4940930000000 1.0
C      1  0.3953040000000  0.4414330000000  0.5098430000000 1.0
C      1  0.6017070000000  0.5604820000000  0.4887570000000 1.0
END
