TITL C-3623288-6813-839 -123853.719167742 125000 -840.480886051865 0 0 137 (C1) n - 1
REM
REM in /home/nfs/bkarasulu/CARBON/AIRSS/Generating-Clusters/LCBOP/Higher-Symm/SD-CG/FIRE-CG
REM
REM
REM
REM
REM
REM ./C.cell (b20cbc046b6831c77cfcea5457e17084)
REM AIRSS Version 0.9.1 bugfix July 2018 build 013d7b7c2542+ Fri, 06 Jul 2018 19:26:36 +0100
REM compiler GCC version 9.2.1 20190827 (Red Hat 9.2.1-1)
REM options -cpp -mtune=generic -march=x86-64 -g -O0 -fpre-include=/usr/include/finclude/math-vector-fortran.h
REM seed -29004029 1239363696 873255745 729540721 -1958616751 945523125 769636239 1735624815 -1649388195 1007185466 1938718273 123549675 1730400907 1970170817 -557406948 23153671 1073257666 1408350725 30991135 193452861 985937526 -943428364 2077806784 -1768391296 1504206297 -1175058181 258717072 -1281202810 2140994797 437926061 452644964 -2076612376 1737474107
REM
CELL 1.54180   50.00000   50.00000   50.00000   90.00000   90.00000   90.00000
LATT -1
SFAC C  
C      1  0.4156060000000  0.4696120000000  0.4956850000000 1.0
C      1  0.6014380000000  0.5302870000000  0.4954720000000 1.0
C      1  0.5039080000000  0.5730090000000  0.3933510000000 1.0
C      1  0.5020920000000  0.4201500000000  0.5767960000000 1.0
C      1  0.5506720000000  0.5078550000000  0.4420360000000 1.0
C      1  0.4663280000000  0.4979470000000  0.5449830000000 1.0
C      1  0.4708220000000  0.5519230000000  0.5319720000000 1.0
C      1  0.5264040000000  0.4678810000000  0.4499960000000 1.0
C      1  0.4485070000000  0.4697430000000  0.4096990000000 1.0
C      1  0.5332820000000  0.5232380000000  0.5658100000000 1.0
C      1  0.5731940000000  0.4641230000000  0.4287270000000 1.0
C      1  0.4180150000000  0.5306570000000  0.5560020000000 1.0
C      1  0.4659930000000  0.5160970000000  0.4785350000000 1.0
C      1  0.5313490000000  0.5052540000000  0.5167790000000 1.0
C      1  0.5618670000000  0.4396480000000  0.4453470000000 1.0
C      1  0.4374640000000  0.5512290000000  0.5663390000000 1.0
C      1  0.5399100000000  0.4770010000000  0.5227270000000 1.0
C      1  0.4513000000000  0.5403340000000  0.4683240000000 1.0
C      1  0.5125550000000  0.5315340000000  0.5836660000000 1.0
C      1  0.4798710000000  0.4664670000000  0.4107940000000 1.0
C      1  0.6026020000000  0.4699390000000  0.5610260000000 1.0
C      1  0.3907220000000  0.5530620000000  0.4866360000000 1.0
C      1  0.4993180000000  0.5520300000000  0.5104680000000 1.0
C      1  0.4932860000000  0.5122160000000  0.4798070000000 1.0
C      1  0.5440030000000  0.4628150000000  0.4986770000000 1.0
C      1  0.4463800000000  0.5573600000000  0.4929660000000 1.0
C      1  0.5774780000000  0.5222140000000  0.5081180000000 1.0
C      1  0.4400070000000  0.4783620000000  0.4857000000000 1.0
C      1  0.4646160000000  0.5551120000000  0.4442060000000 1.0
C      1  0.5339110000000  0.4647420000000  0.5471900000000 1.0
C      1  0.5143940000000  0.4835370000000  0.6049020000000 1.0
C      1  0.4857670000000  0.4918040000000  0.4300110000000 1.0
C      1  0.4377320000000  0.5782960000000  0.5541460000000 1.0
C      1  0.5620750000000  0.4205980000000  0.4685550000000 1.0
C      1  0.5773230000000  0.5392760000000  0.5673690000000 1.0
C      1  0.4184120000000  0.4523920000000  0.4456950000000 1.0
C      1  0.4139780000000  0.5018550000000  0.5603200000000 1.0
C      1  0.5789170000000  0.4934180000000  0.4383880000000 1.0
C      1  0.4883560000000  0.5734160000000  0.4386690000000 1.0
C      1  0.5018480000000  0.4062420000000  0.5247510000000 1.0
C      1  0.4051400000000  0.4864660000000  0.5154760000000 1.0
C      1  0.6096670000000  0.5113500000000  0.4752210000000 1.0
C      1  0.4857180000000  0.4383750000000  0.5908380000000 1.0
C      1  0.5206870000000  0.5522340000000  0.4028930000000 1.0
C      1  0.4513920000000  0.5448360000000  0.4203230000000 1.0
C      1  0.5566200000000  0.4512280000000  0.5576520000000 1.0
C      1  0.5540150000000  0.5376090000000  0.4358370000000 1.0
C      1  0.4374690000000  0.4426950000000  0.5677970000000 1.0
C      1  0.5353300000000  0.5578100000000  0.4268650000000 1.0
C      1  0.4581100000000  0.4365000000000  0.5835470000000 1.0
C      1  0.4736520000000  0.5052440000000  0.5943970000000 1.0
C      1  0.5318430000000  0.4800290000000  0.4012000000000 1.0
C      1  0.4126220000000  0.4785140000000  0.5424090000000 1.0
C      1  0.5957700000000  0.5157010000000  0.4500610000000 1.0
C      1  0.4663960000000  0.5134460000000  0.5685030000000 1.0
C      1  0.5590130000000  0.4658410000000  0.4018490000000 1.0
C      1  0.4151830000000  0.5374140000000  0.5261120000000 1.0
C      1  0.6167910000000  0.4726970000000  0.5084430000000 1.0
C      1  0.4886710000000  0.4218150000000  0.4465610000000 1.0
C      1  0.5049170000000  0.5781400000000  0.5608990000000 1.0
C      1  0.5096920000000  0.5526950000000  0.4831490000000 1.0
C      1  0.4892670000000  0.4540760000000  0.4965110000000 1.0
C      1  0.4275050000000  0.4759620000000  0.4299430000000 1.0
C      1  0.5600840000000  0.5175620000000  0.5739500000000 1.0
C      1  0.4559930000000  0.4681440000000  0.4657100000000 1.0
C      1  0.5278470000000  0.5245060000000  0.5382660000000 1.0
C      1  0.4014790000000  0.5263240000000  0.4807060000000 1.0
C      1  0.6227790000000  0.4729310000000  0.5801410000000 1.0
C      1  0.5425350000000  0.4824380000000  0.6027940000000 1.0
C      1  0.4352680000000  0.5233850000000  0.4161700000000 1.0
C      1  0.4785990000000  0.4293140000000  0.4915610000000 1.0
C      1  0.5281910000000  0.5718320000000  0.4725570000000 1.0
C      1  0.4686060000000  0.4801660000000  0.6067060000000 1.0
C      1  0.5266500000000  0.5067780000000  0.3887250000000 1.0
C      1  0.5334930000000  0.4123690000000  0.4789290000000 1.0
C      1  0.4606630000000  0.5824940000000  0.5336890000000 1.0
C      1  0.3760640000000  0.5685590000000  0.4698500000000 1.0
C      1  0.5754460000000  0.4694720000000  0.5694210000000 1.0
C      1  0.4872290000000  0.5846580000000  0.4116790000000 1.0
C      1  0.5046920000000  0.4074740000000  0.5531780000000 1.0
C      1  0.4512090000000  0.5845450000000  0.5041810000000 1.0
C      1  0.5272770000000  0.4083630000000  0.5082070000000 1.0
C      1  0.4270160000000  0.4317140000000  0.5206920000000 1.0
C      1  0.5795150000000  0.5628650000000  0.4693910000000 1.0
C      1  0.5193700000000  0.5494950000000  0.5292160000000 1.0
C      1  0.4744840000000  0.4827400000000  0.4535990000000 1.0
C      1  0.4755080000000  0.4126260000000  0.5145370000000 1.0
C      1  0.5187050000000  0.5732560000000  0.4454260000000 1.0
C      1  0.4679360000000  0.5429520000000  0.5629960000000 1.0
C      1  0.5322140000000  0.4415040000000  0.4424070000000 1.0
C      1  0.5631460000000  0.4908090000000  0.5846280000000 1.0
C      1  0.4242280000000  0.5056210000000  0.4362040000000 1.0
C      1  0.4820730000000  0.4384230000000  0.4244910000000 1.0
C      1  0.4948230000000  0.5536560000000  0.5747140000000 1.0
C      1  0.5070360000000  0.4679390000000  0.5551280000000 1.0
C      1  0.5312080000000  0.4880970000000  0.4306950000000 1.0
C      1  0.4413710000000  0.4111370000000  0.4683520000000 1.0
C      1  0.5552910000000  0.5773340000000  0.5377360000000 1.0
C      1  0.5118770000000  0.5255200000000  0.4043600000000 1.0
C      1  0.4923330000000  0.4627700000000  0.6047310000000 1.0
C      1  0.4465020000000  0.6298650000000  0.4756970000000 1.0
C      1  0.5608870000000  0.4259000000000  0.5458680000000 1.0
C      1  0.6010850000000  0.5574280000000  0.4874180000000 1.0
C      1  0.4150440000000  0.4414810000000  0.4951730000000 1.0
C      1  0.4215060000000  0.4324350000000  0.4675160000000 1.0
C      1  0.5740860000000  0.5626820000000  0.5537010000000 1.0
C      1  0.5526100000000  0.5142820000000  0.4977370000000 1.0
C      1  0.4517710000000  0.5002620000000  0.4966920000000 1.0
C      1  0.4845280000000  0.5945330000000  0.5481950000000 1.0
C      1  0.5163120000000  0.4209020000000  0.4552650000000 1.0
C      1  0.5278720000000  0.5723720000000  0.5441620000000 1.0
C      1  0.4691160000000  0.4193160000000  0.4666460000000 1.0
C      1  0.5502510000000  0.4116460000000  0.5255300000000 1.0
C      1  0.4482860000000  0.6083830000000  0.4903360000000 1.0
C      1  0.4042150000000  0.5137850000000  0.5079270000000 1.0
C      1  0.6186770000000  0.4868760000000  0.4857410000000 1.0
C      1  0.4533850000000  0.5099050000000  0.5225300000000 1.0
C      1  0.5479800000000  0.5028210000000  0.4724460000000 1.0
C      1  0.5020250000000  0.5101320000000  0.5993550000000 1.0
C      1  0.5056460000000  0.4658290000000  0.3940660000000 1.0
C      1  0.5555380000000  0.5746520000000  0.4823060000000 1.0
C      1  0.4459540000000  0.4088140000000  0.5164560000000 1.0
C      1  0.6412470000000  0.4789520000000  0.5975220000000 1.0
C      1  0.4206210000000  0.5223020000000  0.4602270000000 1.0
C      1  0.3988200000000  0.5597200000000  0.5136810000000 1.0
C      1  0.6095810000000  0.4681880000000  0.5337630000000 1.0
C      1  0.4244210000000  0.4507130000000  0.5439430000000 1.0
C      1  0.5799120000000  0.5425970000000  0.4481480000000 1.0
C      1  0.4920100000000  0.4765750000000  0.5118710000000 1.0
C      1  0.5058140000000  0.5305100000000  0.4633160000000 1.0
C      1  0.5381220000000  0.4754990000000  0.4744730000000 1.0
C      1  0.4461900000000  0.5391190000000  0.5185680000000 1.0
C      1  0.4376900000000  0.3946120000000  0.4920770000000 1.0
C      1  0.5594180000000  0.5828480000000  0.5098270000000 1.0
C      1  0.4999790000000  0.5167210000000  0.4298480000000 1.0
C      1  0.4858480000000  0.4781230000000  0.5394650000000 1.0
C      1  0.5052130000000  0.4995740000000  0.5018060000000 1.0
END
