TITL C-3623287-7182-443 0.00204927543727828 125000 -419.719857400292 0 0 73 (C1) n - 1
REM
REM in /home/nfs/bkarasulu/CARBON/AIRSS/Generating-Clusters/LCBOP/Higher-Symm/SD-CG/FIRE-CG
REM
REM
REM
REM
REM
REM ./C.cell (b20cbc046b6831c77cfcea5457e17084)
REM AIRSS Version 0.9.1 bugfix July 2018 build 013d7b7c2542+ Fri, 06 Jul 2018 19:26:36 +0100
REM compiler GCC version 9.2.1 20190827 (Red Hat 9.2.1-1)
REM options -cpp -mtune=generic -march=x86-64 -g -O0 -fpre-include=/usr/include/finclude/math-vector-fortran.h
REM seed -641020609 -583008325 1261571642 889493924 -1022270549 1816314376 -924924288 582005865 1006451068 756271371 -915772080 295989981 -33435825 6519131 -826064597 -1733072011 -1507966771 598409517 -1779310824 -370602660 -286725259 -1004717056 -1269040828 -840191143 1673499252 -646934001 319800719 1225353151 1476456408 -1946290926 706312816 1641821899 -2138102407
REM
CELL 1.54180   50.00000   50.00000   50.00000   90.00000   90.00000   90.00000
LATT -1
SFAC C  
C      1  0.4737130000000  0.4877060000000  0.4707610000000 1.0
C      1  0.4980000000000  0.4717960000000  0.4717120000000 1.0
C      1  0.5245840000000  0.4845210000000  0.4714270000000 1.0
C      1  0.5259760000000  0.5139260000000  0.4710090000000 1.0
C      1  0.5013930000000  0.5293150000000  0.4707690000000 1.0
C      1  0.4756570000000  0.5163630000000  0.4703990000000 1.0
C      1  0.4626120000000  0.5362700000000  0.4897510000000 1.0
C      1  0.4491260000000  0.4874170000000  0.4896440000000 1.0
C      1  0.4857460000000  0.4500690000000  0.4904180000000 1.0
C      1  0.5380760000000  0.4611040000000  0.4894430000000 1.0
C      1  0.5510160000000  0.5156830000000  0.4898280000000 1.0
C      1  0.5114810000000  0.5508100000000  0.4901970000000 1.0
C      1  0.4605830000000  0.4689470000000  0.4492600000000 1.0
C      1  0.5072440000000  0.4506940000000  0.4498720000000 1.0
C      1  0.5473450000000  0.4825650000000  0.4496970000000 1.0
C      1  0.5388930000000  0.5327210000000  0.4490810000000 1.0
C      1  0.4918740000000  0.5504510000000  0.4488820000000 1.0
C      1  0.4526690000000  0.5187610000000  0.4487180000000 1.0
C      1  0.5369930000000  0.5118360000000  0.5159580000000 1.0
C      1  0.5029110000000  0.5368210000000  0.5165480000000 1.0
C      1  0.4751220000000  0.5238690000000  0.5162600000000 1.0
C      1  0.4656460000000  0.4928030000000  0.5162050000000 1.0
C      1  0.4821160000000  0.4665900000000  0.5157900000000 1.0
C      1  0.5246620000000  0.4681360000000  0.5158850000000 1.0
C      1  0.4613200000000  0.5766660000000  0.5273930000000 1.0
C      1  0.4138800000000  0.5071940000000  0.5275210000000 1.0
C      1  0.4502680000000  0.4303360000000  0.5290140000000 1.0
C      1  0.5394880000000  0.4213160000000  0.5272640000000 1.0
C      1  0.5859130000000  0.4933880000000  0.5296110000000 1.0
C      1  0.5481740000000  0.5716820000000  0.5281750000000 1.0
C      1  0.5671770000000  0.5515360000000  0.5170220000000 1.0
C      1  0.4887020000000  0.5831010000000  0.5170340000000 1.0
C      1  0.4243780000000  0.5342050000000  0.5178930000000 1.0
C      1  0.4320860000000  0.4532920000000  0.5187170000000 1.0
C      1  0.5102240000000  0.4177900000000  0.5181650000000 1.0
C      1  0.5761030000000  0.4661130000000  0.5192420000000 1.0
C      1  0.5615480000000  0.5439870000000  0.4899080000000 1.0
C      1  0.4935300000000  0.5751070000000  0.4899010000000 1.0
C      1  0.4325950000000  0.5334870000000  0.4897200000000 1.0
C      1  0.4370840000000  0.4595750000000  0.4901900000000 1.0
C      1  0.5042960000000  0.4260720000000  0.4911600000000 1.0
C      1  0.5678570000000  0.4677550000000  0.4908040000000 1.0
C      1  0.4256520000000  0.4798650000000  0.5343990000000 1.0
C      1  0.4798650000000  0.4269950000000  0.5356260000000 1.0
C      1  0.5571160000000  0.4456190000000  0.5349980000000 1.0
C      1  0.5748260000000  0.5208920000000  0.5356520000000 1.0
C      1  0.5195480000000  0.5731660000000  0.5350270000000 1.0
C      1  0.4438160000000  0.5525400000000  0.5339980000000 1.0
C      1  0.5071970000000  0.5279720000000  0.5632820000000 1.0
C      1  0.4792800000000  0.5203430000000  0.5647060000000 1.0
C      1  0.4721820000000  0.4924780000000  0.5645780000000 1.0
C      1  0.4930800000000  0.4725980000000  0.5625950000000 1.0
C      1  0.5213410000000  0.4795070000000  0.5624230000000 1.0
C      1  0.5284480000000  0.5079600000000  0.5625910000000 1.0
C      1  0.4532250000000  0.4478160000000  0.4696060000000 1.0
C      1  0.5226410000000  0.4339970000000  0.4702910000000 1.0
C      1  0.5691920000000  0.4880420000000  0.4702400000000 1.0
C      1  0.5446160000000  0.5547390000000  0.4693510000000 1.0
C      1  0.4756110000000  0.5663350000000  0.4693600000000 1.0
C      1  0.4306720000000  0.5136710000000  0.4692880000000 1.0
C      1  0.4639430000000  0.5335140000000  0.5436680000000 1.0
C      1  0.4521350000000  0.4882380000000  0.5438310000000 1.0
C      1  0.4866960000000  0.4540730000000  0.5417680000000 1.0
C      1  0.5354680000000  0.4637030000000  0.5425650000000 1.0
C      1  0.5479320000000  0.5147800000000  0.5424790000000 1.0
C      1  0.5108130000000  0.5474460000000  0.5424440000000 1.0
C      1  0.5291370000000  0.4897940000000  0.4259090000000 1.0
C      1  0.5236540000000  0.5204380000000  0.4254490000000 1.0
C      1  0.4944610000000  0.5310500000000  0.4250480000000 1.0
C      1  0.4706100000000  0.5111070000000  0.4249320000000 1.0
C      1  0.4760850000000  0.4805470000000  0.4254200000000 1.0
C      1  0.5051780000000  0.4700010000000  0.4259640000000 1.0
C      1  0.5156690000000  0.4943970000000  0.5147090000000 1.0
END
