TITL C-3623285-6872-889 1.0214403223832e-07 125000 -84.2811842117537 0 0 15 (D3h) n - 1
REM
REM in /home/nfs/bkarasulu/CARBON/AIRSS/Generating-Clusters/LCBOP/Higher-Symm/SD-CG/FIRE-CG
REM
REM
REM
REM
REM
REM ./C.cell (b20cbc046b6831c77cfcea5457e17084)
REM AIRSS Version 0.9.1 bugfix July 2018 build 013d7b7c2542+ Fri, 06 Jul 2018 19:26:36 +0100
REM compiler GCC version 9.2.1 20190827 (Red Hat 9.2.1-1)
REM options -cpp -mtune=generic -march=x86-64 -g -O0 -fpre-include=/usr/include/finclude/math-vector-fortran.h
REM seed 1611029999 -1855544026 1138887504 746077789 -1304878071 -1666292166 -452516660 -1983774066 1117374356 1947801565 652504649 -2146452875 34200935 -248122372 1660022939 -692201167 -712715858 1896838150 -2044296440 335451220 -484091610 -812339679 642606497 -850030914 -1803159511 -159613470 1102017155 -275326315 -1050308015 -262291525 1004493133 -986068695 920594902
REM
CELL 1.54180   50.00000   50.00000   50.00000   90.00000   90.00000   90.00000
LATT -1
SFAC C  
C      1  0.5000000000000  0.5285000000000  0.4733150000000 1.0
C      1  0.4753190000000  0.4857510000000  0.5236490000000 1.0
C      1  0.5000010000000  0.5285010000000  0.5236480000000 1.0
C      1  0.5246820000000  0.4857500000000  0.5236480000000 1.0
C      1  0.4753180000000  0.4857490000000  0.4733160000000 1.0
C      1  0.5246810000000  0.4857490000000  0.4733150000000 1.0
C      1  0.4762060000000  0.5137360000000  0.4665980000000 1.0
C      1  0.5237920000000  0.5137360000000  0.4665970000000 1.0
C      1  0.4762080000000  0.5137380000000  0.5303670000000 1.0
C      1  0.5237940000000  0.5137380000000  0.5303660000000 1.0
C      1  0.4999990000000  0.4725260000000  0.4665980000000 1.0
C      1  0.5000010000000  0.4725270000000  0.5303670000000 1.0
C      1  0.5000000000000  0.5417080000000  0.4984810000000 1.0
C      1  0.5361210000000  0.4791460000000  0.4984820000000 1.0
C      1  0.4638790000000  0.4791460000000  0.4984830000000 1.0
END
