TITL C-3623285-6872-921 -22.0430530007471 125000 -1197.91363146047 0 0 200 (C1) n - 1
REM
REM in /home/nfs/bkarasulu/CARBON/AIRSS/Generating-Clusters/LCBOP/Higher-Symm/SD-CG/FIRE-CG
REM
REM
REM
REM
REM
REM ./C.cell (b20cbc046b6831c77cfcea5457e17084)
REM AIRSS Version 0.9.1 bugfix July 2018 build 013d7b7c2542+ Fri, 06 Jul 2018 19:26:36 +0100
REM compiler GCC version 9.2.1 20190827 (Red Hat 9.2.1-1)
REM options -cpp -mtune=generic -march=x86-64 -g -O0 -fpre-include=/usr/include/finclude/math-vector-fortran.h
REM seed 1948283011 -91407714 100436217 1785856839 -1774167193 1371779976 -664987731 -414206112 106499069 -1727045620 -2037708582 -1622167699 -1750157374 -120628103 73730086 -1253873480 584897864 1856575370 -865988690 2141471750 1126838524 616417217 -13121034 1968634536 32858892 1826302656 1670070710 764116912 1575235415 -329972638 -488674419 1834187571 1646512298
REM
CELL 1.54180   50.00000   50.00000   50.00000   90.00000   90.00000   90.00000
LATT -1
SFAC C  
C      1  0.4553680000000  0.5560260000000  0.4670150000000 1.0
C      1  0.5300580000000  0.5338370000000  0.4516040000000 1.0
C      1  0.4656790000000  0.5003180000000  0.4273230000000 1.0
C      1  0.5382460000000  0.4297540000000  0.4673290000000 1.0
C      1  0.4755740000000  0.4251980000000  0.4754160000000 1.0
C      1  0.5134540000000  0.4303900000000  0.5252970000000 1.0
C      1  0.4632190000000  0.4657350000000  0.5612320000000 1.0
C      1  0.5463460000000  0.5122590000000  0.5667990000000 1.0
C      1  0.4557880000000  0.5421210000000  0.5541130000000 1.0
C      1  0.5457150000000  0.5615370000000  0.5053430000000 1.0
C      1  0.5342830000000  0.4420930000000  0.5110540000000 1.0
C      1  0.4546900000000  0.4589150000000  0.5370660000000 1.0
C      1  0.5534420000000  0.4924710000000  0.5506990000000 1.0
C      1  0.4488810000000  0.5184610000000  0.5442630000000 1.0
C      1  0.5529810000000  0.5373620000000  0.5127280000000 1.0
C      1  0.4485790000000  0.5435270000000  0.4892820000000 1.0
C      1  0.5535800000000  0.5201010000000  0.4579130000000 1.0
C      1  0.4489120000000  0.5060200000000  0.4486530000000 1.0
C      1  0.5475890000000  0.4540560000000  0.4618160000000 1.0
C      1  0.4579940000000  0.4467360000000  0.4767810000000 1.0
C      1  0.4901270000000  0.5710800000000  0.4324640000000 1.0
C      1  0.4956820000000  0.5094600000000  0.4278630000000 1.0
C      1  0.4953180000000  0.4623780000000  0.4281650000000 1.0
C      1  0.4925760000000  0.4216310000000  0.4539280000000 1.0
C      1  0.4912540000000  0.4133320000000  0.5212290000000 1.0
C      1  0.5136160000000  0.4587740000000  0.5648220000000 1.0
C      1  0.4857940000000  0.5069040000000  0.5799360000000 1.0
C      1  0.5191330000000  0.5531190000000  0.5598050000000 1.0
C      1  0.4789190000000  0.5717060000000  0.5237870000000 1.0
C      1  0.5078700000000  0.5730290000000  0.4769450000000 1.0
C      1  0.5595960000000  0.3747220000000  0.4520290000000 1.0
C      1  0.4430130000000  0.3761740000000  0.5279580000000 1.0
C      1  0.5590230000000  0.4284600000000  0.5902570000000 1.0
C      1  0.4421290000000  0.5021340000000  0.6227740000000 1.0
C      1  0.5645380000000  0.5734420000000  0.6006740000000 1.0
C      1  0.4360220000000  0.6118390000000  0.5392750000000 1.0
C      1  0.5575620000000  0.6124220000000  0.4675730000000 1.0
C      1  0.4451230000000  0.5882380000000  0.4009550000000 1.0
C      1  0.5569720000000  0.5069070000000  0.3992400000000 1.0
C      1  0.4394450000000  0.4311700000000  0.4037450000000 1.0
C      1  0.4687300000000  0.5578910000000  0.4443630000000 1.0
C      1  0.5166110000000  0.5318050000000  0.4258720000000 1.0
C      1  0.4670020000000  0.4716450000000  0.4215300000000 1.0
C      1  0.5193780000000  0.4124600000000  0.4572040000000 1.0
C      1  0.4798610000000  0.4070680000000  0.4964610000000 1.0
C      1  0.5182750000000  0.4328990000000  0.5526900000000 1.0
C      1  0.4724100000000  0.4818930000000  0.5821990000000 1.0
C      1  0.5339930000000  0.5353470000000  0.5763920000000 1.0
C      1  0.4663890000000  0.5672540000000  0.5485870000000 1.0
C      1  0.5288820000000  0.5804290000000  0.4941380000000 1.0
C      1  0.6057000000000  0.5040940000000  0.5270820000000 1.0
C      1  0.3974000000000  0.5187620000000  0.5181920000000 1.0
C      1  0.6058620000000  0.5267780000000  0.5073790000000 1.0
C      1  0.3972000000000  0.5246780000000  0.4878430000000 1.0
C      1  0.6057780000000  0.5152450000000  0.4794220000000 1.0
C      1  0.3968980000000  0.4973610000000  0.4737190000000 1.0
C      1  0.6049260000000  0.4843870000000  0.4809700000000 1.0
C      1  0.3984960000000  0.4747030000000  0.4943650000000 1.0
C      1  0.6048930000000  0.4783000000000  0.5110170000000 1.0
C      1  0.3981770000000  0.4882570000000  0.5220340000000 1.0
C      1  0.5879970000000  0.4286860000000  0.5294980000000 1.0
C      1  0.4116350000000  0.4643110000000  0.5716220000000 1.0
C      1  0.5934510000000  0.5119340000000  0.5817610000000 1.0
C      1  0.4090500000000  0.5536760000000  0.5616160000000 1.0
C      1  0.5903820000000  0.5792110000000  0.5198100000000 1.0
C      1  0.4116470000000  0.5739320000000  0.4616140000000 1.0
C      1  0.5904480000000  0.5484300000000  0.4373500000000 1.0
C      1  0.4078420000000  0.4904130000000  0.4191970000000 1.0
C      1  0.5891710000000  0.4439970000000  0.4426750000000 1.0
C      1  0.4145570000000  0.4208680000000  0.4809940000000 1.0
C      1  0.4997030000000  0.4760700000000  0.4625370000000 1.0
C      1  0.5005440000000  0.4702830000000  0.4902040000000 1.0
C      1  0.5019400000000  0.4768010000000  0.5166020000000 1.0
C      1  0.5063760000000  0.4815570000000  0.5449020000000 1.0
C      1  0.4990070000000  0.5088300000000  0.5540000000000 1.0
C      1  0.5046460000000  0.5353220000000  0.5407850000000 1.0
C      1  0.4944500000000  0.5483250000000  0.5161870000000 1.0
C      1  0.5003210000000  0.5468790000000  0.4877740000000 1.0
C      1  0.5089440000000  0.5262910000000  0.4708430000000 1.0
C      1  0.4995490000000  0.5029800000000  0.4577080000000 1.0
C      1  0.5177140000000  0.3723860000000  0.4305820000000 1.0
C      1  0.4847980000000  0.3600650000000  0.5142250000000 1.0
C      1  0.5180440000000  0.4061040000000  0.5936930000000 1.0
C      1  0.4830100000000  0.4837290000000  0.6329740000000 1.0
C      1  0.5220690000000  0.5654670000000  0.6164810000000 1.0
C      1  0.4759890000000  0.6198160000000  0.5591720000000 1.0
C      1  0.5164680000000  0.6268360000000  0.4828790000000 1.0
C      1  0.4846740000000  0.6153490000000  0.4022970000000 1.0
C      1  0.5171910000000  0.5220070000000  0.3797730000000 1.0
C      1  0.4797550000000  0.4400000000000  0.3827880000000 1.0
C      1  0.4897750000000  0.3694930000000  0.4245040000000 1.0
C      1  0.5142090000000  0.3604370000000  0.5063440000000 1.0
C      1  0.4901520000000  0.4008990000000  0.5985100000000 1.0
C      1  0.5109450000000  0.4805370000000  0.6393570000000 1.0
C      1  0.4951580000000  0.5661500000000  0.6262010000000 1.0
C      1  0.5034000000000  0.6264920000000  0.5658350000000 1.0
C      1  0.4898530000000  0.6364500000000  0.4869910000000 1.0
C      1  0.5145230000000  0.6150830000000  0.4016030000000 1.0
C      1  0.4908870000000  0.5270900000000  0.3688920000000 1.0
C      1  0.5079140000000  0.4400600000000  0.3748390000000 1.0
C      1  0.4413420000000  0.6134630000000  0.4738740000000 1.0
C      1  0.5597310000000  0.5835590000000  0.4119450000000 1.0
C      1  0.4403230000000  0.5069590000000  0.3816200000000 1.0
C      1  0.5576190000000  0.4357720000000  0.4017290000000 1.0
C      1  0.4442330000000  0.3861060000000  0.4512330000000 1.0
C      1  0.5574680000000  0.3872190000000  0.5243910000000 1.0
C      1  0.4426620000000  0.4289220000000  0.5945050000000 1.0
C      1  0.5599730000000  0.4975030000000  0.6196130000000 1.0
C      1  0.4446350000000  0.5654730000000  0.6013510000000 1.0
C      1  0.5544680000000  0.6062390000000  0.5460520000000 1.0
C      1  0.5364740000000  0.5837630000000  0.5980560000000 1.0
C      1  0.4643410000000  0.6188270000000  0.5319430000000 1.0
C      1  0.5285840000000  0.6131460000000  0.4581880000000 1.0
C      1  0.4728110000000  0.5897170000000  0.3919900000000 1.0
C      1  0.5301570000000  0.4970170000000  0.3924670000000 1.0
C      1  0.4691180000000  0.4238760000000  0.4055350000000 1.0
C      1  0.5321970000000  0.3616540000000  0.4546860000000 1.0
C      1  0.4705810000000  0.3715280000000  0.5372350000000 1.0
C      1  0.5323340000000  0.4313930000000  0.6023780000000 1.0
C      1  0.4707370000000  0.5102250000000  0.6267920000000 1.0
C      1  0.5649840000000  0.5448590000000  0.6085280000000 1.0
C      1  0.4352510000000  0.5963160000000  0.5646520000000 1.0
C      1  0.5596540000000  0.6131360000000  0.4976710000000 1.0
C      1  0.4414540000000  0.6028450000000  0.4259480000000 1.0
C      1  0.5577150000000  0.5359400000000  0.4031690000000 1.0
C      1  0.4356850000000  0.4582360000000  0.3916080000000 1.0
C      1  0.5592680000000  0.3995930000000  0.4355720000000 1.0
C      1  0.4416120000000  0.3809210000000  0.4990590000000 1.0
C      1  0.5584290000000  0.4121110000000  0.5659340000000 1.0
C      1  0.4398950000000  0.4741140000000  0.6132890000000 1.0
C      1  0.5039250000000  0.5920110000000  0.4518630000000 1.0
C      1  0.4912720000000  0.5713780000000  0.4038470000000 1.0
C      1  0.5082560000000  0.4858580000000  0.4097890000000 1.0
C      1  0.4912770000000  0.4317710000000  0.4261410000000 1.0
C      1  0.5134300000000  0.3594180000000  0.4765160000000 1.0
C      1  0.4884900000000  0.3929650000000  0.5425030000000 1.0
C      1  0.5126990000000  0.4513530000000  0.5938750000000 1.0
C      1  0.4899260000000  0.5187180000000  0.6060940000000 1.0
C      1  0.5176720000000  0.5821250000000  0.5725570000000 1.0
C      1  0.4838650000000  0.5996830000000  0.5200110000000 1.0
C      1  0.4822990000000  0.4866550000000  0.3824360000000 1.0
C      1  0.5158730000000  0.4190740000000  0.4129480000000 1.0
C      1  0.4848430000000  0.3663780000000  0.4689540000000 1.0
C      1  0.5159250000000  0.3851790000000  0.5482920000000 1.0
C      1  0.4863510000000  0.4453800000000  0.6043920000000 1.0
C      1  0.5172440000000  0.5181760000000  0.6153630000000 1.0
C      1  0.4872570000000  0.5830810000000  0.5857290000000 1.0
C      1  0.5114290000000  0.6062880000000  0.5260020000000 1.0
C      1  0.4814760000000  0.6133420000000  0.4504870000000 1.0
C      1  0.5177910000000  0.5691680000000  0.3948060000000 1.0
C      1  0.6011380000000  0.5545950000000  0.5140620000000 1.0
C      1  0.4018060000000  0.5507630000000  0.4741020000000 1.0
C      1  0.6015470000000  0.5322780000000  0.4564520000000 1.0
C      1  0.3994110000000  0.4935330000000  0.4450750000000 1.0
C      1  0.5994280000000  0.4637700000000  0.4599520000000 1.0
C      1  0.4045220000000  0.4461730000000  0.4878650000000 1.0
C      1  0.5993150000000  0.4520860000000  0.5214720000000 1.0
C      1  0.4027030000000  0.4753400000000  0.5479290000000 1.0
C      1  0.6022070000000  0.5077140000000  0.5558530000000 1.0
C      1  0.4008130000000  0.5378430000000  0.5403340000000 1.0
C      1  0.4678010000000  0.6184360000000  0.4264260000000 1.0
C      1  0.5279290000000  0.5425280000000  0.3993590000000 1.0
C      1  0.4655130000000  0.4654700000000  0.3905050000000 1.0
C      1  0.5286830000000  0.4003480000000  0.4307120000000 1.0
C      1  0.4718260000000  0.3780490000000  0.4924350000000 1.0
C      1  0.5283260000000  0.4056810000000  0.5652220000000 1.0
C      1  0.4705390000000  0.4687100000000  0.6096720000000 1.0
C      1  0.5341720000000  0.5395560000000  0.6063310000000 1.0
C      1  0.4661780000000  0.5916210000000  0.5674190000000 1.0
C      1  0.5292490000000  0.6089120000000  0.5035920000000 1.0
C      1  0.5312760000000  0.3746600000000  0.5256420000000 1.0
C      1  0.4706100000000  0.4218900000000  0.5994750000000 1.0
C      1  0.5316260000000  0.4961360000000  0.6267110000000 1.0
C      1  0.4734920000000  0.5704260000000  0.6079690000000 1.0
C      1  0.5235480000000  0.6063730000000  0.5537720000000 1.0
C      1  0.4683220000000  0.6230850000000  0.4738320000000 1.0
C      1  0.5338730000000  0.5922700000000  0.4013200000000 1.0
C      1  0.4689250000000  0.5096860000000  0.3750750000000 1.0
C      1  0.5300020000000  0.4328840000000  0.3926020000000 1.0
C      1  0.4699460000000  0.3725010000000  0.4450740000000 1.0
C      1  0.4239440000000  0.4853850000000  0.3955260000000 1.0
C      1  0.5717270000000  0.4254960000000  0.4262470000000 1.0
C      1  0.4299860000000  0.3956680000000  0.4762960000000 1.0
C      1  0.5706100000000  0.4083860000000  0.5399810000000 1.0
C      1  0.4275660000000  0.4547990000000  0.5943930000000 1.0
C      1  0.5766020000000  0.5177790000000  0.6051800000000 1.0
C      1  0.4253100000000  0.5719380000000  0.5783110000000 1.0
C      1  0.5717580000000  0.6014850000000  0.5221230000000 1.0
C      1  0.4288400000000  0.5969850000000  0.4527800000000 1.0
C      1  0.5718160000000  0.5569960000000  0.4170100000000 1.0
C      1  0.5494820000000  0.4652170000000  0.5072620000000 1.0
C      1  0.4498480000000  0.4756470000000  0.5157130000000 1.0
C      1  0.5535910000000  0.4881910000000  0.5235360000000 1.0
C      1  0.4486020000000  0.5039380000000  0.5208510000000 1.0
C      1  0.5555770000000  0.5108960000000  0.5061370000000 1.0
C      1  0.4478750000000  0.5168780000000  0.4957890000000 1.0
C      1  0.5565060000000  0.5019540000000  0.4787820000000 1.0
C      1  0.4479520000000  0.4972040000000  0.4749330000000 1.0
C      1  0.5531820000000  0.4738920000000  0.4798220000000 1.0
C      1  0.4503220000000  0.4711750000000  0.4872410000000 1.0
END
