TITL C-3623289-7120-1132 -234.198467396185 125000 -756.205438905864 0 0 125 (C1) n - 1
REM
REM in /home/nfs/bkarasulu/CARBON/AIRSS/Generating-Clusters/LCBOP/Higher-Symm/SD-CG/FIRE-CG
REM
REM
REM
REM
REM
REM ./C.cell (b20cbc046b6831c77cfcea5457e17084)
REM AIRSS Version 0.9.1 bugfix July 2018 build 013d7b7c2542+ Fri, 06 Jul 2018 19:26:36 +0100
REM compiler GCC version 9.2.1 20190827 (Red Hat 9.2.1-1)
REM options -cpp -mtune=generic -march=x86-64 -g -O0 -fpre-include=/usr/include/finclude/math-vector-fortran.h
REM seed -850489772 1306767532 1098023133 -1505375221 420750990 -1784582785 193530646 -1691873046 1919003933 -1971713609 -932994184 1335567512 828514055 564662225 1862692687 307601233 -1282363433 644670689 916831973 -262894438 20875086 2058590125 1425815766 -1347997378 -309877541 -163920582 -1116392504 -1240954862 744133708 1955566182 -606435542 1698510238 443654482
REM
CELL 1.54180   50.00000   50.00000   50.00000   90.00000   90.00000   90.00000
LATT -1
SFAC C  
C      1  0.4751660000000  0.5253970000000  0.5839530000000 1.0
C      1  0.4736830000000  0.4691280000000  0.4177470000000 1.0
C      1  0.4683350000000  0.5186410000000  0.4120230000000 1.0
C      1  0.4716610000000  0.4750910000000  0.5858790000000 1.0
C      1  0.4716480000000  0.4678050000000  0.5276780000000 1.0
C      1  0.4765850000000  0.5398190000000  0.4649630000000 1.0
C      1  0.4792660000000  0.4575970000000  0.4850760000000 1.0
C      1  0.4833830000000  0.5480490000000  0.5093420000000 1.0
C      1  0.5899940000000  0.5441020000000  0.4530820000000 1.0
C      1  0.5921260000000  0.4552710000000  0.5493030000000 1.0
C      1  0.5970460000000  0.5453500000000  0.5523360000000 1.0
C      1  0.5957780000000  0.4602120000000  0.4491520000000 1.0
C      1  0.5020750000000  0.6077550000000  0.4839510000000 1.0
C      1  0.5075410000000  0.3905410000000  0.5217520000000 1.0
C      1  0.5064440000000  0.6092880000000  0.5272000000000 1.0
C      1  0.5027340000000  0.3982060000000  0.4792200000000 1.0
C      1  0.5066280000000  0.5725910000000  0.4385260000000 1.0
C      1  0.5081340000000  0.4256280000000  0.5607350000000 1.0
C      1  0.5171650000000  0.5778100000000  0.5769110000000 1.0
C      1  0.5162530000000  0.4216140000000  0.4301250000000 1.0
C      1  0.6069750000000  0.4581040000000  0.4737520000000 1.0
C      1  0.6097120000000  0.5482660000000  0.5283860000000 1.0
C      1  0.6053290000000  0.4546390000000  0.5255940000000 1.0
C      1  0.6038570000000  0.5456710000000  0.4763220000000 1.0
C      1  0.5635130000000  0.5861000000000  0.5260570000000 1.0
C      1  0.5650030000000  0.4142020000000  0.4731400000000 1.0
C      1  0.5618170000000  0.5893560000000  0.4760640000000 1.0
C      1  0.5618290000000  0.4150500000000  0.5222220000000 1.0
C      1  0.4188700000000  0.5354130000000  0.4694650000000 1.0
C      1  0.4182830000000  0.4612700000000  0.5282750000000 1.0
C      1  0.4241870000000  0.5372450000000  0.5221160000000 1.0
C      1  0.4199550000000  0.4580220000000  0.4752990000000 1.0
C      1  0.4957470000000  0.5296790000000  0.4137760000000 1.0
C      1  0.4997400000000  0.4664170000000  0.5864600000000 1.0
C      1  0.5026990000000  0.5332640000000  0.5899200000000 1.0
C      1  0.5021060000000  0.4637760000000  0.4132840000000 1.0
C      1  0.4057380000000  0.5096930000000  0.4708840000000 1.0
C      1  0.4228920000000  0.4892490000000  0.5222720000000 1.0
C      1  0.4089330000000  0.5134860000000  0.5269890000000 1.0
C      1  0.4219130000000  0.4870350000000  0.4768320000000 1.0
C      1  0.5698850000000  0.5471350000000  0.5612580000000 1.0
C      1  0.5695250000000  0.4552830000000  0.4390210000000 1.0
C      1  0.5639800000000  0.5489150000000  0.4414970000000 1.0
C      1  0.5645790000000  0.4532780000000  0.5570630000000 1.0
C      1  0.4293670000000  0.5159240000000  0.5745010000000 1.0
C      1  0.4262860000000  0.4751870000000  0.4224210000000 1.0
C      1  0.4229020000000  0.5017840000000  0.4185390000000 1.0
C      1  0.4263560000000  0.4891150000000  0.5775140000000 1.0
C      1  0.5178770000000  0.5504870000000  0.5360570000000 1.0
C      1  0.5201370000000  0.4546190000000  0.4678040000000 1.0
C      1  0.5223150000000  0.5520390000000  0.4830150000000 1.0
C      1  0.5144780000000  0.4532560000000  0.5194780000000 1.0
C      1  0.5542420000000  0.4765530000000  0.4234380000000 1.0
C      1  0.5550340000000  0.5243300000000  0.5757060000000 1.0
C      1  0.5524540000000  0.4749200000000  0.5736440000000 1.0
C      1  0.5504460000000  0.5264840000000  0.4245850000000 1.0
C      1  0.5106000000000  0.5252540000000  0.5458800000000 1.0
C      1  0.5202690000000  0.4811370000000  0.4586870000000 1.0
C      1  0.5321380000000  0.5261710000000  0.4772510000000 1.0
C      1  0.5146170000000  0.4803690000000  0.5275900000000 1.0
C      1  0.5266520000000  0.5154610000000  0.5865230000000 1.0
C      1  0.5247350000000  0.4832980000000  0.4148560000000 1.0
C      1  0.5218340000000  0.5147130000000  0.4152580000000 1.0
C      1  0.5247500000000  0.4834960000000  0.5851000000000 1.0
C      1  0.4584070000000  0.5547940000000  0.4524000000000 1.0
C      1  0.4601480000000  0.4427240000000  0.5330500000000 1.0
C      1  0.4648510000000  0.5616140000000  0.5251720000000 1.0
C      1  0.4622980000000  0.4383370000000  0.4764660000000 1.0
C      1  0.4452790000000  0.4677380000000  0.5726980000000 1.0
C      1  0.4408240000000  0.5235260000000  0.4232360000000 1.0
C      1  0.4489360000000  0.4603780000000  0.4328120000000 1.0
C      1  0.4518230000000  0.5323260000000  0.5660090000000 1.0
C      1  0.4350670000000  0.5409220000000  0.4456330000000 1.0
C      1  0.4375540000000  0.4509100000000  0.5493210000000 1.0
C      1  0.4467560000000  0.5450560000000  0.5398680000000 1.0
C      1  0.4422910000000  0.4472700000000  0.4587680000000 1.0
C      1  0.5230380000000  0.4351500000000  0.5391430000000 1.0
C      1  0.5239570000000  0.5687730000000  0.4599470000000 1.0
C      1  0.5294000000000  0.4338650000000  0.4514800000000 1.0
C      1  0.5291860000000  0.5694950000000  0.5531210000000 1.0
C      1  0.5070130000000  0.5606930000000  0.5949680000000 1.0
C      1  0.5077110000000  0.4364110000000  0.4094380000000 1.0
C      1  0.4979430000000  0.5575330000000  0.4181820000000 1.0
C      1  0.5028330000000  0.4385550000000  0.5835340000000 1.0
C      1  0.5517920000000  0.5723400000000  0.4547700000000 1.0
C      1  0.5510290000000  0.4329140000000  0.5415500000000 1.0
C      1  0.5568470000000  0.5703740000000  0.5491860000000 1.0
C      1  0.5573540000000  0.4321200000000  0.4521580000000 1.0
C      1  0.5252520000000  0.3941270000000  0.4974570000000 1.0
C      1  0.5244050000000  0.6078100000000  0.5041080000000 1.0
C      1  0.4787530000000  0.5285780000000  0.4900430000000 1.0
C      1  0.4685860000000  0.4809430000000  0.5009760000000 1.0
C      1  0.5959320000000  0.4971920000000  0.5852610000000 1.0
C      1  0.5936020000000  0.5046990000000  0.4100230000000 1.0
C      1  0.4761290000000  0.6049280000000  0.5073730000000 1.0
C      1  0.4781690000000  0.3996650000000  0.5057650000000 1.0
C      1  0.5958570000000  0.4600650000000  0.4995690000000 1.0
C      1  0.6019560000000  0.5376250000000  0.5033510000000 1.0
C      1  0.5848780000000  0.5159360000000  0.5069010000000 1.0
C      1  0.5703020000000  0.4722860000000  0.4997320000000 1.0
C      1  0.5519240000000  0.4051290000000  0.4972270000000 1.0
C      1  0.5511430000000  0.5966750000000  0.5021180000000 1.0
C      1  0.3782830000000  0.5090720000000  0.4772280000000 1.0
C      1  0.3809270000000  0.5138450000000  0.5242500000000 1.0
C      1  0.4562130000000  0.5856930000000  0.5114450000000 1.0
C      1  0.4571590000000  0.4197150000000  0.5068910000000 1.0
C      1  0.4686830000000  0.4922480000000  0.4015060000000 1.0
C      1  0.4696950000000  0.5009470000000  0.5978060000000 1.0
C      1  0.5084910000000  0.4985440000000  0.5480780000000 1.0
C      1  0.5225890000000  0.5078240000000  0.4580730000000 1.0
C      1  0.4227510000000  0.5506240000000  0.4951940000000 1.0
C      1  0.4152510000000  0.4448220000000  0.5027110000000 1.0
C      1  0.4329800000000  0.5779150000000  0.4960590000000 1.0
C      1  0.4273850000000  0.4185660000000  0.5052320000000 1.0
C      1  0.5106860000000  0.5554170000000  0.5091130000000 1.0
C      1  0.5061820000000  0.4504090000000  0.4918680000000 1.0
C      1  0.5698280000000  0.4986450000000  0.5771830000000 1.0
C      1  0.5681820000000  0.5025740000000  0.4199080000000 1.0
C      1  0.5140100000000  0.4972240000000  0.5050670000000 1.0
C      1  0.5383680000000  0.5094130000000  0.4988710000000 1.0
C      1  0.3641850000000  0.5113210000000  0.5016170000000 1.0
C      1  0.5635430000000  0.4990040000000  0.5032410000000 1.0
C      1  0.3370140000000  0.5110670000000  0.5031720000000 1.0
C      1  0.4875710000000  0.5029380000000  0.4962960000000 1.0
C      1  0.4403240000000  0.4906270000000  0.4989510000000 1.0
END
