TITL C-3623288-6813-1910 2.58379546934733e-06 125000 -837.555196074819 0 0 139 (C1) n - 1
REM
REM in /home/nfs/bkarasulu/CARBON/AIRSS/Generating-Clusters/LCBOP/Higher-Symm/SD-CG/FIRE-CG
REM
REM
REM
REM
REM
REM ./C.cell (b20cbc046b6831c77cfcea5457e17084)
REM AIRSS Version 0.9.1 bugfix July 2018 build 013d7b7c2542+ Fri, 06 Jul 2018 19:26:36 +0100
REM compiler GCC version 9.2.1 20190827 (Red Hat 9.2.1-1)
REM options -cpp -mtune=generic -march=x86-64 -g -O0 -fpre-include=/usr/include/finclude/math-vector-fortran.h
REM seed 53093565 -2137543825 181835805 2062985699 642617384 -1704834715 -388334333 -562029092 391240826 1694947490 289782623 908969731 -110799251 -858840591 -74774746 1458717521 1997006631 1669199112 -16508123 878965113 -1278032280 -1191840844 920303258 1931932354 1373270794 -138037079 -504067319 631375092 -2033658163 -346539154 2067571196 -372575335 -1289755222
REM
CELL 1.54180   50.00000   50.00000   50.00000   90.00000   90.00000   90.00000
LATT -1
SFAC C  
C      1  0.5489600000000  0.5943370000000  0.4617110000000 1.0
C      1  0.5324900000000  0.4080650000000  0.5390190000000 1.0
C      1  0.5332330000000  0.4065290000000  0.4654120000000 1.0
C      1  0.5360820000000  0.5900890000000  0.5368490000000 1.0
C      1  0.5026010000000  0.4869630000000  0.4738170000000 1.0
C      1  0.4856560000000  0.5136260000000  0.5244110000000 1.0
C      1  0.4954720000000  0.5147440000000  0.4781490000000 1.0
C      1  0.4978980000000  0.4858180000000  0.5203400000000 1.0
C      1  0.4714830000000  0.4817570000000  0.5634590000000 1.0
C      1  0.4711970000000  0.5137760000000  0.4411400000000 1.0
C      1  0.4762200000000  0.5109560000000  0.5693290000000 1.0
C      1  0.4744050000000  0.4828450000000  0.4349630000000 1.0
C      1  0.4384460000000  0.4849600000000  0.5979750000000 1.0
C      1  0.4332020000000  0.5115530000000  0.4151830000000 1.0
C      1  0.4392420000000  0.5145610000000  0.5977630000000 1.0
C      1  0.4373970000000  0.4839750000000  0.4038920000000 1.0
C      1  0.4567740000000  0.4044200000000  0.4447310000000 1.0
C      1  0.4533080000000  0.5883990000000  0.5435380000000 1.0
C      1  0.4552890000000  0.5944090000000  0.4620150000000 1.0
C      1  0.4526750000000  0.4025720000000  0.5579310000000 1.0
C      1  0.4961010000000  0.4338620000000  0.4779900000000 1.0
C      1  0.4928860000000  0.5687270000000  0.5219590000000 1.0
C      1  0.4907400000000  0.5559850000000  0.4654990000000 1.0
C      1  0.4959810000000  0.4402320000000  0.5346220000000 1.0
C      1  0.5200260000000  0.5131360000000  0.5528580000000 1.0
C      1  0.5241250000000  0.4938310000000  0.4298790000000 1.0
C      1  0.5241630000000  0.4880140000000  0.5655680000000 1.0
C      1  0.5208410000000  0.5197100000000  0.4430830000000 1.0
C      1  0.5347320000000  0.5520510000000  0.5769220000000 1.0
C      1  0.5253430000000  0.4276510000000  0.4199030000000 1.0
C      1  0.5261910000000  0.4301080000000  0.5826630000000 1.0
C      1  0.5393180000000  0.5556030000000  0.4219530000000 1.0
C      1  0.5889120000000  0.4872910000000  0.4593350000000 1.0
C      1  0.5909660000000  0.5159390000000  0.5385620000000 1.0
C      1  0.5932900000000  0.5153130000000  0.4594170000000 1.0
C      1  0.5893550000000  0.4876390000000  0.5398670000000 1.0
C      1  0.4232300000000  0.4546090000000  0.4842050000000 1.0
C      1  0.4173910000000  0.5333910000000  0.5100120000000 1.0
C      1  0.4174350000000  0.5344950000000  0.4808550000000 1.0
C      1  0.4197760000000  0.4617180000000  0.5116590000000 1.0
C      1  0.5195470000000  0.4449650000000  0.4882840000000 1.0
C      1  0.5133890000000  0.5522130000000  0.5071590000000 1.0
C      1  0.5182960000000  0.5624880000000  0.4791240000000 1.0
C      1  0.5190890000000  0.4463720000000  0.5159270000000 1.0
C      1  0.5859300000000  0.4705710000000  0.4843800000000 1.0
C      1  0.5867180000000  0.5299450000000  0.5128280000000 1.0
C      1  0.5891830000000  0.5305280000000  0.4845740000000 1.0
C      1  0.5859270000000  0.4708280000000  0.5149310000000 1.0
C      1  0.5622090000000  0.6008250000000  0.4877860000000 1.0
C      1  0.5470310000000  0.3992280000000  0.5157320000000 1.0
C      1  0.5489870000000  0.3989880000000  0.4884990000000 1.0
C      1  0.5546030000000  0.5989350000000  0.5146510000000 1.0
C      1  0.4838190000000  0.4848860000000  0.6126640000000 1.0
C      1  0.4754090000000  0.5188400000000  0.3917420000000 1.0
C      1  0.4833320000000  0.5124760000000  0.6148890000000 1.0
C      1  0.4810480000000  0.4921300000000  0.3874020000000 1.0
C      1  0.5717640000000  0.5518180000000  0.4742950000000 1.0
C      1  0.5650440000000  0.4531890000000  0.5252890000000 1.0
C      1  0.5656120000000  0.4521060000000  0.4743130000000 1.0
C      1  0.5660510000000  0.5494360000000  0.5211170000000 1.0
C      1  0.5077960000000  0.6115910000000  0.4840880000000 1.0
C      1  0.4836060000000  0.3936440000000  0.5181820000000 1.0
C      1  0.4838490000000  0.3915360000000  0.4878320000000 1.0
C      1  0.5027760000000  0.6141280000000  0.5106700000000 1.0
C      1  0.5438150000000  0.4265470000000  0.5602660000000 1.0
C      1  0.5563750000000  0.5757170000000  0.4390030000000 1.0
C      1  0.5467720000000  0.5714240000000  0.5576450000000 1.0
C      1  0.5430940000000  0.4248830000000  0.4422850000000 1.0
C      1  0.5075890000000  0.5565870000000  0.5851320000000 1.0
C      1  0.5028670000000  0.4357280000000  0.4075630000000 1.0
C      1  0.5013500000000  0.4343030000000  0.5923620000000 1.0
C      1  0.5091400000000  0.5598860000000  0.4175050000000 1.0
C      1  0.5076180000000  0.5928830000000  0.5291800000000 1.0
C      1  0.5044190000000  0.4068080000000  0.4729370000000 1.0
C      1  0.5025840000000  0.4095270000000  0.5352670000000 1.0
C      1  0.5218960000000  0.5910390000000  0.4707770000000 1.0
C      1  0.4779960000000  0.5606700000000  0.4220070000000 1.0
C      1  0.4734020000000  0.4406830000000  0.5897380000000 1.0
C      1  0.4750220000000  0.4423310000000  0.4093230000000 1.0
C      1  0.4779470000000  0.5553730000000  0.5838690000000 1.0
C      1  0.5644250000000  0.4473080000000  0.5539840000000 1.0
C      1  0.5794740000000  0.5593950000000  0.4472410000000 1.0
C      1  0.5706750000000  0.5581050000000  0.5481940000000 1.0
C      1  0.5637900000000  0.4469410000000  0.4454770000000 1.0
C      1  0.4546950000000  0.4663350000000  0.4502960000000 1.0
C      1  0.4565420000000  0.5077390000000  0.5204350000000 1.0
C      1  0.4543400000000  0.5126170000000  0.4669890000000 1.0
C      1  0.4511330000000  0.4840150000000  0.5403370000000 1.0
C      1  0.4027450000000  0.4862640000000  0.5079390000000 1.0
C      1  0.4064180000000  0.5122980000000  0.4643130000000 1.0
C      1  0.4023610000000  0.5114890000000  0.5206560000000 1.0
C      1  0.4024020000000  0.4877660000000  0.4785470000000 1.0
C      1  0.4946300000000  0.5288150000000  0.4527360000000 1.0
C      1  0.4968580000000  0.4692690000000  0.5489460000000 1.0
C      1  0.5031400000000  0.4789420000000  0.4438470000000 1.0
C      1  0.4936750000000  0.5217200000000  0.5509110000000 1.0
C      1  0.4656370000000  0.5561680000000  0.4817100000000 1.0
C      1  0.4665260000000  0.4424770000000  0.5201260000000 1.0
C      1  0.4724210000000  0.4474690000000  0.4902200000000 1.0
C      1  0.4661160000000  0.5571250000000  0.5114780000000 1.0
C      1  0.5389840000000  0.5408030000000  0.5181920000000 1.0
C      1  0.5397180000000  0.4616280000000  0.4789180000000 1.0
C      1  0.5396140000000  0.4644930000000  0.5217810000000 1.0
C      1  0.5438570000000  0.5450210000000  0.4741460000000 1.0
C      1  0.4443480000000  0.5394410000000  0.4721970000000 1.0
C      1  0.4431320000000  0.4591180000000  0.5282690000000 1.0
C      1  0.4483530000000  0.4516030000000  0.4730460000000 1.0
C      1  0.4448960000000  0.5363340000000  0.5205040000000 1.0
C      1  0.5601510000000  0.5250590000000  0.4207060000000 1.0
C      1  0.5515890000000  0.4925620000000  0.5754080000000 1.0
C      1  0.5525130000000  0.4954610000000  0.4229690000000 1.0
C      1  0.5569520000000  0.5228060000000  0.5774910000000 1.0
C      1  0.4602730000000  0.3902810000000  0.5348840000000 1.0
C      1  0.4499520000000  0.5996800000000  0.4891870000000 1.0
C      1  0.4488440000000  0.5977400000000  0.5172660000000 1.0
C      1  0.4619240000000  0.3913270000000  0.4683980000000 1.0
C      1  0.5724300000000  0.4750620000000  0.5636600000000 1.0
C      1  0.5837710000000  0.5324980000000  0.4360500000000 1.0
C      1  0.5787520000000  0.5324390000000  0.5606760000000 1.0
C      1  0.5709150000000  0.4754870000000  0.4358680000000 1.0
C      1  0.5382980000000  0.5173230000000  0.4676310000000 1.0
C      1  0.5293380000000  0.4909550000000  0.5129100000000 1.0
C      1  0.5322380000000  0.4900780000000  0.4824440000000 1.0
C      1  0.5347380000000  0.5150340000000  0.5287680000000 1.0
C      1  0.4598960000000  0.4225700000000  0.4245160000000 1.0
C      1  0.4629470000000  0.5736110000000  0.5653870000000 1.0
C      1  0.4642030000000  0.5811740000000  0.4387680000000 1.0
C      1  0.4569860000000  0.4211250000000  0.5770750000000 1.0
C      1  0.4178160000000  0.4692370000000  0.3920890000000 1.0
C      1  0.4172750000000  0.5303960000000  0.6010790000000 1.0
C      1  0.4132080000000  0.5137290000000  0.4361510000000 1.0
C      1  0.4159670000000  0.4704150000000  0.6030780000000 1.0
C      1  0.4674420000000  0.4729570000000  0.4062830000000 1.0
C      1  0.4674750000000  0.5270190000000  0.5930300000000 1.0
C      1  0.4607720000000  0.5279580000000  0.4167980000000 1.0
C      1  0.4660450000000  0.4702780000000  0.5916790000000 1.0
C      1  0.4830740000000  0.4759930000000  0.4936020000000 1.0
C      1  0.4973950000000  0.5275410000000  0.5022210000000 1.0
C      1  0.4588590000000  0.4967630000000  0.4909310000000 1.0
END
