TITL C-3623284-6838-1603 1.45744742198079e-05 125000 -56.4103602696159 0 0 11 (C2h) n - 1
REM
REM in /home/nfs/bkarasulu/CARBON/AIRSS/Generating-Clusters/LCBOP/Higher-Symm/SD-CG/FIRE-CG
REM
REM
REM
REM
REM
REM ./C.cell (b20cbc046b6831c77cfcea5457e17084)
REM AIRSS Version 0.9.1 bugfix July 2018 build 013d7b7c2542+ Fri, 06 Jul 2018 19:26:36 +0100
REM compiler GCC version 9.2.1 20190827 (Red Hat 9.2.1-1)
REM options -cpp -mtune=generic -march=x86-64 -g -O0 -fpre-include=/usr/include/finclude/math-vector-fortran.h
REM seed -1425508922 -82602130 -837999457 1563791027 876514180 -311072769 876604568 -1254377621 -1516656717 -67860259 -2016157074 464604967 1146648977 158468396 1796376817 230606856 98488781 -1367756791 -966100217 -757309653 -886848601 380911077 -435179648 -948342699 1613654190 807449851 988064424 -1148108725 -2074536927 137162083 -377124879 1166545545 -1957595567
REM
CELL 1.54180   50.00000   50.00000   50.00000   90.00000   90.00000   90.00000
LATT -1
SFAC C  
C      1  0.4886260000000  0.4797050000000  0.4912420000000 1.0
C      1  0.5203340000000  0.5209850000000  0.5115970000000 1.0
C      1  0.5004920000000  0.4048390000000  0.5184130000000 1.0
C      1  0.5084590000000  0.5958530000000  0.4844360000000 1.0
C      1  0.4925560000000  0.4536230000000  0.5005190000000 1.0
C      1  0.5164020000000  0.5470680000000  0.5023240000000 1.0
C      1  0.4694880000000  0.4849650000000  0.4724230000000 1.0
C      1  0.5394750000000  0.5157240000000  0.5304130000000 1.0
C      1  0.5124100000000  0.5716630000000  0.4933170000000 1.0
C      1  0.4965440000000  0.4290280000000  0.5095290000000 1.0
C      1  0.5044800000000  0.5003450000000  0.5014200000000 1.0
END
