TITL C-3623285-6872-1464 -0.0398364017731138 125000 -576.513228355715 0 0 96 (C1) n - 1
REM
REM in /home/nfs/bkarasulu/CARBON/AIRSS/Generating-Clusters/LCBOP/Higher-Symm/SD-CG/FIRE-CG
REM
REM
REM
REM
REM
REM ./C.cell (b20cbc046b6831c77cfcea5457e17084)
REM AIRSS Version 0.9.1 bugfix July 2018 build 013d7b7c2542+ Fri, 06 Jul 2018 19:26:36 +0100
REM compiler GCC version 9.2.1 20190827 (Red Hat 9.2.1-1)
REM options -cpp -mtune=generic -march=x86-64 -g -O0 -fpre-include=/usr/include/finclude/math-vector-fortran.h
REM seed -225986478 -676861503 1308175839 280944544 -1064049226 194671392 1529761803 -85887496 319740985 -792430579 931813036 -803738305 1087337437 869464297 105813207 -2009892819 134072673 -1719803876 -1838991678 1309357940 1318326346 -1012929615 -1575258477 1099612593 -400679658 1342087948 -17633787 -339879748 -1296102725 426586167 -484972141 -922128397 1652202999
REM
CELL 1.54180   50.00000   50.00000   50.00000   90.00000   90.00000   90.00000
LATT -1
SFAC C  
C      1  0.4766760000000  0.4465750000000  0.4518040000000 1.0
C      1  0.4678070000000  0.5465290000000  0.5554840000000 1.0
C      1  0.5241030000000  0.5538690000000  0.4506950000000 1.0
C      1  0.5313910000000  0.4493180000000  0.5577770000000 1.0
C      1  0.3987850000000  0.5097980000000  0.4569420000000 1.0
C      1  0.3875560000000  0.4912070000000  0.5302710000000 1.0
C      1  0.6003010000000  0.4889320000000  0.4571990000000 1.0
C      1  0.6104150000000  0.5087320000000  0.5303110000000 1.0
C      1  0.4564340000000  0.4251890000000  0.4898480000000 1.0
C      1  0.4587730000000  0.5693510000000  0.5144590000000 1.0
C      1  0.5459410000000  0.5752030000000  0.4875610000000 1.0
C      1  0.5402290000000  0.4308190000000  0.5144300000000 1.0
C      1  0.4690690000000  0.5607980000000  0.4879370000000 1.0
C      1  0.4587820000000  0.4346270000000  0.5178660000000 1.0
C      1  0.5297970000000  0.4397690000000  0.4884660000000 1.0
C      1  0.5416870000000  0.5679660000000  0.5159580000000 1.0
C      1  0.6159080000000  0.4942520000000  0.4791890000000 1.0
C      1  0.6195430000000  0.5014200000000  0.5054370000000 1.0
C      1  0.3828310000000  0.5043020000000  0.4786610000000 1.0
C      1  0.3788290000000  0.4975540000000  0.5049820000000 1.0
C      1  0.5737550000000  0.4918960000000  0.4446570000000 1.0
C      1  0.5873860000000  0.5093180000000  0.5487840000000 1.0
C      1  0.4256990000000  0.5073410000000  0.4450480000000 1.0
C      1  0.4101330000000  0.4914240000000  0.5492530000000 1.0
C      1  0.5468710000000  0.5606000000000  0.4124940000000 1.0
C      1  0.5663670000000  0.4409090000000  0.5856890000000 1.0
C      1  0.4537310000000  0.4389550000000  0.4137630000000 1.0
C      1  0.4370970000000  0.5568220000000  0.5870870000000 1.0
C      1  0.4225360000000  0.5344290000000  0.5799760000000 1.0
C      1  0.4405480000000  0.4629680000000  0.4176010000000 1.0
C      1  0.5779910000000  0.4652240000000  0.5794830000000 1.0
C      1  0.5596490000000  0.5363430000000  0.4165050000000 1.0
C      1  0.4101330000000  0.4322790000000  0.5226880000000 1.0
C      1  0.4235910000000  0.5666620000000  0.4708230000000 1.0
C      1  0.5902540000000  0.5676830000000  0.5215410000000 1.0
C      1  0.5751140000000  0.4336140000000  0.4715850000000 1.0
C      1  0.5800850000000  0.4672940000000  0.5067550000000 1.0
C      1  0.5833460000000  0.5338980000000  0.4867190000000 1.0
C      1  0.4166220000000  0.5331770000000  0.5061360000000 1.0
C      1  0.4168750000000  0.4656170000000  0.4876040000000 1.0
C      1  0.4327280000000  0.4784520000000  0.4405860000000 1.0
C      1  0.4186350000000  0.5196430000000  0.5555920000000 1.0
C      1  0.5675430000000  0.5208970000000  0.4395520000000 1.0
C      1  0.5786860000000  0.4813040000000  0.5556270000000 1.0
C      1  0.5294570000000  0.5745200000000  0.4309830000000 1.0
C      1  0.5438970000000  0.4279350000000  0.5730010000000 1.0
C      1  0.4713930000000  0.4256640000000  0.4323620000000 1.0
C      1  0.4599640000000  0.5680130000000  0.5734640000000 1.0
C      1  0.4472040000000  0.5271770000000  0.4553620000000 1.0
C      1  0.4318360000000  0.4697360000000  0.5450230000000 1.0
C      1  0.5516020000000  0.4727550000000  0.4548900000000 1.0
C      1  0.5663390000000  0.5316680000000  0.5437840000000 1.0
C      1  0.5311040000000  0.5987360000000  0.4770630000000 1.0
C      1  0.5320820000000  0.4059150000000  0.5272190000000 1.0
C      1  0.4712390000000  0.4022080000000  0.4788650000000 1.0
C      1  0.4730270000000  0.5911060000000  0.5289120000000 1.0
C      1  0.5697140000000  0.4657120000000  0.5327890000000 1.0
C      1  0.5680140000000  0.5375590000000  0.4634860000000 1.0
C      1  0.4264650000000  0.5355490000000  0.5323630000000 1.0
C      1  0.4327900000000  0.4620910000000  0.4647710000000 1.0
C      1  0.4716000000000  0.4017870000000  0.4493490000000 1.0
C      1  0.4663140000000  0.5918310000000  0.5575590000000 1.0
C      1  0.5295340000000  0.5987210000000  0.4476660000000 1.0
C      1  0.5397540000000  0.4046800000000  0.5555580000000 1.0
C      1  0.5448920000000  0.4522300000000  0.5332260000000 1.0
C      1  0.5452220000000  0.5530480000000  0.4693030000000 1.0
C      1  0.4519960000000  0.5476850000000  0.5321690000000 1.0
C      1  0.4558840000000  0.4471030000000  0.4708530000000 1.0
C      1  0.4966970000000  0.5541600000000  0.4949210000000 1.0
C      1  0.4855570000000  0.4455610000000  0.5171180000000 1.0
C      1  0.5033940000000  0.4482570000000  0.4962890000000 1.0
C      1  0.5126810000000  0.5675090000000  0.5163000000000 1.0
C      1  0.4021230000000  0.4446360000000  0.4997120000000 1.0
C      1  0.4083760000000  0.5553720000000  0.4904870000000 1.0
C      1  0.5983640000000  0.5546030000000  0.4989940000000 1.0
C      1  0.5894220000000  0.4449840000000  0.4918920000000 1.0
C      1  0.5652160000000  0.5599900000000  0.5334500000000 1.0
C      1  0.5492130000000  0.4447010000000  0.4656650000000 1.0
C      1  0.4345050000000  0.4413770000000  0.5349370000000 1.0
C      1  0.4495290000000  0.5555090000000  0.4652630000000 1.0
C      1  0.4728680000000  0.4931230000000  0.5188460000000 1.0
C      1  0.4767100000000  0.5051690000000  0.4947900000000 1.0
C      1  0.5249190000000  0.5110850000000  0.5157100000000 1.0
C      1  0.5214420000000  0.4981510000000  0.4919890000000 1.0
C      1  0.4299350000000  0.5116170000000  0.4935360000000 1.0
C      1  0.4280550000000  0.4860110000000  0.5036870000000 1.0
C      1  0.5677230000000  0.4887470000000  0.4932810000000 1.0
C      1  0.5706620000000  0.5144310000000  0.5028810000000 1.0
C      1  0.5430580000000  0.4871030000000  0.4784320000000 1.0
C      1  0.5505630000000  0.5191100000000  0.5231520000000 1.0
C      1  0.4551030000000  0.5137400000000  0.4795920000000 1.0
C      1  0.4476260000000  0.4828690000000  0.5247980000000 1.0
C      1  0.5117050000000  0.3914840000000  0.5134070000000 1.0
C      1  0.5119770000000  0.6094080000000  0.4963290000000 1.0
C      1  0.4996820000000  0.5943550000000  0.5181830000000 1.0
C      1  0.4913420000000  0.3905500000000  0.4955130000000 1.0
END
