TITL C-3623289-7120-608 2.02134647280909e-05 125000 -503.28964421226 0 0 80 (D3d) n - 1
REM
REM in /home/nfs/bkarasulu/CARBON/AIRSS/Generating-Clusters/LCBOP/Higher-Symm/SD-CG/FIRE-CG
REM
REM
REM
REM
REM
REM ./C.cell (b20cbc046b6831c77cfcea5457e17084)
REM AIRSS Version 0.9.1 bugfix July 2018 build 013d7b7c2542+ Fri, 06 Jul 2018 19:26:36 +0100
REM compiler GCC version 9.2.1 20190827 (Red Hat 9.2.1-1)
REM options -cpp -mtune=generic -march=x86-64 -g -O0 -fpre-include=/usr/include/finclude/math-vector-fortran.h
REM seed 406290465 -1435266473 -76813071 -1465046603 1193800221 1569786437 -1263129397 -1072970749 1573224118 -1701155547 -1926037125 -465305544 611741625 637029305 -1619147446 -680619191 -2007788416 -1225673988 -1182608677 770588872 -1028540711 178300232 1232977558 1600068087 359155350 -1417116240 2027316847 -750225664 1862963671 1700525049 -1428316477 -1809560868 2113123672
REM
CELL 1.54180   50.00000   50.00000   50.00000   90.00000   90.00000   90.00000
LATT -1
SFAC C  
C      1  0.4211050000000  0.4889520000000  0.4254300000000 1.0
C      1  0.5788960000000  0.5592510000000  0.4537720000000 1.0
C      1  0.4211050000000  0.5698580000000  0.5288250000000 1.0
C      1  0.5788950000000  0.5101620000000  0.5755360000000 1.0
C      1  0.4211040000000  0.4398620000000  0.5471950000000 1.0
C      1  0.5788950000000  0.4292550000000  0.4721410000000 1.0
C      1  0.5164600000000  0.3702700000000  0.4979860000000 1.0
C      1  0.4835380000000  0.4370760000000  0.3872690000000 1.0
C      1  0.5164620000000  0.5663620000000  0.3897660000000 1.0
C      1  0.4835400000000  0.6288430000000  0.5029800000000 1.0
C      1  0.5164620000000  0.5620370000000  0.6136970000000 1.0
C      1  0.4835380000000  0.4327510000000  0.6112000000000 1.0
C      1  0.4684970000000  0.4182860000000  0.5948230000000 1.0
C      1  0.5315010000000  0.3772200000000  0.4772700000000 1.0
C      1  0.4684980000000  0.4584920000000  0.3829300000000 1.0
C      1  0.5315030000000  0.5808270000000  0.4061430000000 1.0
C      1  0.4684990000000  0.6218930000000  0.5236960000000 1.0
C      1  0.5315020000000  0.5406220000000  0.6180360000000 1.0
C      1  0.5313200000000  0.4685630000000  0.4879880000000 1.0
C      1  0.4686800000000  0.4948810000000  0.4673940000000 1.0
C      1  0.5313200000000  0.5258740000000  0.4798890000000 1.0
C      1  0.4686800000000  0.5305500000000  0.5129780000000 1.0
C      1  0.5313200000000  0.5042320000000  0.5335720000000 1.0
C      1  0.4686800000000  0.4732390000000  0.5210770000000 1.0
C      1  0.4684980000000  0.5064420000000  0.3761550000000 1.0
C      1  0.5315030000000  0.6106710000000  0.4442820000000 1.0
C      1  0.4684990000000  0.6037860000000  0.5686100000000 1.0
C      1  0.5315020000000  0.4926710000000  0.6248120000000 1.0
C      1  0.4684970000000  0.3884430000000  0.5566850000000 1.0
C      1  0.5315010000000  0.3953270000000  0.4323560000000 1.0
C      1  0.5770080000000  0.5064450000000  0.5492330000000 1.0
C      1  0.4229920000000  0.4607830000000  0.5308240000000 1.0
C      1  0.5770070000000  0.4538920000000  0.4820740000000 1.0
C      1  0.4229920000000  0.4926680000000  0.4517330000000 1.0
C      1  0.5770080000000  0.5383300000000  0.4701420000000 1.0
C      1  0.4229930000000  0.5452210000000  0.5188920000000 1.0
C      1  0.4999990000000  0.4189120000000  0.3974230000000 1.0
C      1  0.5000010000000  0.5484870000000  0.3791130000000 1.0
C      1  0.5000010000000  0.6291320000000  0.4821730000000 1.0
C      1  0.5000010000000  0.5802010000000  0.6035430000000 1.0
C      1  0.4999990000000  0.4506260000000  0.6218530000000 1.0
C      1  0.4999990000000  0.3699820000000  0.5187930000000 1.0
C      1  0.4561480000000  0.4833880000000  0.3860620000000 1.0
C      1  0.5438530000000  0.5905630000000  0.4292700000000 1.0
C      1  0.4561490000000  0.6067330000000  0.5436910000000 1.0
C      1  0.5438520000000  0.5157250000000  0.6149040000000 1.0
C      1  0.4561470000000  0.4085500000000  0.5716960000000 1.0
C      1  0.5438510000000  0.3923810000000  0.4572750000000 1.0
C      1  0.4857720000000  0.5363210000000  0.4902650000000 1.0
C      1  0.5142280000000  0.5267880000000  0.5272130000000 1.0
C      1  0.4857720000000  0.4900240000000  0.5374320000000 1.0
C      1  0.5142280000000  0.4627920000000  0.5107020000000 1.0
C      1  0.4857720000000  0.4723250000000  0.4737530000000 1.0
C      1  0.5142280000000  0.5090890000000  0.4635350000000 1.0
C      1  0.5591100000000  0.4736510000000  0.4900400000000 1.0
C      1  0.4408900000000  0.4956490000000  0.4728270000000 1.0
C      1  0.5591110000000  0.5215530000000  0.4832710000000 1.0
C      1  0.4408900000000  0.5254620000000  0.5109270000000 1.0
C      1  0.5591100000000  0.5034640000000  0.5281390000000 1.0
C      1  0.4408890000000  0.4775600000000  0.5176960000000 1.0
C      1  0.5164600000000  0.4046880000000  0.4126120000000 1.0
C      1  0.4835390000000  0.5282210000000  0.3743900000000 1.0
C      1  0.5164620000000  0.6230890000000  0.4622600000000 1.0
C      1  0.4835400000000  0.5944250000000  0.5883540000000 1.0
C      1  0.5164610000000  0.4708920000000  0.6265770000000 1.0
C      1  0.4835380000000  0.3760240000000  0.5387060000000 1.0
C      1  0.4857720000000  0.5183160000000  0.4672540000000 1.0
C      1  0.5142290000000  0.5377130000000  0.5001140000000 1.0
C      1  0.4857720000000  0.5189540000000  0.5333430000000 1.0
C      1  0.5142280000000  0.4807970000000  0.5337120000000 1.0
C      1  0.4857710000000  0.4614000000000  0.5008520000000 1.0
C      1  0.5142280000000  0.4801590000000  0.4676230000000 1.0
C      1  0.5667710000000  0.5134730000000  0.5989720000000 1.0
C      1  0.4332290000000  0.4212220000000  0.5617800000000 1.0
C      1  0.5667700000000  0.4073030000000  0.4632920000000 1.0
C      1  0.4332290000000  0.4856400000000  0.4019940000000 1.0
C      1  0.5667710000000  0.5778910000000  0.4391860000000 1.0
C      1  0.4332300000000  0.5918100000000  0.5376750000000 1.0
C      1  0.5652870000000  0.4995560000000  0.5004830000000 1.0
C      1  0.4347130000000  0.4995570000000  0.5004830000000 1.0
END
