TITL C-3623283-6828-640 -6.11511597499156e-07 125000 -741.249739273922 0 0 125 (C1) n - 1
REM
REM in /home/nfs/bkarasulu/CARBON/AIRSS/Generating-Clusters/LCBOP/Higher-Symm/SD-CG/FIRE-CG
REM
REM
REM
REM
REM
REM ./C.cell (b20cbc046b6831c77cfcea5457e17084)
REM AIRSS Version 0.9.1 bugfix July 2018 build 013d7b7c2542+ Fri, 06 Jul 2018 19:26:36 +0100
REM compiler GCC version 9.2.1 20190827 (Red Hat 9.2.1-1)
REM options -cpp -mtune=generic -march=x86-64 -g -O0 -fpre-include=/usr/include/finclude/math-vector-fortran.h
REM seed -1779273601 1452338674 -1809310368 312897441 -272673766 688369146 177254779 904985150 -89133260 1013086147 -1697891615 1709183033 -1894885120 2127177931 -810232182 -1411193120 -35118704 2032209494 1382446652 -1178270441 -1309455388 -1986265341 -1256098870 468555248 -393832978 470086264 -475153723 183230734 1022764175 1769754063 -812202702 -245416878 -189244898
REM
CELL 1.54180   50.00000   50.00000   50.00000   90.00000   90.00000   90.00000
LATT -1
SFAC C  
C      1  0.5297760000000  0.5648380000000  0.4312340000000 1.0
C      1  0.5710140000000  0.4923070000000  0.4306570000000 1.0
C      1  0.5146950000000  0.4306170000000  0.4308080000000 1.0
C      1  0.4383850000000  0.4650610000000  0.4309320000000 1.0
C      1  0.4476360000000  0.5483180000000  0.4312890000000 1.0
C      1  0.5301340000000  0.4352120000000  0.5695610000000 1.0
C      1  0.5709230000000  0.5084020000000  0.5696580000000 1.0
C      1  0.5143620000000  0.5697990000000  0.5701700000000 1.0
C      1  0.4383880000000  0.5350380000000  0.5700010000000 1.0
C      1  0.4479750000000  0.4517600000000  0.5695340000000 1.0
C      1  0.4503910000000  0.4721530000000  0.4870500000000 1.0
C      1  0.4584660000000  0.5378650000000  0.4872410000000 1.0
C      1  0.5227430000000  0.5513120000000  0.4871750000000 1.0
C      1  0.5572480000000  0.4933690000000  0.4870730000000 1.0
C      1  0.5119440000000  0.4442080000000  0.4868620000000 1.0
C      1  0.4503950000000  0.5281660000000  0.5138720000000 1.0
C      1  0.4586740000000  0.4624550000000  0.5136240000000 1.0
C      1  0.5236170000000  0.4488530000000  0.5135390000000 1.0
C      1  0.5559650000000  0.5058200000000  0.5137100000000 1.0
C      1  0.5112880000000  0.5563160000000  0.5138070000000 1.0
C      1  0.4426390000000  0.4925630000000  0.5440010000000 1.0
C      1  0.4753190000000  0.5528270000000  0.5441600000000 1.0
C      1  0.5411270000000  0.5393640000000  0.5439240000000 1.0
C      1  0.5514310000000  0.4724360000000  0.5440000000000 1.0
C      1  0.4901120000000  0.4433780000000  0.5437870000000 1.0
C      1  0.4425170000000  0.5076190000000  0.4569290000000 1.0
C      1  0.4755780000000  0.4478450000000  0.4568650000000 1.0
C      1  0.5430620000000  0.4602390000000  0.4566200000000 1.0
C      1  0.5501280000000  0.5269710000000  0.4569790000000 1.0
C      1  0.4896060000000  0.5570720000000  0.4569250000000 1.0
C      1  0.5827670000000  0.5789900000000  0.5211230000000 1.0
C      1  0.6006870000000  0.4423100000000  0.5227170000000 1.0
C      1  0.4766940000000  0.3869870000000  0.5225320000000 1.0
C      1  0.3868470000000  0.4838220000000  0.5226190000000 1.0
C      1  0.4481050000000  0.6019350000000  0.5218640000000 1.0
C      1  0.5812180000000  0.4191990000000  0.4789400000000 1.0
C      1  0.6005920000000  0.5545500000000  0.4797410000000 1.0
C      1  0.4762150000000  0.6132790000000  0.4781370000000 1.0
C      1  0.3867160000000  0.5162210000000  0.4784450000000 1.0
C      1  0.4485170000000  0.3984440000000  0.4788700000000 1.0
C      1  0.4360920000000  0.5914200000000  0.4974640000000 1.0
C      1  0.5682800000000  0.5878610000000  0.4974220000000 1.0
C      1  0.6075190000000  0.4531440000000  0.4982810000000 1.0
C      1  0.4889440000000  0.3838740000000  0.4980070000000 1.0
C      1  0.3873590000000  0.4726990000000  0.4972470000000 1.0
C      1  0.4365190000000  0.4087900000000  0.5033500000000 1.0
C      1  0.5674670000000  0.4109550000000  0.5033110000000 1.0
C      1  0.6046460000000  0.5380610000000  0.5034500000000 1.0
C      1  0.4885490000000  0.6164410000000  0.5026120000000 1.0
C      1  0.3872340000000  0.5273460000000  0.5038170000000 1.0
C      1  0.5530010000000  0.4547630000000  0.5183660000000 1.0
C      1  0.4736450000000  0.4362980000000  0.5181890000000 1.0
C      1  0.4302610000000  0.5064030000000  0.5183180000000 1.0
C      1  0.4845200000000  0.5687580000000  0.5181630000000 1.0
C      1  0.5586630000000  0.5356200000000  0.5181490000000 1.0
C      1  0.5519310000000  0.5448040000000  0.4827400000000 1.0
C      1  0.4732400000000  0.5640380000000  0.4825070000000 1.0
C      1  0.4302500000000  0.4938330000000  0.4826200000000 1.0
C      1  0.4849210000000  0.4317490000000  0.4827700000000 1.0
C      1  0.5609630000000  0.4640980000000  0.4826650000000 1.0
C      1  0.5241010000000  0.4192690000000  0.5236620000000 1.0
C      1  0.4308580000000  0.4525060000000  0.5238410000000 1.0
C      1  0.4337920000000  0.5522180000000  0.5244530000000 1.0
C      1  0.5294610000000  0.5792010000000  0.5243850000000 1.0
C      1  0.5845000000000  0.4981540000000  0.5238550000000 1.0
C      1  0.5241310000000  0.5808260000000  0.4770370000000 1.0
C      1  0.4305800000000  0.5476050000000  0.4770920000000 1.0
C      1  0.4339310000000  0.4480090000000  0.4764830000000 1.0
C      1  0.5295320000000  0.4208980000000  0.4762840000000 1.0
C      1  0.5845650000000  0.5037350000000  0.4764890000000 1.0
C      1  0.4584740000000  0.5905570000000  0.4780720000000 1.0
C      1  0.5739580000000  0.5658550000000  0.4785140000000 1.0
C      1  0.5868200000000  0.4479170000000  0.4788330000000 1.0
C      1  0.4775570000000  0.4020820000000  0.4786720000000 1.0
C      1  0.4001620000000  0.4904120000000  0.4781600000000 1.0
C      1  0.4589380000000  0.4096980000000  0.5227010000000 1.0
C      1  0.5735860000000  0.4324840000000  0.5227330000000 1.0
C      1  0.5854250000000  0.5501810000000  0.5223590000000 1.0
C      1  0.4771390000000  0.5983610000000  0.5220310000000 1.0
C      1  0.4001700000000  0.5096960000000  0.5228700000000 1.0
C      1  0.4885480000000  0.5225760000000  0.4202220000000 1.0
C      1  0.5176970000000  0.5179610000000  0.4200260000000 1.0
C      1  0.5226270000000  0.4887760000000  0.4201470000000 1.0
C      1  0.4962820000000  0.4753650000000  0.4202430000000 1.0
C      1  0.4752580000000  0.4962020000000  0.4203040000000 1.0
C      1  0.4888340000000  0.4775210000000  0.5805810000000 1.0
C      1  0.5180560000000  0.4820530000000  0.5806400000000 1.0
C      1  0.5225440000000  0.5112260000000  0.5808260000000 1.0
C      1  0.4962290000000  0.5248050000000  0.5806990000000 1.0
C      1  0.4753590000000  0.5038480000000  0.5806060000000 1.0
C      1  0.5362190000000  0.4631660000000  0.5685180000000 1.0
C      1  0.4764060000000  0.4545930000000  0.5683990000000 1.0
C      1  0.4495880000000  0.5087850000000  0.5686740000000 1.0
C      1  0.4929370000000  0.5509240000000  0.5688180000000 1.0
C      1  0.5460160000000  0.5223740000000  0.5685510000000 1.0
C      1  0.5354850000000  0.5368620000000  0.4323400000000 1.0
C      1  0.4760920000000  0.5455580000000  0.4323860000000 1.0
C      1  0.4494860000000  0.4913550000000  0.4322690000000 1.0
C      1  0.4932130000000  0.4493700000000  0.4322180000000 1.0
C      1  0.5465110000000  0.4776460000000  0.4320040000000 1.0
C      1  0.4815160000000  0.4808360000000  0.4715920000000 1.0
C      1  0.4764980000000  0.5115010000000  0.4716690000000 1.0
C      1  0.5035720000000  0.5254580000000  0.4716990000000 1.0
C      1  0.5260420000000  0.5041310000000  0.4713800000000 1.0
C      1  0.5128410000000  0.4766930000000  0.4716820000000 1.0
C      1  0.4816340000000  0.5192320000000  0.5292130000000 1.0
C      1  0.4762880000000  0.4885740000000  0.5292090000000 1.0
C      1  0.5041580000000  0.4742020000000  0.5293000000000 1.0
C      1  0.5254900000000  0.4955310000000  0.5291700000000 1.0
C      1  0.5120360000000  0.5234320000000  0.5294860000000 1.0
C      1  0.5125600000000  0.5761510000000  0.4509520000000 1.0
C      1  0.5758080000000  0.5122180000000  0.4503640000000 1.0
C      1  0.5354160000000  0.4316650000000  0.4502380000000 1.0
C      1  0.4460110000000  0.4458090000000  0.4504210000000 1.0
C      1  0.4316140000000  0.5353400000000  0.4509730000000 1.0
C      1  0.5128240000000  0.4241110000000  0.5498120000000 1.0
C      1  0.5765200000000  0.4885660000000  0.5499460000000 1.0
C      1  0.5348520000000  0.5683080000000  0.5505260000000 1.0
C      1  0.4457860000000  0.5544030000000  0.5505410000000 1.0
C      1  0.4318420000000  0.4647680000000  0.5499570000000 1.0
C      1  0.5399590000000  0.5920200000000  0.4998910000000 1.0
C      1  0.5391670000000  0.4075840000000  0.5007910000000 1.0
C      1  0.5999780000000  0.5098150000000  0.5009890000000 1.0
C      1  0.4241640000000  0.5655620000000  0.4999540000000 1.0
C      1  0.4244560000000  0.4345800000000  0.5009700000000 1.0
END
