TITL C-3623282-6910-1032 -0.0133626696602095 125000 -1186.62006292353 0 0 194 (C1) n - 1
REM
REM in /home/nfs/bkarasulu/CARBON/AIRSS/Generating-Clusters/LCBOP/Higher-Symm/SD-CG/FIRE-CG
REM
REM
REM
REM
REM
REM ./C.cell (b20cbc046b6831c77cfcea5457e17084)
REM AIRSS Version 0.9.1 bugfix July 2018 build 013d7b7c2542+ Fri, 06 Jul 2018 19:26:36 +0100
REM compiler GCC version 9.2.1 20190827 (Red Hat 9.2.1-1)
REM options -cpp -mtune=generic -march=x86-64 -g -O0 -fpre-include=/usr/include/finclude/math-vector-fortran.h
REM seed -706127843 -1180215174 -1897308376 1838718327 476535803 1025537481 1577148774 889951043 -1599448019 -1595836463 487262656 -34115300 1240880944 529508383 -598307298 139211996 -962372605 -86881319 193115302 1629209357 -1188196722 -1107254332 646171287 -767705178 -762363488 -521293186 713475310 -734488419 520333218 836170873 468605863 -2111113046 -804892497
REM
CELL 1.54180   50.00000   50.00000   50.00000   90.00000   90.00000   90.00000
LATT -1
SFAC C  
C      1  0.5995790000000  0.4363880000000  0.5098660000000 1.0
C      1  0.3771550000000  0.4320160000000  0.5089830000000 1.0
C      1  0.5969970000000  0.5691670000000  0.4904550000000 1.0
C      1  0.4015280000000  0.5638540000000  0.5092040000000 1.0
C      1  0.4808660000000  0.5087620000000  0.6022500000000 1.0
C      1  0.5202750000000  0.4995160000000  0.3818370000000 1.0
C      1  0.4927040000000  0.4926990000000  0.3805150000000 1.0
C      1  0.5051380000000  0.4987570000000  0.6085760000000 1.0
C      1  0.5705010000000  0.4361230000000  0.5158270000000 1.0
C      1  0.4441170000000  0.4361910000000  0.4796350000000 1.0
C      1  0.5680230000000  0.5641740000000  0.4844330000000 1.0
C      1  0.4304300000000  0.5645050000000  0.5161020000000 1.0
C      1  0.4586210000000  0.3929220000000  0.4958780000000 1.0
C      1  0.5436780000000  0.3944160000000  0.5064730000000 1.0
C      1  0.4555050000000  0.6071260000000  0.5078470000000 1.0
C      1  0.5421690000000  0.6050440000000  0.4979410000000 1.0
C      1  0.4965870000000  0.5210560000000  0.4413700000000 1.0
C      1  0.5220700000000  0.5183140000000  0.5529270000000 1.0
C      1  0.4812100000000  0.4799790000000  0.5463430000000 1.0
C      1  0.5189630000000  0.4719250000000  0.4398840000000 1.0
C      1  0.5794250000000  0.4659590000000  0.4121750000000 1.0
C      1  0.4230510000000  0.4671430000000  0.5880950000000 1.0
C      1  0.5775140000000  0.5360190000000  0.5899180000000 1.0
C      1  0.4367470000000  0.5306560000000  0.4133450000000 1.0
C      1  0.5609950000000  0.6148620000000  0.4493370000000 1.0
C      1  0.4183250000000  0.6094790000000  0.5555990000000 1.0
C      1  0.5803430000000  0.3907970000000  0.5550000000000 1.0
C      1  0.4182400000000  0.3939270000000  0.4540910000000 1.0
C      1  0.4913490000000  0.4053010000000  0.4624730000000 1.0
C      1  0.5091620000000  0.4089190000000  0.5375810000000 1.0
C      1  0.4891680000000  0.5914020000000  0.5387930000000 1.0
C      1  0.5041670000000  0.5825080000000  0.4779910000000 1.0
C      1  0.4432170000000  0.4833910000000  0.5029150000000 1.0
C      1  0.5535750000000  0.4841140000000  0.4920560000000 1.0
C      1  0.4421860000000  0.5115240000000  0.4909850000000 1.0
C      1  0.5518640000000  0.5119130000000  0.5049810000000 1.0
C      1  0.6089520000000  0.5556840000000  0.5133560000000 1.0
C      1  0.3908150000000  0.5513230000000  0.4854750000000 1.0
C      1  0.6107650000000  0.4488920000000  0.4865060000000 1.0
C      1  0.3733570000000  0.4488200000000  0.5295180000000 1.0
C      1  0.5264970000000  0.3945660000000  0.4336540000000 1.0
C      1  0.4742300000000  0.4006670000000  0.5676840000000 1.0
C      1  0.5248420000000  0.6005200000000  0.5680820000000 1.0
C      1  0.4844670000000  0.6077940000000  0.4399590000000 1.0
C      1  0.4669170000000  0.5434720000000  0.3756990000000 1.0
C      1  0.5392820000000  0.5466060000000  0.6299030000000 1.0
C      1  0.4612360000000  0.4563640000000  0.6270010000000 1.0
C      1  0.4871840000000  0.4681720000000  0.3678780000000 1.0
C      1  0.4910870000000  0.5581690000000  0.4732840000000 1.0
C      1  0.5019830000000  0.5704170000000  0.5243130000000 1.0
C      1  0.4931220000000  0.4271880000000  0.5227670000000 1.0
C      1  0.5073910000000  0.4243170000000  0.4764400000000 1.0
C      1  0.5625120000000  0.4494170000000  0.5434010000000 1.0
C      1  0.4475620000000  0.4508170000000  0.4541250000000 1.0
C      1  0.5624400000000  0.5523850000000  0.4566900000000 1.0
C      1  0.4380370000000  0.5516770000000  0.5435120000000 1.0
C      1  0.3980730000000  0.4042510000000  0.4685240000000 1.0
C      1  0.6032860000000  0.4009170000000  0.5452690000000 1.0
C      1  0.3960110000000  0.5989150000000  0.5449160000000 1.0
C      1  0.5856920000000  0.6079320000000  0.4585860000000 1.0
C      1  0.5815650000000  0.4444330000000  0.4311070000000 1.0
C      1  0.4196120000000  0.4480230000000  0.5666100000000 1.0
C      1  0.5800820000000  0.5545190000000  0.5674320000000 1.0
C      1  0.4462010000000  0.5519820000000  0.4299550000000 1.0
C      1  0.5262870000000  0.4735000000000  0.4910770000000 1.0
C      1  0.4705340000000  0.4722220000000  0.5001530000000 1.0
C      1  0.5240720000000  0.5209750000000  0.5021700000000 1.0
C      1  0.4698080000000  0.5180550000000  0.4913740000000 1.0
C      1  0.5535850000000  0.3893490000000  0.5521890000000 1.0
C      1  0.4446690000000  0.3889740000000  0.4512830000000 1.0
C      1  0.5325910000000  0.6118740000000  0.4517520000000 1.0
C      1  0.4451090000000  0.6117080000000  0.5535220000000 1.0
C      1  0.5247210000000  0.4923780000000  0.5635150000000 1.0
C      1  0.4820380000000  0.4996200000000  0.4283500000000 1.0
C      1  0.5324820000000  0.4945920000000  0.4280160000000 1.0
C      1  0.4763400000000  0.5078990000000  0.5513110000000 1.0
C      1  0.4872650000000  0.5606290000000  0.3816730000000 1.0
C      1  0.5126610000000  0.5548600000000  0.6259920000000 1.0
C      1  0.4874230000000  0.4471990000000  0.6232980000000 1.0
C      1  0.4965150000000  0.4440620000000  0.3753290000000 1.0
C      1  0.4099280000000  0.4917420000000  0.5810050000000 1.0
C      1  0.5913580000000  0.4900870000000  0.4225800000000 1.0
C      1  0.4182440000000  0.5113980000000  0.4236750000000 1.0
C      1  0.5895820000000  0.5118990000000  0.5787770000000 1.0
C      1  0.6114790000000  0.5385450000000  0.5351210000000 1.0
C      1  0.3898000000000  0.5354970000000  0.4629820000000 1.0
C      1  0.6135630000000  0.4652420000000  0.4647220000000 1.0
C      1  0.3773290000000  0.4685700000000  0.5472850000000 1.0
C      1  0.5490100000000  0.6290640000000  0.5089130000000 1.0
C      1  0.4543920000000  0.6311070000000  0.4948580000000 1.0
C      1  0.5426650000000  0.3705140000000  0.4932540000000 1.0
C      1  0.4602480000000  0.3706050000000  0.5114050000000 1.0
C      1  0.4605030000000  0.5593760000000  0.5641940000000 1.0
C      1  0.5417830000000  0.5631340000000  0.4366080000000 1.0
C      1  0.4737100000000  0.4492210000000  0.4370160000000 1.0
C      1  0.5400200000000  0.4408570000000  0.5635850000000 1.0
C      1  0.4899120000000  0.4280140000000  0.4213930000000 1.0
C      1  0.5141160000000  0.4318680000000  0.5781750000000 1.0
C      1  0.4859470000000  0.5687340000000  0.5795640000000 1.0
C      1  0.5187680000000  0.5770110000000  0.4218590000000 1.0
C      1  0.5056910000000  0.5569920000000  0.5977150000000 1.0
C      1  0.4947870000000  0.5666410000000  0.4081700000000 1.0
C      1  0.5080300000000  0.4360770000000  0.3996320000000 1.0
C      1  0.4945440000000  0.4449800000000  0.5951670000000 1.0
C      1  0.5782820000000  0.5321400000000  0.3974010000000 1.0
C      1  0.4231710000000  0.5349500000000  0.6029830000000 1.0
C      1  0.5762500000000  0.4698940000000  0.6030670000000 1.0
C      1  0.4261370000000  0.4687910000000  0.3973430000000 1.0
C      1  0.6035030000000  0.5156560000000  0.5521690000000 1.0
C      1  0.4012110000000  0.5136760000000  0.4476840000000 1.0
C      1  0.6048670000000  0.4876640000000  0.4487480000000 1.0
C      1  0.3926270000000  0.4901720000000  0.5569960000000 1.0
C      1  0.4060910000000  0.4880870000000  0.4628670000000 1.0
C      1  0.5978580000000  0.4906460000000  0.5374300000000 1.0
C      1  0.4010640000000  0.5111180000000  0.5382160000000 1.0
C      1  0.5982460000000  0.5121780000000  0.4636080000000 1.0
C      1  0.5568770000000  0.4177180000000  0.4965780000000 1.0
C      1  0.4464530000000  0.4180250000000  0.5028300000000 1.0
C      1  0.5541210000000  0.5803270000000  0.5049800000000 1.0
C      1  0.4446850000000  0.5828640000000  0.4977450000000 1.0
C      1  0.5582910000000  0.4187350000000  0.4676120000000 1.0
C      1  0.4431620000000  0.4223060000000  0.5312420000000 1.0
C      1  0.5552300000000  0.5765630000000  0.5330160000000 1.0
C      1  0.4460400000000  0.5803590000000  0.4690500000000 1.0
C      1  0.4376000000000  0.5554350000000  0.4572560000000 1.0
C      1  0.5604400000000  0.5498680000000  0.5444030000000 1.0
C      1  0.4379820000000  0.4495680000000  0.5425590000000 1.0
C      1  0.5613010000000  0.4449320000000  0.4536440000000 1.0
C      1  0.5818870000000  0.5178850000000  0.4209720000000 1.0
C      1  0.4196130000000  0.5192960000000  0.5802970000000 1.0
C      1  0.5803020000000  0.4842390000000  0.5796390000000 1.0
C      1  0.4252120000000  0.4830610000000  0.4211130000000 1.0
C      1  0.4742970000000  0.5586640000000  0.4271260000000 1.0
C      1  0.5317470000000  0.5493690000000  0.5856910000000 1.0
C      1  0.4688380000000  0.4534740000000  0.5825010000000 1.0
C      1  0.5348870000000  0.4437380000000  0.4080310000000 1.0
C      1  0.5614250000000  0.5614090000000  0.3572180000000 1.0
C      1  0.4381050000000  0.5659910000000  0.6426040000000 1.0
C      1  0.5606600000000  0.4406020000000  0.6437550000000 1.0
C      1  0.4238970000000  0.4370650000000  0.3555070000000 1.0
C      1  0.5111000000000  0.4495990000000  0.4889700000000 1.0
C      1  0.4877560000000  0.4501500000000  0.5066570000000 1.0
C      1  0.5031660000000  0.5411040000000  0.5162370000000 1.0
C      1  0.4831470000000  0.5418310000000  0.4945720000000 1.0
C      1  0.4650160000000  0.6055450000000  0.5342270000000 1.0
C      1  0.5236720000000  0.6027690000000  0.4773950000000 1.0
C      1  0.4668290000000  0.3925750000000  0.4687560000000 1.0
C      1  0.5339560000000  0.3960540000000  0.5327630000000 1.0
C      1  0.5533840000000  0.5422560000000  0.6048980000000 1.0
C      1  0.4561530000000  0.5235020000000  0.3930490000000 1.0
C      1  0.5535880000000  0.4653670000000  0.3982870000000 1.0
C      1  0.4475900000000  0.4613500000000  0.6019650000000 1.0
C      1  0.5352960000000  0.4488440000000  0.4373870000000 1.0
C      1  0.4637840000000  0.4602310000000  0.5555450000000 1.0
C      1  0.5366810000000  0.5403730000000  0.5598910000000 1.0
C      1  0.4876380000000  0.5461130000000  0.4485160000000 1.0
C      1  0.4260050000000  0.4706780000000  0.4477470000000 1.0
C      1  0.5801020000000  0.4723360000000  0.5524530000000 1.0
C      1  0.4197910000000  0.5296600000000  0.5523340000000 1.0
C      1  0.5805260000000  0.5300730000000  0.4480330000000 1.0
C      1  0.5243390000000  0.5183720000000  0.4390610000000 1.0
C      1  0.4970300000000  0.5242530000000  0.5404470000000 1.0
C      1  0.5090430000000  0.4741530000000  0.5485680000000 1.0
C      1  0.4900590000000  0.4735900000000  0.4375660000000 1.0
C      1  0.5011060000000  0.4094550000000  0.5647170000000 1.0
C      1  0.4999030000000  0.4048760000000  0.4355830000000 1.0
C      1  0.5126250000000  0.6033520000000  0.4330850000000 1.0
C      1  0.4982410000000  0.5913110000000  0.5656350000000 1.0
C      1  0.5247270000000  0.4906330000000  0.5917910000000 1.0
C      1  0.4750290000000  0.5032770000000  0.4004410000000 1.0
C      1  0.5392370000000  0.4903380000000  0.4004580000000 1.0
C      1  0.4691480000000  0.5130440000000  0.5783280000000 1.0
C      1  0.4323220000000  0.5325040000000  0.4740490000000 1.0
C      1  0.5654310000000  0.5284800000000  0.5234350000000 1.0
C      1  0.4286970000000  0.4687360000000  0.5219400000000 1.0
C      1  0.5664810000000  0.4679670000000  0.4726420000000 1.0
C      1  0.5695270000000  0.4552420000000  0.6240930000000 1.0
C      1  0.4247350000000  0.4530080000000  0.3761150000000 1.0
C      1  0.5710150000000  0.5468470000000  0.3765960000000 1.0
C      1  0.4295510000000  0.5504880000000  0.6234730000000 1.0
C      1  0.3852000000000  0.4174530000000  0.4879860000000 1.0
C      1  0.6131710000000  0.4185060000000  0.5272680000000 1.0
C      1  0.3871290000000  0.5813740000000  0.5263590000000 1.0
C      1  0.6022700000000  0.5925290000000  0.4741090000000 1.0
C      1  0.5480190000000  0.3985700000000  0.4499030000000 1.0
C      1  0.4528770000000  0.4041360000000  0.5512230000000 1.0
C      1  0.5460780000000  0.5956810000000  0.5520430000000 1.0
C      1  0.4619430000000  0.5990550000000  0.4530430000000 1.0
C      1  0.6054090000000  0.5099610000000  0.4903100000000 1.0
C      1  0.3947560000000  0.5050270000000  0.5114120000000 1.0
C      1  0.6055040000000  0.4928510000000  0.5108150000000 1.0
C      1  0.3957440000000  0.4896340000000  0.4892010000000 1.0
C      1  0.5113300000000  0.4973650000000  0.4919350000000 1.0
C      1  0.4846230000000  0.4949310000000  0.4908140000000 1.0
END
