TITL C-3623288-6813-225 5.69967048695867e-06 125000 -498.916374165225 0 0 96 (T23) n - 1
REM
REM in /home/nfs/bkarasulu/CARBON/AIRSS/Generating-Clusters/LCBOP/Higher-Symm/SD-CG/FIRE-CG
REM
REM
REM
REM
REM
REM ./C.cell (b20cbc046b6831c77cfcea5457e17084)
REM AIRSS Version 0.9.1 bugfix July 2018 build 013d7b7c2542+ Fri, 06 Jul 2018 19:26:36 +0100
REM compiler GCC version 9.2.1 20190827 (Red Hat 9.2.1-1)
REM options -cpp -mtune=generic -march=x86-64 -g -O0 -fpre-include=/usr/include/finclude/math-vector-fortran.h
REM seed 1563094197 1955622009 1771346536 270686613 1491599993 -171235250 2114458494 -1892904972 119863556 -698970944 -925972703 719903640 -1594952237 -441188751 1442086077 1891062008 1073738625 -343588856 1525711468 1968567665 1445001762 -1044913897 1810893510 -1759643354 752526230 -1190574553 -946579408 -1676682468 -731001718 -984820538 -905746484 773213608 1794365309
REM
CELL 1.54180   50.00000   50.00000   50.00000   90.00000   90.00000   90.00000
LATT -1
SFAC C  
C      1  0.5262790000000  0.4828570000000  0.5882130000000 1.0
C      1  0.5882210000000  0.5263890000000  0.4830240000000 1.0
C      1  0.4830550000000  0.5882050000000  0.5263000000000 1.0
C      1  0.5262620000000  0.5170430000000  0.4118210000000 1.0
C      1  0.4738360000000  0.5169960000000  0.5881830000000 1.0
C      1  0.4738250000000  0.4827790000000  0.4117860000000 1.0
C      1  0.5881970000000  0.4737780000000  0.5170180000000 1.0
C      1  0.4117700000000  0.4738260000000  0.4827830000000 1.0
C      1  0.4118000000000  0.5262640000000  0.5170550000000 1.0
C      1  0.4827790000000  0.4117800000000  0.4738160000000 1.0
C      1  0.5170400000000  0.4117930000000  0.5262440000000 1.0
C      1  0.5169310000000  0.5881950000000  0.4736900000000 1.0
C      1  0.5006870000000  0.5280560000000  0.5775020000000 1.0
C      1  0.5775350000000  0.5005940000000  0.5281260000000 1.0
C      1  0.5280100000000  0.5775880000000  0.5004420000000 1.0
C      1  0.5006350000000  0.4717940000000  0.4224740000000 1.0
C      1  0.4995270000000  0.4719050000000  0.5775800000000 1.0
C      1  0.4993550000000  0.5280470000000  0.4224960000000 1.0
C      1  0.5775830000000  0.4995940000000  0.4719820000000 1.0
C      1  0.4224990000000  0.4993690000000  0.5280830000000 1.0
C      1  0.4224610000000  0.5006270000000  0.4717940000000 1.0
C      1  0.5280730000000  0.4224980000000  0.4993600000000 1.0
C      1  0.4717820000000  0.4224680000000  0.5006180000000 1.0
C      1  0.4719590000000  0.5775760000000  0.4995540000000 1.0
C      1  0.5318740000000  0.4695520000000  0.5020070000000 1.0
C      1  0.5019960000000  0.5318770000000  0.4695550000000 1.0
C      1  0.4695450000000  0.5020070000000  0.5318820000000 1.0
C      1  0.5318900000000  0.5304780000000  0.4980120000000 1.0
C      1  0.4681060000000  0.5304800000000  0.5020010000000 1.0
C      1  0.4680820000000  0.4695550000000  0.4979980000000 1.0
C      1  0.5019830000000  0.4681070000000  0.5304680000000 1.0
C      1  0.4979940000000  0.4680900000000  0.4695600000000 1.0
C      1  0.4980070000000  0.5318950000000  0.5304550000000 1.0
C      1  0.4695510000000  0.4979960000000  0.4680910000000 1.0
C      1  0.5304580000000  0.4979890000000  0.5319160000000 1.0
C      1  0.5304750000000  0.5020040000000  0.4681290000000 1.0
C      1  0.5097260000000  0.4882250000000  0.4532520000000 1.0
C      1  0.4532330000000  0.5097260000000  0.4882270000000 1.0
C      1  0.4882160000000  0.4532390000000  0.5097160000000 1.0
C      1  0.5097100000000  0.5117240000000  0.5467560000000 1.0
C      1  0.4903110000000  0.5117030000000  0.4532340000000 1.0
C      1  0.4903050000000  0.4882630000000  0.5467600000000 1.0
C      1  0.4532210000000  0.4903200000000  0.5117150000000 1.0
C      1  0.5467700000000  0.4903290000000  0.4882900000000 1.0
C      1  0.5467550000000  0.5097180000000  0.5117740000000 1.0
C      1  0.4882610000000  0.5467540000000  0.4903150000000 1.0
C      1  0.5117280000000  0.5467620000000  0.5096900000000 1.0
C      1  0.5117050000000  0.4532290000000  0.4903170000000 1.0
C      1  0.5658620000000  0.5384490000000  0.5630270000000 1.0
C      1  0.5625410000000  0.5663990000000  0.5385250000000 1.0
C      1  0.5388250000000  0.5624910000000  0.5656970000000 1.0
C      1  0.5663640000000  0.4615140000000  0.4374610000000 1.0
C      1  0.4343170000000  0.4612210000000  0.5625150000000 1.0
C      1  0.4341820000000  0.5384660000000  0.4368930000000 1.0
C      1  0.5625200000000  0.4343250000000  0.4612190000000 1.0
C      1  0.4368750000000  0.4341950000000  0.5384650000000 1.0
C      1  0.4374300000000  0.5663430000000  0.4614850000000 1.0
C      1  0.5384900000000  0.4369140000000  0.4342090000000 1.0
C      1  0.4614470000000  0.4374010000000  0.5663460000000 1.0
C      1  0.4611900000000  0.5624770000000  0.4342810000000 1.0
C      1  0.4491330000000  0.4908880000000  0.4274580000000 1.0
C      1  0.4274430000000  0.4491380000000  0.4908910000000 1.0
C      1  0.4909030000000  0.4274570000000  0.4491330000000 1.0
C      1  0.4491440000000  0.5088890000000  0.5724730000000 1.0
C      1  0.5509630000000  0.5090290000000  0.4275630000000 1.0
C      1  0.5509470000000  0.4908850000000  0.5725020000000 1.0
C      1  0.4275350000000  0.5509630000000  0.5090140000000 1.0
C      1  0.5724470000000  0.5510420000000  0.4910220000000 1.0
C      1  0.5724690000000  0.4491140000000  0.5088860000000 1.0
C      1  0.4911530000000  0.5724610000000  0.5509430000000 1.0
C      1  0.5088490000000  0.5724450000000  0.4490510000000 1.0
C      1  0.5089760000000  0.4275150000000  0.5509420000000 1.0
C      1  0.4387640000000  0.4304460000000  0.5112230000000 1.0
C      1  0.5112460000000  0.4387830000000  0.4304520000000 1.0
C      1  0.4304410000000  0.5112230000000  0.4387800000000 1.0
C      1  0.4390020000000  0.5697410000000  0.4887950000000 1.0
C      1  0.5609600000000  0.5698100000000  0.5112180000000 1.0
C      1  0.5609900000000  0.4304930000000  0.4885200000000 1.0
C      1  0.5115240000000  0.5609560000000  0.5695380000000 1.0
C      1  0.4884910000000  0.5609480000000  0.4304460000000 1.0
C      1  0.4887540000000  0.4389560000000  0.5697250000000 1.0
C      1  0.4305120000000  0.4885270000000  0.5609890000000 1.0
C      1  0.5697520000000  0.4888250000000  0.4390300000000 1.0
C      1  0.5696190000000  0.5112020000000  0.5611290000000 1.0
C      1  0.5212160000000  0.4524740000000  0.5439430000000 1.0
C      1  0.5439380000000  0.5212850000000  0.4525120000000 1.0
C      1  0.4524850000000  0.5439490000000  0.5212700000000 1.0
C      1  0.5211850000000  0.5475140000000  0.4560100000000 1.0
C      1  0.4788020000000  0.5475310000000  0.5439960000000 1.0
C      1  0.4787590000000  0.4524690000000  0.4560840000000 1.0
C      1  0.5439340000000  0.4787190000000  0.5475170000000 1.0
C      1  0.4560850000000  0.4787480000000  0.4524710000000 1.0
C      1  0.4560360000000  0.5212530000000  0.5475270000000 1.0
C      1  0.4524560000000  0.4560950000000  0.4787550000000 1.0
C      1  0.5475220000000  0.4560350000000  0.5212160000000 1.0
C      1  0.5475160000000  0.5439530000000  0.4787870000000 1.0
END
