TITL C-3623289-7120-1854 -3.95873689808976e-07 125000 -792.177592167018 0 0 132 (C1) n - 1
REM
REM in /home/nfs/bkarasulu/CARBON/AIRSS/Generating-Clusters/LCBOP/Higher-Symm/SD-CG/FIRE-CG
REM
REM
REM
REM
REM
REM ./C.cell (b20cbc046b6831c77cfcea5457e17084)
REM AIRSS Version 0.9.1 bugfix July 2018 build 013d7b7c2542+ Fri, 06 Jul 2018 19:26:36 +0100
REM compiler GCC version 9.2.1 20190827 (Red Hat 9.2.1-1)
REM options -cpp -mtune=generic -march=x86-64 -g -O0 -fpre-include=/usr/include/finclude/math-vector-fortran.h
REM seed -535039481 1896859988 -374603982 1763699797 -244944958 -678570718 1274327934 12697868 -752161743 -1794815756 -676938522 632495126 1292053826 1548910886 763051699 -82472778 1238074166 -129157720 -7846662 -841636747 961393185 1661241231 720385811 -690048482 1476023199 -1744983343 353108424 -1007071628 1220067027 405625572 -1951159934 -862644279 -1541738529
REM
CELL 1.54180   50.00000   50.00000   50.00000   90.00000   90.00000   90.00000
LATT -1
SFAC C  
C      1  0.4226890000000  0.4521030000000  0.4677150000000 1.0
C      1  0.4242000000000  0.5642520000000  0.4660230000000 1.0
C      1  0.5369870000000  0.5844630000000  0.4700030000000 1.0
C      1  0.5974100000000  0.4947910000000  0.4666690000000 1.0
C      1  0.5231490000000  0.4078480000000  0.4711170000000 1.0
C      1  0.4400890000000  0.4131130000000  0.4988460000000 1.0
C      1  0.3948300000000  0.5346060000000  0.4992390000000 1.0
C      1  0.5021780000000  0.6117080000000  0.4984060000000 1.0
C      1  0.6094570000000  0.5338120000000  0.5013420000000 1.0
C      1  0.5660620000000  0.4081570000000  0.5025070000000 1.0
C      1  0.4296480000000  0.4800910000000  0.4681020000000 1.0
C      1  0.4530770000000  0.5673710000000  0.4642530000000 1.0
C      1  0.5452020000000  0.5569100000000  0.4698870000000 1.0
C      1  0.5747930000000  0.4761920000000  0.4661550000000 1.0
C      1  0.5009070000000  0.4261550000000  0.4699600000000 1.0
C      1  0.5006170000000  0.4080160000000  0.5411450000000 1.0
C      1  0.4058190000000  0.4656260000000  0.5459110000000 1.0
C      1  0.4484510000000  0.5774730000000  0.5396920000000 1.0
C      1  0.5571120000000  0.5737560000000  0.5367450000000 1.0
C      1  0.5929010000000  0.4688530000000  0.5431360000000 1.0
C      1  0.5595300000000  0.4781110000000  0.4935820000000 1.0
C      1  0.5026490000000  0.4471150000000  0.4928410000000 1.0
C      1  0.4453840000000  0.4874070000000  0.4937630000000 1.0
C      1  0.4667300000000  0.5538760000000  0.4892770000000 1.0
C      1  0.5372320000000  0.5398580000000  0.4958650000000 1.0
C      1  0.4217420000000  0.4496030000000  0.5869770000000 1.0
C      1  0.4446940000000  0.5606300000000  0.5823580000000 1.0
C      1  0.5412910000000  0.5681820000000  0.5792180000000 1.0
C      1  0.5820880000000  0.4860740000000  0.5837840000000 1.0
C      1  0.5163860000000  0.4148950000000  0.5838940000000 1.0
C      1  0.5578070000000  0.4658950000000  0.4438330000000 1.0
C      1  0.4851080000000  0.4399130000000  0.4494720000000 1.0
C      1  0.4359230000000  0.4989380000000  0.4468140000000 1.0
C      1  0.4716850000000  0.5656510000000  0.4407180000000 1.0
C      1  0.5514730000000  0.5401360000000  0.4477080000000 1.0
C      1  0.5342020000000  0.4927500000000  0.4852680000000 1.0
C      1  0.5180810000000  0.4690150000000  0.4770510000000 1.0
C      1  0.4744800000000  0.4849900000000  0.4828990000000 1.0
C      1  0.4746310000000  0.5287440000000  0.4762830000000 1.0
C      1  0.5188750000000  0.5132670000000  0.5010930000000 1.0
C      1  0.5646440000000  0.5281650000000  0.5081850000000 1.0
C      1  0.5519410000000  0.4518110000000  0.5084800000000 1.0
C      1  0.4707020000000  0.4462460000000  0.5093020000000 1.0
C      1  0.4358070000000  0.5143000000000  0.5066650000000 1.0
C      1  0.4898950000000  0.5675120000000  0.5046200000000 1.0
C      1  0.5431340000000  0.5135580000000  0.4566700000000 1.0
C      1  0.5292670000000  0.4642610000000  0.4508790000000 1.0
C      1  0.4771870000000  0.4676030000000  0.4588550000000 1.0
C      1  0.4579460000000  0.5175070000000  0.4544550000000 1.0
C      1  0.4962210000000  0.5524480000000  0.4491270000000 1.0
C      1  0.5735420000000  0.4676630000000  0.5637680000000 1.0
C      1  0.4951130000000  0.4201890000000  0.5656830000000 1.0
C      1  0.4127220000000  0.4727890000000  0.5728870000000 1.0
C      1  0.4625450000000  0.5667020000000  0.5610960000000 1.0
C      1  0.5536820000000  0.5545770000000  0.5573600000000 1.0
C      1  0.4331310000000  0.4924010000000  0.5723700000000 1.0
C      1  0.4821090000000  0.5450710000000  0.5565160000000 1.0
C      1  0.5394060000000  0.5311650000000  0.5472620000000 1.0
C      1  0.5469750000000  0.4731960000000  0.5535820000000 1.0
C      1  0.4891450000000  0.4485590000000  0.5633070000000 1.0
C      1  0.5551940000000  0.4659130000000  0.4138450000000 1.0
C      1  0.4843790000000  0.4405910000000  0.4194050000000 1.0
C      1  0.4370500000000  0.4979610000000  0.4168670000000 1.0
C      1  0.4746220000000  0.5616370000000  0.4110430000000 1.0
C      1  0.5488030000000  0.5398110000000  0.4173680000000 1.0
C      1  0.4785690000000  0.5106240000000  0.4360230000000 1.0
C      1  0.5015830000000  0.5273820000000  0.4384730000000 1.0
C      1  0.5226500000000  0.5087090000000  0.4389310000000 1.0
C      1  0.5143820000000  0.4822580000000  0.4348110000000 1.0
C      1  0.4864110000000  0.4837740000000  0.4371240000000 1.0
C      1  0.4987220000000  0.5488210000000  0.5796530000000 1.0
C      1  0.5495300000000  0.5174750000000  0.5894170000000 1.0
C      1  0.5326190000000  0.4570690000000  0.5918150000000 1.0
C      1  0.4702640000000  0.4556190000000  0.5838960000000 1.0
C      1  0.4437940000000  0.5133180000000  0.5885150000000 1.0
C      1  0.5471240000000  0.4025650000000  0.4832380000000 1.0
C      1  0.4276520000000  0.4278860000000  0.4792930000000 1.0
C      1  0.4039700000000  0.5512590000000  0.4792060000000 1.0
C      1  0.5209770000000  0.6042740000000  0.4797140000000 1.0
C      1  0.6090380000000  0.5156510000000  0.4803560000000 1.0
C      1  0.5897010000000  0.5194590000000  0.5470300000000 1.0
C      1  0.5478990000000  0.4243330000000  0.5470180000000 1.0
C      1  0.4432130000000  0.4328900000000  0.5455890000000 1.0
C      1  0.4181880000000  0.5376770000000  0.5440470000000 1.0
C      1  0.5093420000000  0.5888750000000  0.5426020000000 1.0
C      1  0.4724580000000  0.5077730000000  0.5975300000000 1.0
C      1  0.4983440000000  0.5249240000000  0.5957940000000 1.0
C      1  0.5228590000000  0.5079590000000  0.5966600000000 1.0
C      1  0.5142910000000  0.4792740000000  0.5981600000000 1.0
C      1  0.4830420000000  0.4786460000000  0.5979770000000 1.0
C      1  0.4575350000000  0.4214980000000  0.5208170000000 1.0
C      1  0.4090240000000  0.5199500000000  0.5206140000000 1.0
C      1  0.4904220000000  0.5946330000000  0.5192030000000 1.0
C      1  0.5892600000000  0.5387270000000  0.5224010000000 1.0
C      1  0.5668600000000  0.4293330000000  0.5230300000000 1.0
C      1  0.4332950000000  0.5576630000000  0.5277790000000 1.0
C      1  0.5318740000000  0.5790290000000  0.5263430000000 1.0
C      1  0.5911210000000  0.4938390000000  0.5309090000000 1.0
C      1  0.5233250000000  0.4196090000000  0.5304860000000 1.0
C      1  0.4275230000000  0.4545790000000  0.5314820000000 1.0
C      1  0.4464980000000  0.5422100000000  0.5076030000000 1.0
C      1  0.5185830000000  0.5602420000000  0.5083750000000 1.0
C      1  0.5714830000000  0.4988960000000  0.5103090000000 1.0
C      1  0.5241190000000  0.4408750000000  0.5115920000000 1.0
C      1  0.4469710000000  0.4647100000000  0.5124430000000 1.0
C      1  0.5123810000000  0.5218990000000  0.3871860000000 1.0
C      1  0.5246420000000  0.4950000000000  0.3869090000000 1.0
C      1  0.5024810000000  0.4749980000000  0.3875230000000 1.0
C      1  0.4767090000000  0.4897530000000  0.3874370000000 1.0
C      1  0.4827610000000  0.5188630000000  0.3863800000000 1.0
C      1  0.5192570000000  0.5130070000000  0.5332060000000 1.0
C      1  0.5228370000000  0.4838920000000  0.5437300000000 1.0
C      1  0.4968260000000  0.4720770000000  0.5481760000000 1.0
C      1  0.4507080000000  0.4911790000000  0.5502390000000 1.0
C      1  0.4897940000000  0.5205320000000  0.5422400000000 1.0
C      1  0.4387840000000  0.5245920000000  0.4049350000000 1.0
C      1  0.5030670000000  0.5659840000000  0.4030770000000 1.0
C      1  0.5630490000000  0.5167000000000  0.4060110000000 1.0
C      1  0.5357440000000  0.4453100000000  0.4052400000000 1.0
C      1  0.4588270000000  0.4509870000000  0.4095060000000 1.0
C      1  0.4305430000000  0.5369210000000  0.5770440000000 1.0
C      1  0.5138870000000  0.5728770000000  0.5742750000000 1.0
C      1  0.5761840000000  0.5136220000000  0.5756360000000 1.0
C      1  0.5394490000000  0.4315390000000  0.5765740000000 1.0
C      1  0.4462420000000  0.4399690000000  0.5754010000000 1.0
C      1  0.5509400000000  0.4914730000000  0.3994300000000 1.0
C      1  0.5072770000000  0.4497360000000  0.4019740000000 1.0
C      1  0.4539870000000  0.4783740000000  0.4022340000000 1.0
C      1  0.4633820000000  0.5376980000000  0.3978240000000 1.0
C      1  0.5236100000000  0.5454920000000  0.4009930000000 1.0
C      1  0.4903650000000  0.5089650000000  0.4893000000000 1.0
C      1  0.4775820000000  0.4940320000000  0.5449110000000 1.0
END
