TITL C-3623289-7120-807 -1.38484313396549e-06 125000 -1128.53460191925 0 0 181 (C1) n - 1
REM
REM in /home/nfs/bkarasulu/CARBON/AIRSS/Generating-Clusters/LCBOP/Higher-Symm/SD-CG/FIRE-CG
REM
REM
REM
REM
REM
REM ./C.cell (b20cbc046b6831c77cfcea5457e17084)
REM AIRSS Version 0.9.1 bugfix July 2018 build 013d7b7c2542+ Fri, 06 Jul 2018 19:26:36 +0100
REM compiler GCC version 9.2.1 20190827 (Red Hat 9.2.1-1)
REM options -cpp -mtune=generic -march=x86-64 -g -O0 -fpre-include=/usr/include/finclude/math-vector-fortran.h
REM seed -276028766 220194471 534397344 613758830 248019862 1205805863 446741953 -846052246 75037768 1206960524 1743602409 -243692782 2059659501 1493958859 1198902064 -2094392224 1644893629 1563827248 -1957268352 -1459377290 1858359151 -1995893849 -1994511725 -1492152350 907032111 2041211539 -557489498 -576368247 -738094125 1852761962 -1888333430 -1383316870 318805963
REM
CELL 1.54180   50.00000   50.00000   50.00000   90.00000   90.00000   90.00000
LATT -1
SFAC C  
C      1  0.5246340000000  0.4859440000000  0.5351270000000 1.0
C      1  0.4840930000000  0.5183280000000  0.5301390000000 1.0
C      1  0.4882640000000  0.4882080000000  0.5335500000000 1.0
C      1  0.5754770000000  0.4960620000000  0.5939790000000 1.0
C      1  0.4524540000000  0.5748930000000  0.5983310000000 1.0
C      1  0.4690580000000  0.4576950000000  0.5719630000000 1.0
C      1  0.4804470000000  0.5221060000000  0.4503970000000 1.0
C      1  0.4935020000000  0.4618590000000  0.4419340000000 1.0
C      1  0.5302920000000  0.5145260000000  0.4520670000000 1.0
C      1  0.4484870000000  0.5907930000000  0.5514990000000 1.0
C      1  0.4534930000000  0.4199810000000  0.5456130000000 1.0
C      1  0.5985400000000  0.4945970000000  0.5507440000000 1.0
C      1  0.5261520000000  0.5790070000000  0.5954680000000 1.0
C      1  0.4088220000000  0.4843860000000  0.5941760000000 1.0
C      1  0.5638920000000  0.4249670000000  0.6034450000000 1.0
C      1  0.6004020000000  0.4503970000000  0.4425100000000 1.0
C      1  0.4891660000000  0.6127410000000  0.4418040000000 1.0
C      1  0.4064600000000  0.4364290000000  0.4412860000000 1.0
C      1  0.4124190000000  0.4881100000000  0.4973570000000 1.0
C      1  0.5523700000000  0.4335750000000  0.5030140000000 1.0
C      1  0.5572730000000  0.5840270000000  0.4926640000000 1.0
C      1  0.4924920000000  0.5629920000000  0.4737120000000 1.0
C      1  0.4558470000000  0.4570690000000  0.4690370000000 1.0
C      1  0.5504620000000  0.4862260000000  0.4828190000000 1.0
C      1  0.5564000000000  0.5379850000000  0.4851200000000 1.0
C      1  0.4462920000000  0.5208540000000  0.4974040000000 1.0
C      1  0.5046600000000  0.4306720000000  0.4954530000000 1.0
C      1  0.4913350000000  0.4231270000000  0.4723600000000 1.0
C      1  0.5832470000000  0.5464720000000  0.4907660000000 1.0
C      1  0.4470460000000  0.5423070000000  0.4796720000000 1.0
C      1  0.4921150000000  0.5936790000000  0.5314550000000 1.0
C      1  0.4196700000000  0.4477020000000  0.5330770000000 1.0
C      1  0.5895110000000  0.4504830000000  0.5323850000000 1.0
C      1  0.4566170000000  0.6052010000000  0.4758240000000 1.0
C      1  0.4289490000000  0.4100190000000  0.4734260000000 1.0
C      1  0.6094850000000  0.4826630000000  0.4758790000000 1.0
C      1  0.5409820000000  0.4631480000000  0.5397420000000 1.0
C      1  0.5010850000000  0.5402030000000  0.5370920000000 1.0
C      1  0.4630870000000  0.4796610000000  0.5500600000000 1.0
C      1  0.5387800000000  0.4514370000000  0.5645140000000 1.0
C      1  0.5208910000000  0.5416790000000  0.5568420000000 1.0
C      1  0.4471270000000  0.5024440000000  0.5628060000000 1.0
C      1  0.4194090000000  0.4360590000000  0.5798590000000 1.0
C      1  0.6006830000000  0.4521140000000  0.5799430000000 1.0
C      1  0.4899640000000  0.6067270000000  0.5775300000000 1.0
C      1  0.4293680000000  0.4267650000000  0.4269690000000 1.0
C      1  0.5939930000000  0.4750960000000  0.4298250000000 1.0
C      1  0.4698730000000  0.5963180000000  0.4284790000000 1.0
C      1  0.5381540000000  0.5647070000000  0.5528640000000 1.0
C      1  0.4191480000000  0.5083770000000  0.5547460000000 1.0
C      1  0.5401070000000  0.4220920000000  0.5652380000000 1.0
C      1  0.5166300000000  0.4847590000000  0.5967230000000 1.0
C      1  0.5054130000000  0.5105330000000  0.5947220000000 1.0
C      1  0.4779820000000  0.5125440000000  0.6011160000000 1.0
C      1  0.5931640000000  0.5038100000000  0.5230530000000 1.0
C      1  0.4437550000000  0.5802710000000  0.5243480000000 1.0
C      1  0.4614920000000  0.4209060000000  0.5171450000000 1.0
C      1  0.4585620000000  0.5274140000000  0.5212590000000 1.0
C      1  0.4847640000000  0.4680320000000  0.5125620000000 1.0
C      1  0.5399970000000  0.5080810000000  0.5283850000000 1.0
C      1  0.4267060000000  0.4285330000000  0.5532610000000 1.0
C      1  0.5988930000000  0.4656790000000  0.5546800000000 1.0
C      1  0.4757300000000  0.6006840000000  0.5539080000000 1.0
C      1  0.5395430000000  0.5868860000000  0.5706880000000 1.0
C      1  0.3993480000000  0.4915860000000  0.5677860000000 1.0
C      1  0.5629840000000  0.4096900000000  0.5779390000000 1.0
C      1  0.5832750000000  0.5392150000000  0.5751190000000 1.0
C      1  0.4187150000000  0.5517400000000  0.5725950000000 1.0
C      1  0.4959600000000  0.4120120000000  0.5685950000000 1.0
C      1  0.3760710000000  0.4656740000000  0.4798130000000 1.0
C      1  0.5888380000000  0.4110000000000  0.4817100000000 1.0
C      1  0.5320330000000  0.6226030000000  0.4787020000000 1.0
C      1  0.5898070000000  0.5711230000000  0.5319390000000 1.0
C      1  0.3968710000000  0.5405840000000  0.5244500000000 1.0
C      1  0.5124590000000  0.3848270000000  0.5229070000000 1.0
C      1  0.5618860000000  0.4498960000000  0.5243390000000 1.0
C      1  0.4960890000000  0.5661680000000  0.5262300000000 1.0
C      1  0.4401810000000  0.4675340000000  0.5319380000000 1.0
C      1  0.5053040000000  0.6204840000000  0.4877480000000 1.0
C      1  0.3906460000000  0.4422640000000  0.4880110000000 1.0
C      1  0.6063170000000  0.4324650000000  0.4881680000000 1.0
C      1  0.5328720000000  0.4897630000000  0.4347250000000 1.0
C      1  0.4971970000000  0.5383020000000  0.4299200000000 1.0
C      1  0.4742020000000  0.4781570000000  0.4285230000000 1.0
C      1  0.3867440000000  0.5186120000000  0.4755900000000 1.0
C      1  0.5393740000000  0.3953220000000  0.4768260000000 1.0
C      1  0.5655960000000  0.6012290000000  0.4492160000000 1.0
C      1  0.4941820000000  0.5564820000000  0.4082700000000 1.0
C      1  0.4539350000000  0.4679130000000  0.4105620000000 1.0
C      1  0.5474500000000  0.4781630000000  0.4133190000000 1.0
C      1  0.5812630000000  0.5716890000000  0.5051300000000 1.0
C      1  0.3883960000000  0.5362290000000  0.4987560000000 1.0
C      1  0.5236150000000  0.3833510000000  0.4980600000000 1.0
C      1  0.3751020000000  0.4847940000000  0.5575200000000 1.0
C      1  0.5789370000000  0.3896450000000  0.5693570000000 1.0
C      1  0.5513980000000  0.6108510000000  0.5660030000000 1.0
C      1  0.5658920000000  0.5128270000000  0.5238020000000 1.0
C      1  0.4497920000000  0.5526860000000  0.5288010000000 1.0
C      1  0.4839670000000  0.4398840000000  0.5124810000000 1.0
C      1  0.5881060000000  0.5107860000000  0.5731890000000 1.0
C      1  0.4374310000000  0.5742810000000  0.5738880000000 1.0
C      1  0.4737070000000  0.4297480000000  0.5644880000000 1.0
C      1  0.4172310000000  0.5352760000000  0.5971220000000 1.0
C      1  0.5184870000000  0.4179040000000  0.5857000000000 1.0
C      1  0.5645150000000  0.5473500000000  0.5956920000000 1.0
C      1  0.5295650000000  0.4006920000000  0.4495490000000 1.0
C      1  0.5698050000000  0.5818040000000  0.4311830000000 1.0
C      1  0.3970200000000  0.5239870000000  0.4491180000000 1.0
C      1  0.5801630000000  0.5127230000000  0.4058730000000 1.0
C      1  0.4460090000000  0.5618330000000  0.4065510000000 1.0
C      1  0.4711580000000  0.4224080000000  0.4047520000000 1.0
C      1  0.4371490000000  0.4965960000000  0.4888230000000 1.0
C      1  0.5287570000000  0.4438510000000  0.4920030000000 1.0
C      1  0.5405010000000  0.5616100000000  0.4842970000000 1.0
C      1  0.5305780000000  0.4601530000000  0.3977210000000 1.0
C      1  0.5162690000000  0.5490060000000  0.3903670000000 1.0
C      1  0.4453610000000  0.4914270000000  0.3951840000000 1.0
C      1  0.5195210000000  0.5605790000000  0.4660440000000 1.0
C      1  0.4498390000000  0.4845750000000  0.4674570000000 1.0
C      1  0.5323130000000  0.4655900000000  0.4750960000000 1.0
C      1  0.4473590000000  0.5961340000000  0.4478570000000 1.0
C      1  0.4393960000000  0.4053120000000  0.4448140000000 1.0
C      1  0.6040430000000  0.4949660000000  0.4487810000000 1.0
C      1  0.5013530000000  0.6135540000000  0.5144580000000 1.0
C      1  0.3994670000000  0.4419660000000  0.5147740000000 1.0
C      1  0.6083920000000  0.4383030000000  0.5155300000000 1.0
C      1  0.5146960000000  0.4754550000000  0.3785830000000 1.0
C      1  0.5088290000000  0.5262100000000  0.3742130000000 1.0
C      1  0.4675360000000  0.4961820000000  0.3764830000000 1.0
C      1  0.4248610000000  0.4597300000000  0.5949320000000 1.0
C      1  0.5810390000000  0.4485840000000  0.6004720000000 1.0
C      1  0.4993290000000  0.5888260000000  0.5979170000000 1.0
C      1  0.5361320000000  0.5513500000000  0.5996100000000 1.0
C      1  0.4247080000000  0.5081350000000  0.6037700000000 1.0
C      1  0.5333190000000  0.4336070000000  0.6077680000000 1.0
C      1  0.4532630000000  0.4682510000000  0.5947100000000 1.0
C      1  0.5639390000000  0.4717980000000  0.6014600000000 1.0
C      1  0.4770250000000  0.5759840000000  0.6096430000000 1.0
C      1  0.5748720000000  0.4854070000000  0.4117330000000 1.0
C      1  0.4716040000000  0.5740250000000  0.4104020000000 1.0
C      1  0.4488990000000  0.4396910000000  0.4104820000000 1.0
C      1  0.5021950000000  0.3937380000000  0.5464860000000 1.0
C      1  0.5914710000000  0.5575450000000  0.5551390000000 1.0
C      1  0.4108410000000  0.5357380000000  0.5491230000000 1.0
C      1  0.5978070000000  0.5234240000000  0.4499760000000 1.0
C      1  0.4287880000000  0.5738850000000  0.4497620000000 1.0
C      1  0.4670920000000  0.3963250000000  0.4449650000000 1.0
C      1  0.4804460000000  0.5210240000000  0.3708170000000 1.0
C      1  0.4864790000000  0.4739360000000  0.3737470000000 1.0
C      1  0.5243080000000  0.5021890000000  0.3723050000000 1.0
C      1  0.4719740000000  0.5445660000000  0.4676960000000 1.0
C      1  0.4796270000000  0.4450800000000  0.4595270000000 1.0
C      1  0.5492400000000  0.5131730000000  0.4745840000000 1.0
C      1  0.5251620000000  0.4335410000000  0.4091880000000 1.0
C      1  0.5434300000000  0.5539570000000  0.4000140000000 1.0
C      1  0.4268020000000  0.5095970000000  0.4085160000000 1.0
C      1  0.4159270000000  0.5289750000000  0.4278400000000 1.0
C      1  0.5144890000000  0.4122080000000  0.4269720000000 1.0
C      1  0.5658920000000  0.5566360000000  0.4189030000000 1.0
C      1  0.3878340000000  0.4909410000000  0.4836850000000 1.0
C      1  0.5614040000000  0.4110310000000  0.4875690000000 1.0
C      1  0.5545870000000  0.6060840000000  0.4748510000000 1.0
C      1  0.5357830000000  0.4629610000000  0.5935090000000 1.0
C      1  0.5200210000000  0.5324480000000  0.5842300000000 1.0
C      1  0.4526310000000  0.4998170000000  0.5935930000000 1.0
C      1  0.4853620000000  0.4064950000000  0.4241250000000 1.0
C      1  0.5827200000000  0.5335460000000  0.4257850000000 1.0
C      1  0.4274480000000  0.5555700000000  0.4273500000000 1.0
C      1  0.4518410000000  0.4067390000000  0.4922210000000 1.0
C      1  0.6056040000000  0.5036460000000  0.4960390000000 1.0
C      1  0.4421840000000  0.5878390000000  0.4958400000000 1.0
C      1  0.4743550000000  0.4005050000000  0.4730280000000 1.0
C      1  0.6014710000000  0.5287300000000  0.4793440000000 1.0
C      1  0.4316370000000  0.5658730000000  0.4777770000000 1.0
C      1  0.4634660000000  0.4982790000000  0.4461300000000 1.0
C      1  0.5194940000000  0.4692180000000  0.4499660000000 1.0
C      1  0.5228590000000  0.5422780000000  0.4438540000000 1.0
C      1  0.4835860000000  0.6163180000000  0.4700900000000 1.0
C      1  0.4060260000000  0.4280550000000  0.4691020000000 1.0
C      1  0.6084430000000  0.4539090000000  0.4701440000000 1.0
C      1  0.5032610000000  0.5086980000000  0.4663280000000 1.0
END
