TITL C-3623289-7120-1652 -9.11921067108267e-06 125000 -238.805473654894 0 0 40 (C1) n - 1
REM
REM in /home/nfs/bkarasulu/CARBON/AIRSS/Generating-Clusters/LCBOP/Higher-Symm/SD-CG/FIRE-CG
REM
REM
REM
REM
REM
REM ./C.cell (b20cbc046b6831c77cfcea5457e17084)
REM AIRSS Version 0.9.1 bugfix July 2018 build 013d7b7c2542+ Fri, 06 Jul 2018 19:26:36 +0100
REM compiler GCC version 9.2.1 20190827 (Red Hat 9.2.1-1)
REM options -cpp -mtune=generic -march=x86-64 -g -O0 -fpre-include=/usr/include/finclude/math-vector-fortran.h
REM seed -1951983092 17380620 -2118775475 -1793781370 1511616819 859503189 211504834 -1163631766 1560649426 1288542571 -733937156 839094060 406828260 595778829 1805588824 831048416 -1285287214 -788908040 1032053588 -1582163327 -1568007835 327490537 -278841834 -253132995 -638783695 -567446896 625922188 741587193 -1080039742 -1855061624 1842784753 -12707719 77734897
REM
CELL 1.54180   50.00000   50.00000   50.00000   90.00000   90.00000   90.00000
LATT -1
SFAC C  
C      1  0.4901740000000  0.4884730000000  0.4240310000000 1.0
C      1  0.5031210000000  0.4823490000000  0.5598310000000 1.0
C      1  0.4419150000000  0.5963670000000  0.5172600000000 1.0
C      1  0.4667430000000  0.5835770000000  0.5115190000000 1.0
C      1  0.4484130000000  0.5474670000000  0.5385130000000 1.0
C      1  0.5634490000000  0.4776300000000  0.4894290000000 1.0
C      1  0.4875020000000  0.5972410000000  0.4989150000000 1.0
C      1  0.5077990000000  0.4064530000000  0.4588620000000 1.0
C      1  0.4222470000000  0.5860330000000  0.5329660000000 1.0
C      1  0.4909600000000  0.4612170000000  0.4950350000000 1.0
C      1  0.5033300000000  0.5068120000000  0.5492820000000 1.0
C      1  0.4927130000000  0.5312220000000  0.4866860000000 1.0
C      1  0.5082780000000  0.4171090000000  0.4343190000000 1.0
C      1  0.4505490000000  0.4869860000000  0.5190980000000 1.0
C      1  0.5433140000000  0.4596730000000  0.4994380000000 1.0
C      1  0.5108300000000  0.4059970000000  0.5089350000000 1.0
C      1  0.5127660000000  0.6042690000000  0.4945620000000 1.0
C      1  0.4694620000000  0.5564040000000  0.5214490000000 1.0
C      1  0.5249630000000  0.4217810000000  0.5275780000000 1.0
C      1  0.5516190000000  0.4987340000000  0.4760880000000 1.0
C      1  0.5385220000000  0.5993220000000  0.4993300000000 1.0
C      1  0.5058960000000  0.4558590000000  0.5612430000000 1.0
C      1  0.4723000000000  0.4770770000000  0.5086760000000 1.0
C      1  0.5131670000000  0.4323250000000  0.5508000000000 1.0
C      1  0.5453630000000  0.4375980000000  0.5161280000000 1.0
C      1  0.5519560000000  0.5587900000000  0.5254080000000 1.0
C      1  0.4256260000000  0.5613220000000  0.5438900000000 1.0
C      1  0.5027780000000  0.4383200000000  0.4191020000000 1.0
C      1  0.5172990000000  0.4706590000000  0.4906020000000 1.0
C      1  0.4952390000000  0.4636560000000  0.4157270000000 1.0
C      1  0.4814110000000  0.4361140000000  0.4854240000000 1.0
C      1  0.5346440000000  0.5402200000000  0.5334040000000 1.0
C      1  0.5541650000000  0.5816360000000  0.5118000000000 1.0
C      1  0.4991840000000  0.4138080000000  0.4845140000000 1.0
C      1  0.5026790000000  0.5131520000000  0.4678160000000 1.0
C      1  0.4902740000000  0.5389260000000  0.5136380000000 1.0
C      1  0.5090790000000  0.5286980000000  0.5327260000000 1.0
C      1  0.4917050000000  0.5075510000000  0.4426590000000 1.0
C      1  0.5230090000000  0.4958750000000  0.4765140000000 1.0
C      1  0.4555580000000  0.4332970000000  0.4768030000000 1.0
END
