TITL C-3623286-7563-83 -585.190143401092 125000 -1127.09296867619 0 0 184 (C1) n - 1
REM
REM in /home/nfs/bkarasulu/CARBON/AIRSS/Generating-Clusters/LCBOP/Higher-Symm/SD-CG/FIRE-CG
REM
REM
REM
REM
REM
REM ./C.cell (b20cbc046b6831c77cfcea5457e17084)
REM AIRSS Version 0.9.1 bugfix July 2018 build 013d7b7c2542+ Fri, 06 Jul 2018 19:26:36 +0100
REM compiler GCC version 9.2.1 20190827 (Red Hat 9.2.1-1)
REM options -cpp -mtune=generic -march=x86-64 -g -O0 -fpre-include=/usr/include/finclude/math-vector-fortran.h
REM seed 1314617326 644486667 1822617345 -1750131798 -1009342426 -1717885264 -1157689441 -1467996230 1359222550 1607451998 1704523076 -1775904482 -1874050444 228079531 933028284 -714097016 -2102192015 -111996370 -984687164 -1126667774 -956031873 1360907796 -519642656 1721068082 -1851007990 -880278288 101315060 -1808634586 -671622433 -2109723217 -66282659 -1639309294 -1150709558
REM
CELL 1.54180   50.00000   50.00000   50.00000   90.00000   90.00000   90.00000
LATT -1
SFAC C  
C      1  0.5306570000000  0.4453770000000  0.5035520000000 1.0
C      1  0.6072880000000  0.4560440000000  0.4621040000000 1.0
C      1  0.4591410000000  0.5441260000000  0.4966320000000 1.0
C      1  0.5462150000000  0.3988830000000  0.5549240000000 1.0
C      1  0.4859670000000  0.6105440000000  0.4068310000000 1.0
C      1  0.5877710000000  0.5644450000000  0.5547920000000 1.0
C      1  0.5413520000000  0.3610580000000  0.4693890000000 1.0
C      1  0.5408850000000  0.5522180000000  0.5217650000000 1.0
C      1  0.5294600000000  0.3688680000000  0.5201220000000 1.0
C      1  0.4974670000000  0.5300400000000  0.6233690000000 1.0
C      1  0.4197920000000  0.6023440000000  0.4617670000000 1.0
C      1  0.4666320000000  0.5195790000000  0.4818330000000 1.0
C      1  0.6193570000000  0.5302110000000  0.5375580000000 1.0
C      1  0.5089350000000  0.4828530000000  0.6345270000000 1.0
C      1  0.5597000000000  0.4194430000000  0.4297970000000 1.0
C      1  0.5366920000000  0.3616450000000  0.4955740000000 1.0
C      1  0.6077150000000  0.5319210000000  0.4521890000000 1.0
C      1  0.5484260000000  0.5658240000000  0.5922370000000 1.0
C      1  0.3819780000000  0.5641440000000  0.4458490000000 1.0
C      1  0.5705400000000  0.4694590000000  0.5663260000000 1.0
C      1  0.5212560000000  0.5959930000000  0.5403600000000 1.0
C      1  0.4292810000000  0.4020970000000  0.5289510000000 1.0
C      1  0.5951270000000  0.4821680000000  0.4594890000000 1.0
C      1  0.6142560000000  0.4956600000000  0.5717670000000 1.0
C      1  0.4433360000000  0.3716250000000  0.4950920000000 1.0
C      1  0.5140410000000  0.4763130000000  0.4342300000000 1.0
C      1  0.5204520000000  0.4805170000000  0.5709980000000 1.0
C      1  0.5917140000000  0.4592500000000  0.5484090000000 1.0
C      1  0.3964090000000  0.5250560000000  0.3969570000000 1.0
C      1  0.4057610000000  0.4575190000000  0.4242740000000 1.0
C      1  0.5826450000000  0.4367260000000  0.5323950000000 1.0
C      1  0.5467000000000  0.5946140000000  0.4118310000000 1.0
C      1  0.5769130000000  0.5470290000000  0.4389180000000 1.0
C      1  0.4362150000000  0.4461220000000  0.5475850000000 1.0
C      1  0.3940380000000  0.5620550000000  0.4710480000000 1.0
C      1  0.5415010000000  0.5754770000000  0.5428440000000 1.0
C      1  0.3714830000000  0.5504590000000  0.5110540000000 1.0
C      1  0.4114480000000  0.5541490000000  0.5653490000000 1.0
C      1  0.3868290000000  0.5130320000000  0.4840320000000 1.0
C      1  0.5429760000000  0.5166810000000  0.4825730000000 1.0
C      1  0.4934480000000  0.5932730000000  0.4548740000000 1.0
C      1  0.4829060000000  0.5925990000000  0.4813450000000 1.0
C      1  0.3728420000000  0.5551220000000  0.5372610000000 1.0
C      1  0.4697490000000  0.4237390000000  0.4434360000000 1.0
C      1  0.4692970000000  0.4934620000000  0.4954750000000 1.0
C      1  0.4147790000000  0.5283810000000  0.4151720000000 1.0
C      1  0.5208210000000  0.5587840000000  0.3957670000000 1.0
C      1  0.4588060000000  0.4113810000000  0.5756680000000 1.0
C      1  0.4196250000000  0.4284680000000  0.5318160000000 1.0
C      1  0.4893780000000  0.4723160000000  0.5040410000000 1.0
C      1  0.4530190000000  0.4732610000000  0.4010190000000 1.0
C      1  0.4851380000000  0.4325820000000  0.5328300000000 1.0
C      1  0.6054500000000  0.5063570000000  0.4697870000000 1.0
C      1  0.5153920000000  0.4652030000000  0.5474130000000 1.0
C      1  0.6060640000000  0.4375410000000  0.4406150000000 1.0
C      1  0.5467590000000  0.5368320000000  0.5950090000000 1.0
C      1  0.4462690000000  0.4372340000000  0.5733400000000 1.0
C      1  0.5876700000000  0.4210660000000  0.4295970000000 1.0
C      1  0.6017230000000  0.5107330000000  0.4982310000000 1.0
C      1  0.4287210000000  0.4676240000000  0.4110180000000 1.0
C      1  0.5229020000000  0.5110220000000  0.3964880000000 1.0
C      1  0.5463000000000  0.4412660000000  0.4434250000000 1.0
C      1  0.5610160000000  0.4882940000000  0.5226320000000 1.0
C      1  0.4718590000000  0.5057600000000  0.5737000000000 1.0
C      1  0.4508650000000  0.5394700000000  0.5237470000000 1.0
C      1  0.5275440000000  0.4235330000000  0.5929840000000 1.0
C      1  0.4035570000000  0.4669860000000  0.5007270000000 1.0
C      1  0.5379400000000  0.4066050000000  0.4149510000000 1.0
C      1  0.5696470000000  0.5522250000000  0.5130740000000 1.0
C      1  0.5649660000000  0.5364850000000  0.4135060000000 1.0
C      1  0.5025140000000  0.5429750000000  0.5741820000000 1.0
C      1  0.5055570000000  0.6041980000000  0.3893370000000 1.0
C      1  0.4996450000000  0.5901170000000  0.5584190000000 1.0
C      1  0.3373470000000  0.5856730000000  0.3842370000000 1.0
C      1  0.4642020000000  0.4644790000000  0.6161060000000 1.0
C      1  0.5209300000000  0.5867020000000  0.4516950000000 1.0
C      1  0.4942620000000  0.5064330000000  0.3985810000000 1.0
C      1  0.5065320000000  0.5236200000000  0.4570980000000 1.0
C      1  0.5433490000000  0.5150130000000  0.5545130000000 1.0
C      1  0.5200500000000  0.5562100000000  0.5008420000000 1.0
C      1  0.5666750000000  0.4809390000000  0.4586400000000 1.0
C      1  0.3670280000000  0.4856550000000  0.4500310000000 1.0
C      1  0.5024190000000  0.5508290000000  0.6034050000000 1.0
C      1  0.5282380000000  0.3809420000000  0.4219840000000 1.0
C      1  0.5377130000000  0.5358070000000  0.4020400000000 1.0
C      1  0.6100810000000  0.4829740000000  0.5454030000000 1.0
C      1  0.5157280000000  0.4665700000000  0.5170500000000 1.0
C      1  0.4723040000000  0.4518090000000  0.5171340000000 1.0
C      1  0.4493720000000  0.4641070000000  0.5293390000000 1.0
C      1  0.4929970000000  0.5534900000000  0.3988620000000 1.0
C      1  0.4374280000000  0.5299820000000  0.4288900000000 1.0
C      1  0.4209540000000  0.5890540000000  0.5334450000000 1.0
C      1  0.4698750000000  0.4471210000000  0.4549060000000 1.0
C      1  0.5040860000000  0.4250320000000  0.5772180000000 1.0
C      1  0.5456300000000  0.5851090000000  0.4383900000000 1.0
C      1  0.5172430000000  0.4220420000000  0.4972600000000 1.0
C      1  0.5018130000000  0.3745030000000  0.4149020000000 1.0
C      1  0.4811170000000  0.5300780000000  0.4084030000000 1.0
C      1  0.5473980000000  0.5009790000000  0.4594350000000 1.0
C      1  0.4752990000000  0.5682070000000  0.4949420000000 1.0
C      1  0.4043550000000  0.4933010000000  0.4944890000000 1.0
C      1  0.3462740000000  0.4921160000000  0.4961840000000 1.0
C      1  0.3627120000000  0.4982710000000  0.5454580000000 1.0
C      1  0.4650960000000  0.5286200000000  0.4318130000000 1.0
C      1  0.5815640000000  0.4414500000000  0.5043170000000 1.0
C      1  0.5233750000000  0.3844640000000  0.5429240000000 1.0
C      1  0.5230250000000  0.4504510000000  0.4285710000000 1.0
C      1  0.4131400000000  0.5903470000000  0.5078720000000 1.0
C      1  0.4603360000000  0.5142860000000  0.5961730000000 1.0
C      1  0.5206520000000  0.5747350000000  0.6013910000000 1.0
C      1  0.4094640000000  0.5843360000000  0.4806110000000 1.0
C      1  0.6225040000000  0.5515330000000  0.4697530000000 1.0
C      1  0.5190140000000  0.4286540000000  0.4100770000000 1.0
C      1  0.5025750000000  0.4406050000000  0.5536820000000 1.0
C      1  0.4488090000000  0.4902630000000  0.5172520000000 1.0
C      1  0.3518140000000  0.5785280000000  0.4047130000000 1.0
C      1  0.4952010000000  0.6118230000000  0.4988540000000 1.0
C      1  0.5140690000000  0.6119280000000  0.5182380000000 1.0
C      1  0.5331540000000  0.4915350000000  0.5925590000000 1.0
C      1  0.3853630000000  0.5412110000000  0.4884140000000 1.0
C      1  0.6046040000000  0.4448600000000  0.4882050000000 1.0
C      1  0.4865290000000  0.5638210000000  0.5497190000000 1.0
C      1  0.4353630000000  0.3908240000000  0.4468780000000 1.0
C      1  0.6110690000000  0.5218640000000  0.4023030000000 1.0
C      1  0.4805680000000  0.4844780000000  0.6272650000000 1.0
C      1  0.3787140000000  0.5146440000000  0.5598500000000 1.0
C      1  0.4538850000000  0.5132070000000  0.5325190000000 1.0
C      1  0.3873020000000  0.5415270000000  0.5573910000000 1.0
C      1  0.5448590000000  0.5062620000000  0.5081960000000 1.0
C      1  0.6247150000000  0.5652060000000  0.4930360000000 1.0
C      1  0.5616190000000  0.4572200000000  0.5903310000000 1.0
C      1  0.5397430000000  0.3670030000000  0.4434880000000 1.0
C      1  0.5394170000000  0.4464200000000  0.6055050000000 1.0
C      1  0.5317990000000  0.5233670000000  0.5289120000000 1.0
C      1  0.4043180000000  0.4428530000000  0.5127240000000 1.0
C      1  0.4731980000000  0.3783810000000  0.5336690000000 1.0
C      1  0.4560730000000  0.5590470000000  0.5450450000000 1.0
C      1  0.5492670000000  0.5104150000000  0.6050360000000 1.0
C      1  0.4860280000000  0.4031080000000  0.5730630000000 1.0
C      1  0.5564720000000  0.4553550000000  0.4648560000000 1.0
C      1  0.6055010000000  0.5421490000000  0.5607370000000 1.0
C      1  0.4741140000000  0.5122680000000  0.6202780000000 1.0
C      1  0.4769580000000  0.4843310000000  0.3955410000000 1.0
C      1  0.5220300000000  0.5368360000000  0.4786730000000 1.0
C      1  0.5563620000000  0.4473470000000  0.4919190000000 1.0
C      1  0.5596290000000  0.4916600000000  0.5515040000000 1.0
C      1  0.5608550000000  0.5721790000000  0.5656240000000 1.0
C      1  0.5668240000000  0.4144500000000  0.5420030000000 1.0
C      1  0.6133570000000  0.5045130000000  0.5242430000000 1.0
C      1  0.3667700000000  0.5710470000000  0.4252760000000 1.0
C      1  0.5837860000000  0.5904550000000  0.4648300000000 1.0
C      1  0.4501260000000  0.4538680000000  0.5958650000000 1.0
C      1  0.5272490000000  0.5863550000000  0.3934000000000 1.0
C      1  0.4606640000000  0.3982700000000  0.4362300000000 1.0
C      1  0.5691640000000  0.5729410000000  0.4484850000000 1.0
C      1  0.5445800000000  0.4031510000000  0.5830880000000 1.0
C      1  0.5819630000000  0.5308820000000  0.5006060000000 1.0
C      1  0.4310580000000  0.5707080000000  0.5526000000000 1.0
C      1  0.4784020000000  0.5239310000000  0.4564110000000 1.0
C      1  0.5066840000000  0.5946120000000  0.5858770000000 1.0
C      1  0.5933770000000  0.5991820000000  0.4883570000000 1.0
C      1  0.3632050000000  0.4991530000000  0.4745060000000 1.0
C      1  0.6075180000000  0.5210640000000  0.5800580000000 1.0
C      1  0.5883310000000  0.5699250000000  0.5259880000000 1.0
C      1  0.4485390000000  0.3830910000000  0.5202230000000 1.0
C      1  0.4767670000000  0.3812060000000  0.4211510000000 1.0
C      1  0.6059420000000  0.5817960000000  0.5068570000000 1.0
C      1  0.5851030000000  0.5258780000000  0.3961990000000 1.0
C      1  0.5214620000000  0.5006120000000  0.4463840000000 1.0
C      1  0.4946850000000  0.3858400000000  0.5511420000000 1.0
C      1  0.4779000000000  0.5103260000000  0.5473160000000 1.0
C      1  0.4047620000000  0.4299540000000  0.4300270000000 1.0
C      1  0.6217450000000  0.5256590000000  0.4268040000000 1.0
C      1  0.5159550000000  0.5117010000000  0.6375010000000 1.0
C      1  0.5257530000000  0.4612760000000  0.6261640000000 1.0
C      1  0.4134920000000  0.4062060000000  0.4384080000000 1.0
C      1  0.4960750000000  0.5629340000000  0.5141740000000 1.0
C      1  0.3491840000000  0.4918180000000  0.5230880000000 1.0
C      1  0.5021490000000  0.5165980000000  0.5334540000000 1.0
C      1  0.4806530000000  0.6045280000000  0.4325010000000 1.0
C      1  0.4353900000000  0.3748430000000  0.4698490000000 1.0
C      1  0.4240070000000  0.6215840000000  0.4446950000000 1.0
C      1  0.5289230000000  0.5311130000000  0.5722850000000 1.0
C      1  0.3843770000000  0.4736230000000  0.4334190000000 1.0
END
