TITL C-3623282-6910-80 -4.74383851356391e-07 125000 -605.993717905335 0 0 96 (C1) n - 1
REM
REM in /home/nfs/bkarasulu/CARBON/AIRSS/Generating-Clusters/LCBOP/Higher-Symm/SD-CG/FIRE-CG
REM
REM
REM
REM
REM
REM ./C.cell (b20cbc046b6831c77cfcea5457e17084)
REM AIRSS Version 0.9.1 bugfix July 2018 build 013d7b7c2542+ Fri, 06 Jul 2018 19:26:36 +0100
REM compiler GCC version 9.2.1 20190827 (Red Hat 9.2.1-1)
REM options -cpp -mtune=generic -march=x86-64 -g -O0 -fpre-include=/usr/include/finclude/math-vector-fortran.h
REM seed -465244287 -2011664743 -1693498258 363611377 -1370928682 1533478851 -758530702 1277180952 1076630957 2717994 -1031333580 288811430 1347623803 -889186161 -2141570567 943822880 22120311 -1150931955 730885838 -199385512 -1453424026 -1653370463 -1359193139 781732705 -1117925257 2130038686 291283017 -1974143315 152569785 -2052078703 -2015433586 -157067871 -1579471621
REM
CELL 1.54180   50.00000   50.00000   50.00000   90.00000   90.00000   90.00000
LATT -1
SFAC C  
C      1  0.4849240000000  0.4512030000000  0.5138950000000 1.0
C      1  0.4435720000000  0.5086400000000  0.4854350000000 1.0
C      1  0.5014860000000  0.4865420000000  0.4479140000000 1.0
C      1  0.4790440000000  0.5447310000000  0.4714200000000 1.0
C      1  0.5327580000000  0.4615830000000  0.4879260000000 1.0
C      1  0.5160800000000  0.5495700000000  0.5130810000000 1.0
C      1  0.4564960000000  0.4859170000000  0.5263360000000 1.0
C      1  0.5600390000000  0.5069500000000  0.5157320000000 1.0
C      1  0.5470970000000  0.4836380000000  0.4766830000000 1.0
C      1  0.5052870000000  0.5144190000000  0.5561950000000 1.0
C      1  0.4838190000000  0.4762140000000  0.5295300000000 1.0
C      1  0.4795920000000  0.5288220000000  0.4480970000000 1.0
C      1  0.5361230000000  0.4610570000000  0.5159400000000 1.0
C      1  0.5497240000000  0.5131950000000  0.4874620000000 1.0
C      1  0.4827830000000  0.4764400000000  0.4692920000000 1.0
C      1  0.5284330000000  0.5378390000000  0.4890930000000 1.0
C      1  0.4844780000000  0.4514260000000  0.4847510000000 1.0
C      1  0.4893550000000  0.5483150000000  0.5237970000000 1.0
C      1  0.5557810000000  0.4800250000000  0.5240990000000 1.0
C      1  0.4444320000000  0.5085820000000  0.5138490000000 1.0
C      1  0.4555360000000  0.4862020000000  0.4725060000000 1.0
C      1  0.4841320000000  0.5305330000000  0.5462460000000 1.0
C      1  0.5027620000000  0.4864050000000  0.5506780000000 1.0
C      1  0.5023440000000  0.5141370000000  0.4406270000000 1.0
C      1  0.4678470000000  0.4299130000000  0.5248940000000 1.0
C      1  0.4280070000000  0.5244940000000  0.4663360000000 1.0
C      1  0.5178120000000  0.4691040000000  0.4315350000000 1.0
C      1  0.4663730000000  0.5706600000000  0.4709320000000 1.0
C      1  0.5392750000000  0.4354820000000  0.4756690000000 1.0
C      1  0.5350660000000  0.5679530000000  0.5263210000000 1.0
C      1  0.4357330000000  0.4716530000000  0.5409840000000 1.0
C      1  0.5723870000000  0.5231280000000  0.5360390000000 1.0
C      1  0.5703570000000  0.4737340000000  0.4610570000000 1.0
C      1  0.5221160000000  0.5325510000000  0.5724210000000 1.0
C      1  0.4656330000000  0.4522030000000  0.5876240000000 1.0
C      1  0.4673850000000  0.5428650000000  0.4254220000000 1.0
C      1  0.5406770000000  0.4342670000000  0.5269930000000 1.0
C      1  0.5710330000000  0.5247680000000  0.4658670000000 1.0
C      1  0.4661640000000  0.4532100000000  0.4121240000000 1.0
C      1  0.5378350000000  0.5622870000000  0.4738740000000 1.0
C      1  0.4674860000000  0.4300310000000  0.4738800000000 1.0
C      1  0.4715870000000  0.5719170000000  0.5255520000000 1.0
C      1  0.5752710000000  0.4692100000000  0.5429650000000 1.0
C      1  0.4300250000000  0.5243290000000  0.5335550000000 1.0
C      1  0.4346480000000  0.4718880000000  0.4580940000000 1.0
C      1  0.4701230000000  0.5432520000000  0.5690050000000 1.0
C      1  0.5178740000000  0.4688000000000  0.5681760000000 1.0
C      1  0.5202410000000  0.5325950000000  0.4267090000000 1.0
C      1  0.4727560000000  0.5845590000000  0.4467260000000 1.0
C      1  0.5827060000000  0.4501500000000  0.4713830000000 1.0
C      1  0.4466170000000  0.4715650000000  0.5866730000000 1.0
C      1  0.4714020000000  0.4206380000000  0.5511340000000 1.0
C      1  0.5296960000000  0.5759530000000  0.5528580000000 1.0
C      1  0.5261720000000  0.4272630000000  0.4520680000000 1.0
C      1  0.5789450000000  0.5497700000000  0.5295730000000 1.0
C      1  0.4249010000000  0.4485440000000  0.5291990000000 1.0
C      1  0.4231750000000  0.5515920000000  0.4738650000000 1.0
C      1  0.4417110000000  0.5329740000000  0.4198480000000 1.0
C      1  0.5436680000000  0.4761240000000  0.4219920000000 1.0
C      1  0.5490310000000  0.5266880000000  0.5781980000000 1.0
C      1  0.5265700000000  0.5730970000000  0.4505890000000 1.0
C      1  0.4244110000000  0.4485150000000  0.4699080000000 1.0
C      1  0.5437030000000  0.4747900000000  0.5785270000000 1.0
C      1  0.5264610000000  0.4260090000000  0.5497600000000 1.0
C      1  0.4762510000000  0.5853710000000  0.5507460000000 1.0
C      1  0.4712650000000  0.4206310000000  0.4477290000000 1.0
C      1  0.4275210000000  0.5519650000000  0.5281170000000 1.0
C      1  0.5852990000000  0.4441110000000  0.5332890000000 1.0
C      1  0.5821010000000  0.5498180000000  0.4735670000000 1.0
C      1  0.5477240000000  0.5281900000000  0.4229170000000 1.0
C      1  0.4469350000000  0.4724880000000  0.4128460000000 1.0
C      1  0.4465030000000  0.5314780000000  0.5780280000000 1.0
C      1  0.5677100000000  0.4284710000000  0.5157230000000 1.0
C      1  0.4313550000000  0.5141650000000  0.5614120000000 1.0
C      1  0.5120100000000  0.5607200000000  0.4294470000000 1.0
C      1  0.5637370000000  0.5676800000000  0.4864730000000 1.0
C      1  0.4409150000000  0.4311830000000  0.4852000000000 1.0
C      1  0.4453370000000  0.5691020000000  0.5140320000000 1.0
C      1  0.4320620000000  0.4858490000000  0.4332790000000 1.0
C      1  0.5668760000000  0.5150270000000  0.4388190000000 1.0
C      1  0.5681380000000  0.4839980000000  0.5667030000000 1.0
C      1  0.5103170000000  0.4414030000000  0.5675570000000 1.0
C      1  0.4855870000000  0.5675920000000  0.5719110000000 1.0
C      1  0.4832480000000  0.4357120000000  0.4270290000000 1.0
C      1  0.4411270000000  0.4311450000000  0.5137450000000 1.0
C      1  0.5684870000000  0.5129480000000  0.5629670000000 1.0
C      1  0.4835120000000  0.5674190000000  0.4258660000000 1.0
C      1  0.4421490000000  0.5697300000000  0.4855970000000 1.0
C      1  0.5670290000000  0.4307380000000  0.4864080000000 1.0
C      1  0.5618590000000  0.5674580000000  0.5153280000000 1.0
C      1  0.5664330000000  0.4864400000000  0.4359040000000 1.0
C      1  0.4288860000000  0.5147820000000  0.4379200000000 1.0
C      1  0.4329620000000  0.4853430000000  0.5658350000000 1.0
C      1  0.4828430000000  0.4353590000000  0.5723880000000 1.0
C      1  0.5141430000000  0.5610900000000  0.5715230000000 1.0
C      1  0.5107180000000  0.4416810000000  0.4327810000000 1.0
END
