TITL C-3623289-7120-346 1.72009865143514e-07 125000 -404.848837636216 0 0 67 (C1) n - 1
REM
REM in /home/nfs/bkarasulu/CARBON/AIRSS/Generating-Clusters/LCBOP/Higher-Symm/SD-CG/FIRE-CG
REM
REM
REM
REM
REM
REM ./C.cell (b20cbc046b6831c77cfcea5457e17084)
REM AIRSS Version 0.9.1 bugfix July 2018 build 013d7b7c2542+ Fri, 06 Jul 2018 19:26:36 +0100
REM compiler GCC version 9.2.1 20190827 (Red Hat 9.2.1-1)
REM options -cpp -mtune=generic -march=x86-64 -g -O0 -fpre-include=/usr/include/finclude/math-vector-fortran.h
REM seed -205830151 -1496298874 -1308157991 796041556 1456491454 -812568038 382586106 145092027 1534909021 -1728847133 526169316 1373991262 38461458 -466998890 2024850123 122842351 1665779927 1362500071 -2095303542 -204783119 2095932281 1483167273 -930638637 -1336388609 697498360 949026390 -559526367 235914659 42748116 -1561216632 -480107207 -362327954 -703625335
REM
CELL 1.54180   50.00000   50.00000   50.00000   90.00000   90.00000   90.00000
LATT -1
SFAC C  
C      1  0.5069750000000  0.5736050000000  0.5225530000000 1.0
C      1  0.4889420000000  0.5253820000000  0.4222030000000 1.0
C      1  0.5072040000000  0.4259470000000  0.4763350000000 1.0
C      1  0.4856720000000  0.4746460000000  0.5731500000000 1.0
C      1  0.5318770000000  0.4295980000000  0.5317190000000 1.0
C      1  0.4631750000000  0.5363430000000  0.5725440000000 1.0
C      1  0.5322670000000  0.5699640000000  0.4645050000000 1.0
C      1  0.4732930000000  0.4706400000000  0.4318700000000 1.0
C      1  0.4620400000000  0.4720170000000  0.4974620000000 1.0
C      1  0.5473860000000  0.4824890000000  0.5398130000000 1.0
C      1  0.4679720000000  0.5233110000000  0.5125690000000 1.0
C      1  0.5394660000000  0.5096010000000  0.4657090000000 1.0
C      1  0.5380660000000  0.5110200000000  0.5727500000000 1.0
C      1  0.4510700000000  0.5649330000000  0.4917570000000 1.0
C      1  0.5415840000000  0.4867830000000  0.4248190000000 1.0
C      1  0.4474800000000  0.4307710000000  0.5115710000000 1.0
C      1  0.5451480000000  0.5384380000000  0.5277270000000 1.0
C      1  0.4500280000000  0.5296230000000  0.4572490000000 1.0
C      1  0.5478920000000  0.4563290000000  0.4660320000000 1.0
C      1  0.4443640000000  0.4707330000000  0.5441540000000 1.0
C      1  0.4832890000000  0.5487010000000  0.5570330000000 1.0
C      1  0.5142420000000  0.5518000000000  0.4527220000000 1.0
C      1  0.4881160000000  0.4635120000000  0.4545030000000 1.0
C      1  0.5123120000000  0.4486080000000  0.5409400000000 1.0
C      1  0.4999950000000  0.5361170000000  0.4722150000000 1.0
C      1  0.4986710000000  0.4835740000000  0.4726550000000 1.0
C      1  0.5079120000000  0.4661880000000  0.5186000000000 1.0
C      1  0.5026800000000  0.5297790000000  0.5480940000000 1.0
C      1  0.4822790000000  0.4389750000000  0.4700050000000 1.0
C      1  0.5116910000000  0.4654690000000  0.5654160000000 1.0
C      1  0.4809900000000  0.5652840000000  0.5327270000000 1.0
C      1  0.5156910000000  0.5323560000000  0.4306150000000 1.0
C      1  0.4940380000000  0.5175880000000  0.5236660000000 1.0
C      1  0.5123460000000  0.5099010000000  0.4787340000000 1.0
C      1  0.4900210000000  0.4738430000000  0.4988690000000 1.0
C      1  0.5289260000000  0.4860530000000  0.5189730000000 1.0
C      1  0.4274220000000  0.5142000000000  0.5476750000000 1.0
C      1  0.5702720000000  0.5508330000000  0.4894650000000 1.0
C      1  0.4327630000000  0.4873940000000  0.4529280000000 1.0
C      1  0.5693130000000  0.4534740000000  0.5067140000000 1.0
C      1  0.5923130000000  0.4519130000000  0.5212200000000 1.0
C      1  0.4065720000000  0.5315340000000  0.5480270000000 1.0
C      1  0.5945070000000  0.5566330000000  0.4787300000000 1.0
C      1  0.4119040000000  0.4700630000000  0.4522250000000 1.0
C      1  0.4594190000000  0.4436510000000  0.4891880000000 1.0
C      1  0.5353340000000  0.4831930000000  0.5662300000000 1.0
C      1  0.4633600000000  0.5523630000000  0.5134780000000 1.0
C      1  0.5356150000000  0.5116040000000  0.4369820000000 1.0
C      1  0.4636850000000  0.5184620000000  0.4335950000000 1.0
C      1  0.5340020000000  0.4348050000000  0.4811090000000 1.0
C      1  0.4601560000000  0.4844000000000  0.5653720000000 1.0
C      1  0.5325100000000  0.5631540000000  0.5146300000000 1.0
C      1  0.5639260000000  0.4731680000000  0.4855860000000 1.0
C      1  0.4325510000000  0.4932720000000  0.5282240000000 1.0
C      1  0.5631920000000  0.5259900000000  0.5046290000000 1.0
C      1  0.4383810000000  0.5074900000000  0.4735400000000 1.0
C      1  0.4474880000000  0.5557510000000  0.4667740000000 1.0
C      1  0.5459920000000  0.4639040000000  0.4388550000000 1.0
C      1  0.4428270000000  0.4440220000000  0.5350100000000 1.0
C      1  0.5309760000000  0.5295840000000  0.5520650000000 1.0
C      1  0.4492990000000  0.5121450000000  0.5671400000000 1.0
C      1  0.5462960000000  0.5672570000000  0.4890780000000 1.0
C      1  0.4537190000000  0.4908140000000  0.4328300000000 1.0
C      1  0.5471690000000  0.4339630000000  0.5077340000000 1.0
C      1  0.5596680000000  0.5024550000000  0.4855510000000 1.0
C      1  0.4480010000000  0.4997460000000  0.5020610000000 1.0
C      1  0.5153890000000  0.5083130000000  0.5081210000000 1.0
END
