TITL C-3623282-6910-198 -1.17653174284954e-06 125000 -624.727236293062 0 0 102 (C1) n - 1
REM
REM in /home/nfs/bkarasulu/CARBON/AIRSS/Generating-Clusters/LCBOP/Higher-Symm/SD-CG/FIRE-CG
REM
REM
REM
REM
REM
REM ./C.cell (b20cbc046b6831c77cfcea5457e17084)
REM AIRSS Version 0.9.1 bugfix July 2018 build 013d7b7c2542+ Fri, 06 Jul 2018 19:26:36 +0100
REM compiler GCC version 9.2.1 20190827 (Red Hat 9.2.1-1)
REM options -cpp -mtune=generic -march=x86-64 -g -O0 -fpre-include=/usr/include/finclude/math-vector-fortran.h
REM seed 1143432865 -1194104 1211522832 759215215 -270174227 -773758208 -678559035 -71559215 -1258128876 2040028727 -1401557343 -1550736068 -822779886 -1632063046 1328849080 -233508417 1231677229 -1400321050 -1299963007 -2103694629 -710414858 -554514714 -1915707814 -1383839079 -20664035 -598707249 632567702 512075589 -1124249787 -1745390762 -1484208959 -1959515535 -704532056
REM
CELL 1.54180   50.00000   50.00000   50.00000   90.00000   90.00000   90.00000
LATT -1
SFAC C  
C      1  0.5261280000000  0.5548820000000  0.3896020000000 1.0
C      1  0.5130610000000  0.4602760000000  0.4881320000000 1.0
C      1  0.5206980000000  0.5366230000000  0.5674200000000 1.0
C      1  0.5283070000000  0.5094950000000  0.5635340000000 1.0
C      1  0.5021480000000  0.4944540000000  0.4575450000000 1.0
C      1  0.4317680000000  0.4866350000000  0.5608920000000 1.0
C      1  0.5135730000000  0.4981400000000  0.5180860000000 1.0
C      1  0.4996720000000  0.4533860000000  0.4226710000000 1.0
C      1  0.5764810000000  0.4997580000000  0.4770370000000 1.0
C      1  0.4359060000000  0.4973070000000  0.4747540000000 1.0
C      1  0.4246230000000  0.4596440000000  0.5189020000000 1.0
C      1  0.5771260000000  0.4600180000000  0.5013040000000 1.0
C      1  0.5329450000000  0.5459080000000  0.4962600000000 1.0
C      1  0.4982040000000  0.4669790000000  0.4649100000000 1.0
C      1  0.4831470000000  0.5633120000000  0.4543600000000 1.0
C      1  0.5317810000000  0.5504000000000  0.5446820000000 1.0
C      1  0.5495280000000  0.4733840000000  0.5357890000000 1.0
C      1  0.4927870000000  0.5815100000000  0.4755840000000 1.0
C      1  0.5234140000000  0.5409300000000  0.4326060000000 1.0
C      1  0.5546380000000  0.5009440000000  0.4203330000000 1.0
C      1  0.4387010000000  0.4898320000000  0.4475190000000 1.0
C      1  0.5815240000000  0.4718030000000  0.4740860000000 1.0
C      1  0.4920850000000  0.5153570000000  0.3919330000000 1.0
C      1  0.4986860000000  0.5225970000000  0.5214150000000 1.0
C      1  0.5126080000000  0.4176890000000  0.5617100000000 1.0
C      1  0.4874550000000  0.5126820000000  0.4403300000000 1.0
C      1  0.5450890000000  0.5888880000000  0.4869630000000 1.0
C      1  0.4955160000000  0.4182730000000  0.4626470000000 1.0
C      1  0.4596920000000  0.5006260000000  0.4895730000000 1.0
C      1  0.4550910000000  0.3956680000000  0.5262220000000 1.0
C      1  0.5004630000000  0.4757060000000  0.5077450000000 1.0
C      1  0.4628230000000  0.5312380000000  0.5559980000000 1.0
C      1  0.5920020000000  0.5218800000000  0.4841690000000 1.0
C      1  0.5752480000000  0.4790210000000  0.5237740000000 1.0
C      1  0.5667150000000  0.5613080000000  0.4561410000000 1.0
C      1  0.4559500000000  0.5661330000000  0.4465780000000 1.0
C      1  0.5776170000000  0.5321670000000  0.5293180000000 1.0
C      1  0.4735910000000  0.5289810000000  0.5832770000000 1.0
C      1  0.5455100000000  0.4452680000000  0.4546320000000 1.0
C      1  0.4436480000000  0.4440530000000  0.4487850000000 1.0
C      1  0.5410580000000  0.4222500000000  0.5204610000000 1.0
C      1  0.5175390000000  0.5443150000000  0.5199710000000 1.0
C      1  0.4534680000000  0.4565630000000  0.5928570000000 1.0
C      1  0.4736890000000  0.5768060000000  0.5485990000000 1.0
C      1  0.4393010000000  0.4136890000000  0.5147390000000 1.0
C      1  0.5580170000000  0.5606700000000  0.4862160000000 1.0
C      1  0.4972420000000  0.4302800000000  0.5818170000000 1.0
C      1  0.5822710000000  0.5037850000000  0.5399720000000 1.0
C      1  0.5289140000000  0.5038000000000  0.4600050000000 1.0
C      1  0.4140360000000  0.5074730000000  0.5176740000000 1.0
C      1  0.4348900000000  0.4387150000000  0.4738750000000 1.0
C      1  0.5286260000000  0.4547750000000  0.4229940000000 1.0
C      1  0.5078060000000  0.5356200000000  0.3829510000000 1.0
C      1  0.4762710000000  0.4721660000000  0.4176490000000 1.0
C      1  0.4726400000000  0.4796450000000  0.5031450000000 1.0
C      1  0.5484890000000  0.5036010000000  0.4792860000000 1.0
C      1  0.4465950000000  0.5881320000000  0.4945090000000 1.0
C      1  0.4944050000000  0.4866080000000  0.5804950000000 1.0
C      1  0.4697700000000  0.5260340000000  0.4908940000000 1.0
C      1  0.5227930000000  0.4054590000000  0.5055880000000 1.0
C      1  0.4747470000000  0.5881300000000  0.4972920000000 1.0
C      1  0.5592670000000  0.4738010000000  0.4246340000000 1.0
C      1  0.4320630000000  0.4377880000000  0.5021820000000 1.0
C      1  0.4826320000000  0.5889570000000  0.5246560000000 1.0
C      1  0.4973630000000  0.5469770000000  0.5810930000000 1.0
C      1  0.4934330000000  0.4432420000000  0.4494220000000 1.0
C      1  0.4853740000000  0.4878390000000  0.5523800000000 1.0
C      1  0.5365470000000  0.4463230000000  0.4812430000000 1.0
C      1  0.3999350000000  0.5282840000000  0.4742140000000 1.0
C      1  0.4515540000000  0.4675860000000  0.4343990000000 1.0
C      1  0.5601610000000  0.5495520000000  0.5438670000000 1.0
C      1  0.4737920000000  0.4389810000000  0.5914800000000 1.0
C      1  0.4483150000000  0.4836050000000  0.5848520000000 1.0
C      1  0.4086310000000  0.5478000000000  0.4579060000000 1.0
C      1  0.4966010000000  0.5406960000000  0.4424970000000 1.0
C      1  0.4225780000000  0.4843120000000  0.5332820000000 1.0
C      1  0.5368300000000  0.5593010000000  0.4156710000000 1.0
C      1  0.5482520000000  0.4731720000000  0.5799470000000 1.0
C      1  0.4298900000000  0.5603560000000  0.4476240000000 1.0
C      1  0.5351800000000  0.4296730000000  0.5483740000000 1.0
C      1  0.5807910000000  0.5415320000000  0.5013470000000 1.0
C      1  0.4782910000000  0.5136890000000  0.5398640000000 1.0
C      1  0.4130650000000  0.5077270000000  0.4884800000000 1.0
C      1  0.4535380000000  0.5561110000000  0.5462170000000 1.0
C      1  0.5374860000000  0.5166700000000  0.4362080000000 1.0
C      1  0.4282150000000  0.5760370000000  0.5100780000000 1.0
C      1  0.4826780000000  0.5005480000000  0.4143320000000 1.0
C      1  0.4715760000000  0.5015010000000  0.5923500000000 1.0
C      1  0.5000440000000  0.3949680000000  0.5506850000000 1.0
C      1  0.4142780000000  0.5331730000000  0.5295170000000 1.0
C      1  0.5553190000000  0.4402310000000  0.5021720000000 1.0
C      1  0.5596120000000  0.5679180000000  0.4305390000000 1.0
C      1  0.5690920000000  0.4612530000000  0.4496560000000 1.0
C      1  0.5192790000000  0.5921020000000  0.4781350000000 1.0
C      1  0.5462420000000  0.4545210000000  0.5571740000000 1.0
C      1  0.5740290000000  0.4940760000000  0.5692610000000 1.0
C      1  0.5064330000000  0.4053840000000  0.4838850000000 1.0
C      1  0.4773250000000  0.3878710000000  0.5385960000000 1.0
C      1  0.4897410000000  0.5734260000000  0.5720830000000 1.0
C      1  0.5232780000000  0.4888080000000  0.5832550000000 1.0
C      1  0.5328690000000  0.4959530000000  0.5378400000000 1.0
C      1  0.4299040000000  0.5565850000000  0.5303950000000 1.0
END
