TITL C-3623287-7182-1833 -2.61379349084441e-07 125000 -276.619764299245 0 0 48 (C3i) n - 1
REM
REM in /home/nfs/bkarasulu/CARBON/AIRSS/Generating-Clusters/LCBOP/Higher-Symm/SD-CG/FIRE-CG
REM
REM
REM
REM
REM
REM ./C.cell (b20cbc046b6831c77cfcea5457e17084)
REM AIRSS Version 0.9.1 bugfix July 2018 build 013d7b7c2542+ Fri, 06 Jul 2018 19:26:36 +0100
REM compiler GCC version 9.2.1 20190827 (Red Hat 9.2.1-1)
REM options -cpp -mtune=generic -march=x86-64 -g -O0 -fpre-include=/usr/include/finclude/math-vector-fortran.h
REM seed -1526167864 229791676 1462361653 -1551692572 -1937742042 68063380 -512215656 -1630841113 -880313724 -393661868 -2142948609 -188868321 695084132 958839574 -566435252 1765911397 -239757426 1185216060 1728532711 -708147451 275613492 -809251697 263043266 -1818813806 170064528 -1047092785 896885013 523534913 1931413970 1857545915 2130982693 -565564510 -344757469
REM
CELL 1.54180   50.00000   50.00000   50.00000   90.00000   90.00000   90.00000
LATT -1
SFAC C  
C      1  0.5470410000000  0.5219640000000  0.5361860000000 1.0
C      1  0.4529590000000  0.4796430000000  0.5371140000000 1.0
C      1  0.5470420000000  0.4576800000000  0.5009280000000 1.0
C      1  0.4529590000000  0.4780360000000  0.4638140000000 1.0
C      1  0.5470410000000  0.5203570000000  0.4628860000000 1.0
C      1  0.4529580000000  0.5423200000000  0.4990720000000 1.0
C      1  0.4549560000000  0.4592130000000  0.4863000000000 1.0
C      1  0.5450450000000  0.4914720000000  0.4578270000000 1.0
C      1  0.4549550000000  0.5322580000000  0.4715280000000 1.0
C      1  0.5450440000000  0.5407870000000  0.5137000000000 1.0
C      1  0.4549550000000  0.5085280000000  0.5421730000000 1.0
C      1  0.5450450000000  0.4677420000000  0.5284720000000 1.0
C      1  0.4979800000000  0.4988240000000  0.4726530000000 1.0
C      1  0.5020200000000  0.5230950000000  0.4853080000000 1.0
C      1  0.4979800000000  0.5242710000000  0.5126550000000 1.0
C      1  0.5020200000000  0.5011760000000  0.5273470000000 1.0
C      1  0.4979800000000  0.4769050000000  0.5146920000000 1.0
C      1  0.5020200000000  0.4757290000000  0.4873450000000 1.0
C      1  0.4714780000000  0.4616540000000  0.5499850000000 1.0
C      1  0.5285230000000  0.4375390000000  0.4917840000000 1.0
C      1  0.4714780000000  0.4758850000000  0.4417990000000 1.0
C      1  0.5285220000000  0.5383460000000  0.4500150000000 1.0
C      1  0.4714770000000  0.5624610000000  0.5082160000000 1.0
C      1  0.5285220000000  0.5241150000000  0.5582010000000 1.0
C      1  0.4959890000000  0.4531410000000  0.5334350000000 1.0
C      1  0.5040120000000  0.4476150000000  0.4761370000000 1.0
C      1  0.4959890000000  0.4944740000000  0.4427010000000 1.0
C      1  0.5040110000000  0.5468590000000  0.4665650000000 1.0
C      1  0.4959880000000  0.5523850000000  0.5238630000000 1.0
C      1  0.5040110000000  0.5055260000000  0.5572990000000 1.0
C      1  0.4847940000000  0.5209880000000  0.4322480000000 1.0
C      1  0.5152050000000  0.5691690000000  0.4843000000000 1.0
C      1  0.4847940000000  0.5481810000000  0.5520520000000 1.0
C      1  0.5152060000000  0.4790120000000  0.5677520000000 1.0
C      1  0.4847950000000  0.4308310000000  0.5157000000000 1.0
C      1  0.5152060000000  0.4518190000000  0.4479480000000 1.0
C      1  0.5555820000000  0.4945940000000  0.5322880000000 1.0
C      1  0.4444190000000  0.4693340000000  0.5114620000000 1.0
C      1  0.5555820000000  0.4747420000000  0.4791740000000 1.0
C      1  0.4444180000000  0.5054060000000  0.4677120000000 1.0
C      1  0.5555810000000  0.5306660000000  0.4885380000000 1.0
C      1  0.4444180000000  0.5252580000000  0.5208260000000 1.0
C      1  0.4769190000000  0.5206470000000  0.5594860000000 1.0
C      1  0.5230810000000  0.4588080000000  0.5476240000000 1.0
C      1  0.4769200000000  0.4381600000000  0.4881380000000 1.0
C      1  0.5230810000000  0.4793530000000  0.4405140000000 1.0
C      1  0.4769190000000  0.5411920000000  0.4523760000000 1.0
C      1  0.5230800000000  0.5618400000000  0.5118620000000 1.0
END
