TITL C-3623287-7182-178 0.00042486839674295 125000 -793.746440950916 0 0 127 (C1) n - 1
REM
REM in /home/nfs/bkarasulu/CARBON/AIRSS/Generating-Clusters/LCBOP/Higher-Symm/SD-CG/FIRE-CG
REM
REM
REM
REM
REM
REM ./C.cell (b20cbc046b6831c77cfcea5457e17084)
REM AIRSS Version 0.9.1 bugfix July 2018 build 013d7b7c2542+ Fri, 06 Jul 2018 19:26:36 +0100
REM compiler GCC version 9.2.1 20190827 (Red Hat 9.2.1-1)
REM options -cpp -mtune=generic -march=x86-64 -g -O0 -fpre-include=/usr/include/finclude/math-vector-fortran.h
REM seed 1390533098 1021814861 -378741938 -1754880079 -165960854 -1834360321 -461517155 -1987684232 -552318283 -1487866828 1095494010 -475605646 -89955535 -1723703693 254098193 646958265 1388039767 1507838713 -1335946814 -512362644 -1781089472 -282980887 1372141238 744397787 1208873043 -911845287 94346521 -1212210836 1426191233 -1249498179 1830584648 395235663 -734290271
REM
CELL 1.54180   50.00000   50.00000   50.00000   90.00000   90.00000   90.00000
LATT -1
SFAC C  
C      1  0.5916110000000  0.4818310000000  0.4331610000000 1.0
C      1  0.3397980000000  0.4765640000000  0.5335730000000 1.0
C      1  0.5986310000000  0.4722190000000  0.6200950000000 1.0
C      1  0.4999320000000  0.4504920000000  0.4780450000000 1.0
C      1  0.4489740000000  0.4472590000000  0.4763840000000 1.0
C      1  0.5032610000000  0.4511550000000  0.5067920000000 1.0
C      1  0.3808360000000  0.5196560000000  0.4991190000000 1.0
C      1  0.5563080000000  0.5194000000000  0.5955330000000 1.0
C      1  0.5636420000000  0.5276380000000  0.4334950000000 1.0
C      1  0.4475630000000  0.4355160000000  0.5019010000000 1.0
C      1  0.5219130000000  0.4397180000000  0.5250290000000 1.0
C      1  0.5200760000000  0.4355730000000  0.4632920000000 1.0
C      1  0.4757560000000  0.5812750000000  0.5105060000000 1.0
C      1  0.5257780000000  0.5821110000000  0.5077190000000 1.0
C      1  0.4966610000000  0.5913740000000  0.4684570000000 1.0
C      1  0.4726140000000  0.5130610000000  0.5778950000000 1.0
C      1  0.5973810000000  0.5373090000000  0.4986840000000 1.0
C      1  0.4502830000000  0.5285100000000  0.4138390000000 1.0
C      1  0.4820200000000  0.4654780000000  0.5196190000000 1.0
C      1  0.5398610000000  0.4820200000000  0.5299500000000 1.0
C      1  0.4731930000000  0.4647510000000  0.4708000000000 1.0
C      1  0.4859450000000  0.5322290000000  0.5609940000000 1.0
C      1  0.5819090000000  0.5437480000000  0.4758440000000 1.0
C      1  0.4510370000000  0.5440670000000  0.4393200000000 1.0
C      1  0.3879760000000  0.4665610000000  0.5368040000000 1.0
C      1  0.6014600000000  0.4853690000000  0.5726460000000 1.0
C      1  0.5523530000000  0.4844580000000  0.3996710000000 1.0
C      1  0.4972550000000  0.4396970000000  0.5662640000000 1.0
C      1  0.5479250000000  0.4366370000000  0.4733000000000 1.0
C      1  0.4442920000000  0.4276610000000  0.4563010000000 1.0
C      1  0.4474510000000  0.4475540000000  0.5490240000000 1.0
C      1  0.5730290000000  0.4489050000000  0.5210560000000 1.0
C      1  0.4751170000000  0.4530210000000  0.4173220000000 1.0
C      1  0.4671470000000  0.4010190000000  0.5466950000000 1.0
C      1  0.5513080000000  0.4139630000000  0.4927230000000 1.0
C      1  0.4673240000000  0.4122860000000  0.4500330000000 1.0
C      1  0.4497720000000  0.5860270000000  0.4657790000000 1.0
C      1  0.4990560000000  0.5779430000000  0.5510340000000 1.0
C      1  0.5457280000000  0.5811950000000  0.4642240000000 1.0
C      1  0.5228840000000  0.5909790000000  0.4799640000000 1.0
C      1  0.4720950000000  0.5909970000000  0.4841850000000 1.0
C      1  0.5022420000000  0.5851610000000  0.5233990000000 1.0
C      1  0.5829360000000  0.4987700000000  0.5566320000000 1.0
C      1  0.5293990000000  0.4991520000000  0.4084180000000 1.0
C      1  0.4063310000000  0.4847100000000  0.5256320000000 1.0
C      1  0.5423440000000  0.4823240000000  0.4787650000000 1.0
C      1  0.4226430000000  0.4860100000000  0.4519860000000 1.0
C      1  0.5174970000000  0.4808530000000  0.5750670000000 1.0
C      1  0.4721030000000  0.5152650000000  0.4698700000000 1.0
C      1  0.5006150000000  0.5138640000000  0.5201860000000 1.0
C      1  0.5207970000000  0.5175180000000  0.5008020000000 1.0
C      1  0.4749100000000  0.3988900000000  0.4852080000000 1.0
C      1  0.4925730000000  0.4027580000000  0.5328030000000 1.0
C      1  0.5247350000000  0.3981470000000  0.4899840000000 1.0
C      1  0.6246740000000  0.5414640000000  0.5009160000000 1.0
C      1  0.4474370000000  0.5433270000000  0.3901070000000 1.0
C      1  0.4621530000000  0.5219570000000  0.6023190000000 1.0
C      1  0.5610690000000  0.5033750000000  0.6177930000000 1.0
C      1  0.5802420000000  0.5225840000000  0.4565910000000 1.0
C      1  0.3540340000000  0.5153450000000  0.5062330000000 1.0
C      1  0.4502780000000  0.5319510000000  0.4660230000000 1.0
C      1  0.5080230000000  0.5246260000000  0.5451390000000 1.0
C      1  0.5215870000000  0.5341180000000  0.4782150000000 1.0
C      1  0.5361930000000  0.4928350000000  0.4542730000000 1.0
C      1  0.4098860000000  0.4882950000000  0.4754780000000 1.0
C      1  0.5369740000000  0.4896180000000  0.5573560000000 1.0
C      1  0.4617790000000  0.5709110000000  0.4426850000000 1.0
C      1  0.4771290000000  0.5582510000000  0.5524910000000 1.0
C      1  0.5622370000000  0.5642920000000  0.4811830000000 1.0
C      1  0.5724870000000  0.4215250000000  0.5108590000000 1.0
C      1  0.4781670000000  0.4251130000000  0.4258580000000 1.0
C      1  0.4503730000000  0.4203180000000  0.5572450000000 1.0
C      1  0.5861480000000  0.4994800000000  0.5280430000000 1.0
C      1  0.5019380000000  0.4901270000000  0.4083050000000 1.0
C      1  0.4294550000000  0.4931140000000  0.5407930000000 1.0
C      1  0.4518040000000  0.4074640000000  0.4993400000000 1.0
C      1  0.5083570000000  0.4242420000000  0.5444860000000 1.0
C      1  0.5165300000000  0.4066530000000  0.4622310000000 1.0
C      1  0.6088010000000  0.4731970000000  0.5952490000000 1.0
C      1  0.5760740000000  0.4782250000000  0.4112740000000 1.0
C      1  0.3617500000000  0.4628400000000  0.5407640000000 1.0
C      1  0.5417600000000  0.5354600000000  0.5513420000000 1.0
C      1  0.5152490000000  0.5332320000000  0.4481250000000 1.0
C      1  0.4367810000000  0.5410170000000  0.4894810000000 1.0
C      1  0.4780540000000  0.4764990000000  0.3973250000000 1.0
C      1  0.4454540000000  0.4751960000000  0.5581450000000 1.0
C      1  0.5874990000000  0.4743450000000  0.5114980000000 1.0
C      1  0.5495400000000  0.5642750000000  0.5087020000000 1.0
C      1  0.4906080000000  0.5758760000000  0.4439330000000 1.0
C      1  0.4622890000000  0.5611140000000  0.5269450000000 1.0
C      1  0.5391000000000  0.5570690000000  0.5726540000000 1.0
C      1  0.5131380000000  0.5603650000000  0.4359920000000 1.0
C      1  0.4140280000000  0.5576390000000  0.4845390000000 1.0
C      1  0.4695700000000  0.4847240000000  0.5714020000000 1.0
C      1  0.5860760000000  0.4758880000000  0.4816350000000 1.0
C      1  0.4522960000000  0.4993060000000  0.4110070000000 1.0
C      1  0.4930460000000  0.4671800000000  0.5734310000000 1.0
C      1  0.5609560000000  0.4612140000000  0.4763660000000 1.0
C      1  0.4446590000000  0.4847170000000  0.4346520000000 1.0
C      1  0.4226190000000  0.5821040000000  0.4732170000000 1.0
C      1  0.5205890000000  0.5775000000000  0.5686660000000 1.0
C      1  0.5379880000000  0.5745750000000  0.4378130000000 1.0
C      1  0.4913270000000  0.5158990000000  0.4494690000000 1.0
C      1  0.4459140000000  0.5402120000000  0.5167050000000 1.0
C      1  0.5577170000000  0.5430270000000  0.5266440000000 1.0
C      1  0.5560960000000  0.5106300000000  0.5662800000000 1.0
C      1  0.5363310000000  0.5151810000000  0.4342620000000 1.0
C      1  0.3994000000000  0.4973250000000  0.5002180000000 1.0
C      1  0.5491280000000  0.5469300000000  0.5971120000000 1.0
C      1  0.5729010000000  0.5414100000000  0.4117010000000 1.0
C      1  0.3897660000000  0.5450510000000  0.4903970000000 1.0
C      1  0.4456820000000  0.5576020000000  0.3683760000000 1.0
C      1  0.4524840000000  0.5306620000000  0.6248970000000 1.0
C      1  0.6504740000000  0.5444860000000  0.5029830000000 1.0
C      1  0.5455860000000  0.4545030000000  0.5283470000000 1.0
C      1  0.4712900000000  0.4712080000000  0.4422340000000 1.0
C      1  0.4580340000000  0.4505490000000  0.5228250000000 1.0
C      1  0.4818740000000  0.4931380000000  0.5127470000000 1.0
C      1  0.5373190000000  0.4946580000000  0.5035760000000 1.0
C      1  0.4722240000000  0.4923130000000  0.4856260000000 1.0
C      1  0.5809630000000  0.5263840000000  0.5189140000000 1.0
C      1  0.4924390000000  0.4921590000000  0.4355160000000 1.0
C      1  0.4386340000000  0.5189100000000  0.5336820000000 1.0
C      1  0.5905800000000  0.4947050000000  0.4590360000000 1.0
C      1  0.3371630000000  0.4990030000000  0.5190480000000 1.0
C      1  0.5771750000000  0.4854660000000  0.6294240000000 1.0
C      1  0.4984090000000  0.3959830000000  0.5037500000000 1.0
END
