TITL C-3623288-6813-747 -2.76777643173931e-07 125000 -335.785038691111 0 0 56 (C3) n - 1
REM
REM in /home/nfs/bkarasulu/CARBON/AIRSS/Generating-Clusters/LCBOP/Higher-Symm/SD-CG/FIRE-CG
REM
REM
REM
REM
REM
REM ./C.cell (b20cbc046b6831c77cfcea5457e17084)
REM AIRSS Version 0.9.1 bugfix July 2018 build 013d7b7c2542+ Fri, 06 Jul 2018 19:26:36 +0100
REM compiler GCC version 9.2.1 20190827 (Red Hat 9.2.1-1)
REM options -cpp -mtune=generic -march=x86-64 -g -O0 -fpre-include=/usr/include/finclude/math-vector-fortran.h
REM seed -683446315 330297659 819357015 97349473 125940761 989037627 -1284078057 769284337 -2032812943 148610184 -1388387569 -1083757123 1406162859 -270889333 -360973719 -664346088 2112835985 753463905 -2076884878 299053632 -1669657763 1202177383 911904698 -832152048 -566936209 -1178471182 1894887781 361469120 359119233 -487724701 1201965705 1264252419 122687270
REM
CELL 1.54180   50.00000   50.00000   50.00000   90.00000   90.00000   90.00000
LATT -1
SFAC C  
C      1  0.5591110000000  0.5536070000000  0.4875060000000 1.0
C      1  0.5591100000000  0.4839590000000  0.5520370000000 1.0
C      1  0.5591070000000  0.4628980000000  0.4594550000000 1.0
C      1  0.4769240000000  0.4734920000000  0.5271970000000 1.0
C      1  0.4769230000000  0.4896500000000  0.4628110000000 1.0
C      1  0.4769260000000  0.5373310000000  0.5089970000000 1.0
C      1  0.5207620000000  0.4646490000000  0.5349760000000 1.0
C      1  0.5207610000000  0.4873310000000  0.4512630000000 1.0
C      1  0.5207650000000  0.5484880000000  0.5127620000000 1.0
C      1  0.5441560000000  0.4431300000000  0.4749960000000 1.0
C      1  0.5441600000000  0.5500330000000  0.4626170000000 1.0
C      1  0.5441610000000  0.5073020000000  0.5613870000000 1.0
C      1  0.5583550000000  0.5268510000000  0.4512580000000 1.0
C      1  0.5583580000000  0.5287300000000  0.5469900000000 1.0
C      1  0.5583530000000  0.4448840000000  0.5007510000000 1.0
C      1  0.5715190000000  0.5289440000000  0.4970400000000 1.0
C      1  0.5715180000000  0.4880330000000  0.5259110000000 1.0
C      1  0.5715160000000  0.4834860000000  0.4760460000000 1.0
C      1  0.4482560000000  0.4541040000000  0.4945740000000 1.0
C      1  0.4482580000000  0.5275990000000  0.4623320000000 1.0
C      1  0.4482600000000  0.5187740000000  0.5421020000000 1.0
C      1  0.4618020000000  0.5540070000000  0.4628170000000 1.0
C      1  0.4618020000000  0.5051490000000  0.5647290000000 1.0
C      1  0.4617970000000  0.4413200000000  0.4714600000000 1.0
C      1  0.5030300000000  0.4809630000000  0.5210260000000 1.0
C      1  0.5030290000000  0.4912570000000  0.4723660000000 1.0
C      1  0.5030320000000  0.5282500000000  0.5056110000000 1.0
C      1  0.4427930000000  0.5694000000000  0.4788180000000 1.0
C      1  0.4427920000000  0.4835960000000  0.5700590000000 1.0
C      1  0.4427880000000  0.4474810000000  0.4501300000000 1.0
C      1  0.4591540000000  0.5401170000000  0.5284620000000 1.0
C      1  0.4591510000000  0.4552440000000  0.5198780000000 1.0
C      1  0.4591510000000  0.5051150000000  0.4506670000000 1.0
C      1  0.4236150000000  0.4660550000000  0.4584980000000 1.0
C      1  0.4236190000000  0.5528690000000  0.4907200000000 1.0
C      1  0.4236180000000  0.4815560000000  0.5497920000000 1.0
C      1  0.5322580000000  0.4950830000000  0.4283130000000 1.0
C      1  0.5322640000000  0.5644860000000  0.5309500000000 1.0
C      1  0.5322590000000  0.4408980000000  0.5397370000000 1.0
C      1  0.4896050000000  0.5076450000000  0.5706980000000 1.0
C      1  0.4896000000000  0.4349000000000  0.4706380000000 1.0
C      1  0.4896040000000  0.5579270000000  0.4576690000000 1.0
C      1  0.5507970000000  0.5556140000000  0.5483460000000 1.0
C      1  0.5507910000000  0.4302670000000  0.5233550000000 1.0
C      1  0.5507920000000  0.5145840000000  0.4272970000000 1.0
C      1  0.5168420000000  0.5082260000000  0.5697030000000 1.0
C      1  0.5168370000000  0.4354690000000  0.4716380000000 1.0
C      1  0.5168410000000  0.5567750000000  0.4576610000000 1.0
C      1  0.5712220000000  0.5175390000000  0.5229800000000 1.0
C      1  0.5712200000000  0.4712720000000  0.5030640000000 1.0
C      1  0.5712200000000  0.5116520000000  0.4729530000000 1.0
C      1  0.4282250000000  0.5012220000000  0.5287140000000 1.0
C      1  0.4282220000000  0.4744760000000  0.4860680000000 1.0
C      1  0.4282240000000  0.5247820000000  0.4842280000000 1.0
C      1  0.5067700000000  0.5001570000000  0.4996680000000 1.0
C      1  0.4257380000000  0.5001600000000  0.4996700000000 1.0
END
