TITL C-3623284-6838-1098 -3.50833274007754e-07 125000 -543.666747461888 0 0 92 (Ci) n - 1
REM
REM in /home/nfs/bkarasulu/CARBON/AIRSS/Generating-Clusters/LCBOP/Higher-Symm/SD-CG/FIRE-CG
REM
REM
REM
REM
REM
REM ./C.cell (b20cbc046b6831c77cfcea5457e17084)
REM AIRSS Version 0.9.1 bugfix July 2018 build 013d7b7c2542+ Fri, 06 Jul 2018 19:26:36 +0100
REM compiler GCC version 9.2.1 20190827 (Red Hat 9.2.1-1)
REM options -cpp -mtune=generic -march=x86-64 -g -O0 -fpre-include=/usr/include/finclude/math-vector-fortran.h
REM seed 1187987341 -221014404 -155498096 -1460998620 -694739274 846918801 -1921454442 -797698795 -1876977948 211896274 1599521386 -1471906692 -1047314061 -1692519879 -670582777 -335817092 -654731272 1448109093 -1080248081 -963514270 148549514 -57050999 2080376402 -627400300 1192856554 -1301058322 -1980009207 1825100442 659824057 -1713142309 -1642128311 -536333486 551809527
REM
CELL 1.54180   50.00000   50.00000   50.00000   90.00000   90.00000   90.00000
LATT -1
SFAC C  
C      1  0.5414850000000  0.4145240000000  0.4804030000000 1.0
C      1  0.4731300000000  0.4521510000000  0.5490510000000 1.0
C      1  0.5286270000000  0.5151760000000  0.5661060000000 1.0
C      1  0.4585150000000  0.5848510000000  0.5188270000000 1.0
C      1  0.5268700000000  0.5472240000000  0.4501800000000 1.0
C      1  0.4713730000000  0.4841980000000  0.4331240000000 1.0
C      1  0.4524570000000  0.5542630000000  0.5554450000000 1.0
C      1  0.5419410000000  0.5670640000000  0.4870900000000 1.0
C      1  0.4467700000000  0.5256170000000  0.4289250000000 1.0
C      1  0.5475430000000  0.4451120000000  0.4437860000000 1.0
C      1  0.4580590000000  0.4323110000000  0.5121410000000 1.0
C      1  0.5532300000000  0.4737580000000  0.5703060000000 1.0
C      1  0.4971640000000  0.4801030000000  0.4461620000000 1.0
C      1  0.5167370000000  0.4009710000000  0.4802090000000 1.0
C      1  0.5007830000000  0.4570610000000  0.5456310000000 1.0
C      1  0.5028360000000  0.5192720000000  0.5530690000000 1.0
C      1  0.4832630000000  0.5984040000000  0.5190220000000 1.0
C      1  0.4992170000000  0.5423140000000  0.4536000000000 1.0
C      1  0.4574500000000  0.5050510000000  0.4450340000000 1.0
C      1  0.5400850000000  0.4416870000000  0.4713720000000 1.0
C      1  0.4631170000000  0.4574480000000  0.5239350000000 1.0
C      1  0.5425500000000  0.4943240000000  0.5541970000000 1.0
C      1  0.4599150000000  0.5576880000000  0.5278590000000 1.0
C      1  0.5368830000000  0.5419270000000  0.4752960000000 1.0
C      1  0.4292680000000  0.4594410000000  0.4328850000000 1.0
C      1  0.5807280000000  0.4196720000000  0.5084950000000 1.0
C      1  0.4307290000000  0.4664240000000  0.5669550000000 1.0
C      1  0.5707320000000  0.5399340000000  0.5663460000000 1.0
C      1  0.4192720000000  0.5797030000000  0.4907360000000 1.0
C      1  0.5692710000000  0.5329510000000  0.4322760000000 1.0
C      1  0.5216410000000  0.5163630000000  0.4179190000000 1.0
C      1  0.4773760000000  0.4397010000000  0.4410880000000 1.0
C      1  0.5302270000000  0.4135240000000  0.5259780000000 1.0
C      1  0.4783590000000  0.4830120000000  0.5813120000000 1.0
C      1  0.5226240000000  0.5596740000000  0.5581430000000 1.0
C      1  0.4697730000000  0.5858510000000  0.4732530000000 1.0
C      1  0.5538310000000  0.4105360000000  0.5063420000000 1.0
C      1  0.4586900000000  0.4630240000000  0.5713280000000 1.0
C      1  0.5425260000000  0.5405210000000  0.5708660000000 1.0
C      1  0.4461690000000  0.5888390000000  0.4928890000000 1.0
C      1  0.5413100000000  0.5363510000000  0.4279030000000 1.0
C      1  0.4574740000000  0.4588540000000  0.4283650000000 1.0
C      1  0.5249130000000  0.5170620000000  0.4855150000000 1.0
C      1  0.4702940000000  0.5062200000000  0.4712670000000 1.0
C      1  0.5254670000000  0.4635290000000  0.4870690000000 1.0
C      1  0.4750870000000  0.4823130000000  0.5137150000000 1.0
C      1  0.5297060000000  0.4931540000000  0.5279640000000 1.0
C      1  0.4745330000000  0.5358460000000  0.5121620000000 1.0
C      1  0.5015250000000  0.4099140000000  0.5021640000000 1.0
C      1  0.5088020000000  0.4635940000000  0.5720460000000 1.0
C      1  0.4965890000000  0.5459180000000  0.5638230000000 1.0
C      1  0.4984750000000  0.5894610000000  0.4970670000000 1.0
C      1  0.4911980000000  0.5357810000000  0.4271850000000 1.0
C      1  0.5034110000000  0.4534570000000  0.4354080000000 1.0
C      1  0.5471200000000  0.4915310000000  0.4538550000000 1.0
C      1  0.4540740000000  0.4626500000000  0.4776900000000 1.0
C      1  0.5503900000000  0.4545580000000  0.5263880000000 1.0
C      1  0.4528800000000  0.5078440000000  0.5453760000000 1.0
C      1  0.5459260000000  0.5367250000000  0.5215410000000 1.0
C      1  0.4496100000000  0.5448170000000  0.4728430000000 1.0
C      1  0.5354040000000  0.4888990000000  0.4256970000000 1.0
C      1  0.4691010000000  0.4377630000000  0.4691760000000 1.0
C      1  0.5403350000000  0.4337660000000  0.5459050000000 1.0
C      1  0.4645960000000  0.5104750000000  0.5735340000000 1.0
C      1  0.5308990000000  0.5616120000000  0.5300550000000 1.0
C      1  0.4596650000000  0.5656090000000  0.4533260000000 1.0
C      1  0.5726280000000  0.5224700000000  0.5201110000000 1.0
C      1  0.4263580000000  0.5315620000000  0.4865380000000 1.0
C      1  0.5706760000000  0.5005260000000  0.4699350000000 1.0
C      1  0.4273720000000  0.4769050000000  0.4791200000000 1.0
C      1  0.5736420000000  0.4678130000000  0.5126930000000 1.0
C      1  0.4293240000000  0.4988490000000  0.5292960000000 1.0
C      1  0.4766680000000  0.4222650000000  0.4932210000000 1.0
C      1  0.5358930000000  0.4506690000000  0.5713460000000 1.0
C      1  0.4698580000000  0.5403880000000  0.5736310000000 1.0
C      1  0.5233320000000  0.5771090000000  0.5060100000000 1.0
C      1  0.4641070000000  0.5487050000000  0.4278850000000 1.0
C      1  0.5301420000000  0.4589870000000  0.4256000000000 1.0
C      1  0.4173010000000  0.4787930000000  0.5463960000000 1.0
C      1  0.5849860000000  0.5294810000000  0.5452410000000 1.0
C      1  0.4093600000000  0.5541550000000  0.4923440000000 1.0
C      1  0.5826990000000  0.5205820000000  0.4528340000000 1.0
C      1  0.4150140000000  0.4698930000000  0.4539890000000 1.0
C      1  0.5906400000000  0.4452200000000  0.5068870000000 1.0
C      1  0.4789010000000  0.5090790000000  0.5287960000000 1.0
C      1  0.5282180000000  0.5159830000000  0.5128400000000 1.0
C      1  0.4760340000000  0.5327140000000  0.4810080000000 1.0
C      1  0.5210990000000  0.4902960000000  0.4704350000000 1.0
C      1  0.4717820000000  0.4833920000000  0.4863910000000 1.0
C      1  0.5239660000000  0.4666600000000  0.5182220000000 1.0
C      1  0.5745550000000  0.4967090000000  0.5007620000000 1.0
C      1  0.4254450000000  0.5026650000000  0.4984690000000 1.0
END
