TITL C-3623287-7182-671 0.319395559566662 125000 -830.937723156081 0 0 134 (C1) n - 1
REM
REM in /home/nfs/bkarasulu/CARBON/AIRSS/Generating-Clusters/LCBOP/Higher-Symm/SD-CG/FIRE-CG
REM
REM
REM
REM
REM
REM ./C.cell (b20cbc046b6831c77cfcea5457e17084)
REM AIRSS Version 0.9.1 bugfix July 2018 build 013d7b7c2542+ Fri, 06 Jul 2018 19:26:36 +0100
REM compiler GCC version 9.2.1 20190827 (Red Hat 9.2.1-1)
REM options -cpp -mtune=generic -march=x86-64 -g -O0 -fpre-include=/usr/include/finclude/math-vector-fortran.h
REM seed -38420023 1226708042 -938703195 -580041973 693421027 -121400870 -2063824765 1752628951 463748234 582991736 -1877372626 -339083384 -305036824 -392388425 2010295405 -472782296 -184283893 -172858734 -177400073 2110222344 -890826853 514349156 1941474776 -716111519 -541918010 737340409 -476955126 891445348 -2126605823 1747648397 -152653928 -1855290248 -1811638219
REM
CELL 1.54180   50.00000   50.00000   50.00000   90.00000   90.00000   90.00000
LATT -1
SFAC C  
C      1  0.4743910000000  0.5503250000000  0.5458650000000 1.0
C      1  0.5382310000000  0.4613260000000  0.4799560000000 1.0
C      1  0.5360760000000  0.4718700000000  0.6068500000000 1.0
C      1  0.4759090000000  0.5164780000000  0.4021730000000 1.0
C      1  0.5339370000000  0.6217050000000  0.3705880000000 1.0
C      1  0.4968610000000  0.3602720000000  0.5224690000000 1.0
C      1  0.4372770000000  0.5396770000000  0.4906880000000 1.0
C      1  0.5854120000000  0.4946440000000  0.5169660000000 1.0
C      1  0.5468940000000  0.4200400000000  0.5415960000000 1.0
C      1  0.4686660000000  0.5977760000000  0.4265290000000 1.0
C      1  0.5054390000000  0.5724690000000  0.5153570000000 1.0
C      1  0.4897480000000  0.4654110000000  0.4656900000000 1.0
C      1  0.4153510000000  0.4459380000000  0.4417860000000 1.0
C      1  0.4935740000000  0.5550810000000  0.6122650000000 1.0
C      1  0.5589160000000  0.4809070000000  0.4717790000000 1.0
C      1  0.4556250000000  0.5283290000000  0.5443590000000 1.0
C      1  0.5152470000000  0.4682400000000  0.5871040000000 1.0
C      1  0.4990300000000  0.5255360000000  0.4161080000000 1.0
C      1  0.5078840000000  0.6102750000000  0.5717480000000 1.0
C      1  0.5973830000000  0.4248620000000  0.5096940000000 1.0
C      1  0.4683480000000  0.4171910000000  0.5601730000000 1.0
C      1  0.5596340000000  0.5617220000000  0.4053310000000 1.0
C      1  0.5538610000000  0.5316320000000  0.4694010000000 1.0
C      1  0.4625970000000  0.4814980000000  0.5260640000000 1.0
C      1  0.5019390000000  0.4186130000000  0.5278260000000 1.0
C      1  0.5295020000000  0.5909480000000  0.4262840000000 1.0
C      1  0.5378670000000  0.5945420000000  0.3758620000000 1.0
C      1  0.4866290000000  0.3738030000000  0.5451220000000 1.0
C      1  0.4586060000000  0.4857290000000  0.6003170000000 1.0
C      1  0.5202120000000  0.4744230000000  0.4256220000000 1.0
C      1  0.5045380000000  0.5294570000000  0.6087370000000 1.0
C      1  0.4345660000000  0.4639670000000  0.4325810000000 1.0
C      1  0.4716550000000  0.4560850000000  0.5333470000000 1.0
C      1  0.5488030000000  0.5544610000000  0.4525030000000 1.0
C      1  0.4350310000000  0.5099850000000  0.4525240000000 1.0
C      1  0.5848640000000  0.5097900000000  0.5618280000000 1.0
C      1  0.5221690000000  0.4612370000000  0.5369450000000 1.0
C      1  0.4982050000000  0.5676720000000  0.4557910000000 1.0
C      1  0.4085880000000  0.5722070000000  0.5113970000000 1.0
C      1  0.6280950000000  0.4904500000000  0.4941830000000 1.0
C      1  0.4894970000000  0.5925970000000  0.5663890000000 1.0
C      1  0.5746980000000  0.4311020000000  0.4984590000000 1.0
C      1  0.5654370000000  0.5372020000000  0.4948940000000 1.0
C      1  0.4520880000000  0.4820930000000  0.4992530000000 1.0
C      1  0.4428830000000  0.4635140000000  0.4058800000000 1.0
C      1  0.4985920000000  0.5115330000000  0.6300580000000 1.0
C      1  0.4979510000000  0.5504170000000  0.5296790000000 1.0
C      1  0.5114340000000  0.4740860000000  0.4821800000000 1.0
C      1  0.5825480000000  0.5663620000000  0.5301140000000 1.0
C      1  0.4034640000000  0.4836810000000  0.5086020000000 1.0
C      1  0.5092130000000  0.3649870000000  0.4988650000000 1.0
C      1  0.5185260000000  0.6431660000000  0.3738700000000 1.0
C      1  0.5211630000000  0.4742280000000  0.3972930000000 1.0
C      1  0.4728840000000  0.4706310000000  0.6214320000000 1.0
C      1  0.5961030000000  0.4577460000000  0.4530880000000 1.0
C      1  0.4127910000000  0.5450090000000  0.5601740000000 1.0
C      1  0.4245420000000  0.5500720000000  0.5133770000000 1.0
C      1  0.6009990000000  0.4871770000000  0.4945820000000 1.0
C      1  0.4962350000000  0.6514670000000  0.3859170000000 1.0
C      1  0.5230290000000  0.3836240000000  0.4846990000000 1.0
C      1  0.5121610000000  0.5174210000000  0.5837900000000 1.0
C      1  0.4456440000000  0.4830670000000  0.4504820000000 1.0
C      1  0.4648610000000  0.4168380000000  0.6257530000000 1.0
C      1  0.5162550000000  0.5015460000000  0.3556090000000 1.0
C      1  0.4769120000000  0.6427150000000  0.4020400000000 1.0
C      1  0.5333490000000  0.4084320000000  0.4937250000000 1.0
C      1  0.5494710000000  0.5043520000000  0.4587680000000 1.0
C      1  0.4623430000000  0.5005480000000  0.5484660000000 1.0
C      1  0.4258560000000  0.4935710000000  0.4967880000000 1.0
C      1  0.5786100000000  0.5413060000000  0.5200200000000 1.0
C      1  0.5065880000000  0.5164640000000  0.4423020000000 1.0
C      1  0.5008000000000  0.4914620000000  0.5789690000000 1.0
C      1  0.5462400000000  0.5393690000000  0.3946910000000 1.0
C      1  0.4838550000000  0.4258630000000  0.5818860000000 1.0
C      1  0.5276470000000  0.5514070000000  0.3448850000000 1.0
C      1  0.4738280000000  0.3738180000000  0.5961410000000 1.0
C      1  0.5629810000000  0.4807000000000  0.5263490000000 1.0
C      1  0.4593090000000  0.5497210000000  0.4765400000000 1.0
C      1  0.5611700000000  0.4806880000000  0.5975990000000 1.0
C      1  0.4509940000000  0.5267550000000  0.4094660000000 1.0
C      1  0.5285450000000  0.4117370000000  0.5216780000000 1.0
C      1  0.4677080000000  0.6221880000000  0.4162070000000 1.0
C      1  0.5872610000000  0.5178280000000  0.5339070000000 1.0
C      1  0.4266250000000  0.5159020000000  0.4793790000000 1.0
C      1  0.5738090000000  0.4849570000000  0.5726190000000 1.0
C      1  0.4420020000000  0.5322910000000  0.4353640000000 1.0
C      1  0.5489020000000  0.4313420000000  0.4810040000000 1.0
C      1  0.4693990000000  0.5735600000000  0.5622970000000 1.0
C      1  0.4380640000000  0.5030040000000  0.6089030000000 1.0
C      1  0.4994390000000  0.4597680000000  0.4393390000000 1.0
C      1  0.3973630000000  0.4306260000000  0.4537650000000 1.0
C      1  0.4695820000000  0.5623380000000  0.6221130000000 1.0
C      1  0.5664410000000  0.4663560000000  0.5519070000000 1.0
C      1  0.4526630000000  0.5556450000000  0.4482390000000 1.0
C      1  0.5686700000000  0.5579630000000  0.4319410000000 1.0
C      1  0.4545730000000  0.4381130000000  0.5471420000000 1.0
C      1  0.4201630000000  0.5659120000000  0.5756520000000 1.0
C      1  0.5826130000000  0.4363690000000  0.4432740000000 1.0
C      1  0.5869130000000  0.4761160000000  0.4725210000000 1.0
C      1  0.4288480000000  0.5369570000000  0.5383350000000 1.0
C      1  0.5249330000000  0.5279830000000  0.5611730000000 1.0
C      1  0.4631860000000  0.4746460000000  0.4726290000000 1.0
C      1  0.4998500000000  0.5215800000000  0.4703040000000 1.0
C      1  0.5198440000000  0.5072190000000  0.5162520000000 1.0
C      1  0.4339420000000  0.5269460000000  0.6201100000000 1.0
C      1  0.3619410000000  0.4021810000000  0.4802280000000 1.0
C      1  0.3794980000000  0.4162040000000  0.4670090000000 1.0
C      1  0.4459970000000  0.5501240000000  0.6260100000000 1.0
C      1  0.4678780000000  0.3922950000000  0.6149010000000 1.0
C      1  0.5225290000000  0.5251290000000  0.3445520000000 1.0
C      1  0.4807950000000  0.3650660000000  0.5715080000000 1.0
C      1  0.5329920000000  0.5752670000000  0.3557490000000 1.0
C      1  0.4736720000000  0.5743860000000  0.4405360000000 1.0
C      1  0.5451150000000  0.4469180000000  0.5500770000000 1.0
C      1  0.4442770000000  0.5777530000000  0.5743660000000 1.0
C      1  0.5601330000000  0.4250070000000  0.4534960000000 1.0
C      1  0.5161020000000  0.5291210000000  0.5341640000000 1.0
C      1  0.5087930000000  0.5025040000000  0.4903570000000 1.0
C      1  0.4588370000000  0.4739160000000  0.3872370000000 1.0
C      1  0.4966250000000  0.4834740000000  0.6329510000000 1.0
C      1  0.5056040000000  0.4871460000000  0.3773070000000 1.0
C      1  0.4660660000000  0.4437250000000  0.6276490000000 1.0
C      1  0.4789190000000  0.4933070000000  0.3857370000000 1.0
C      1  0.5227170000000  0.4713480000000  0.6321010000000 1.0
C      1  0.5285640000000  0.4983210000000  0.4399930000000 1.0
C      1  0.4722340000000  0.4912590000000  0.5750250000000 1.0
C      1  0.4983870000000  0.4472080000000  0.5304900000000 1.0
C      1  0.5252700000000  0.5719850000000  0.4479630000000 1.0
C      1  0.4882930000000  0.5471020000000  0.4747030000000 1.0
C      1  0.5343890000000  0.4847200000000  0.5253040000000 1.0
C      1  0.5205990000000  0.5334260000000  0.3998340000000 1.0
C      1  0.5038720000000  0.4427660000000  0.5861660000000 1.0
C      1  0.5441520000000  0.5858710000000  0.4022270000000 1.0
C      1  0.4839040000000  0.4018130000000  0.5418260000000 1.0
END
