TITL C-3623285-6872-580 -0.019729554038092 125000 -430.356416444826 0 0 74 (C3) n - 1
REM
REM in /home/nfs/bkarasulu/CARBON/AIRSS/Generating-Clusters/LCBOP/Higher-Symm/SD-CG/FIRE-CG
REM
REM
REM
REM
REM
REM ./C.cell (b20cbc046b6831c77cfcea5457e17084)
REM AIRSS Version 0.9.1 bugfix July 2018 build 013d7b7c2542+ Fri, 06 Jul 2018 19:26:36 +0100
REM compiler GCC version 9.2.1 20190827 (Red Hat 9.2.1-1)
REM options -cpp -mtune=generic -march=x86-64 -g -O0 -fpre-include=/usr/include/finclude/math-vector-fortran.h
REM seed 1285320795 1735161783 540982991 79849707 1022473527 -112909048 772826491 383679615 365560752 -1840377987 -1077536426 -1144413667 -916457685 -313192160 1001421934 1187579031 1649240867 180323720 488444533 1317525894 -639088736 -1416731005 27112386 2137554775 -1099284625 -1595581710 82714150 -1076303389 -254189090 2013931226 1815250504 517732095 -5201325
REM
CELL 1.54180   50.00000   50.00000   50.00000   90.00000   90.00000   90.00000
LATT -1
SFAC C  
C      1  0.5641810000000  0.4470760000000  0.4470650000000 1.0
C      1  0.4223570000000  0.4703810000000  0.4470600000000 1.0
C      1  0.5134520000000  0.5815520000000  0.4470440000000 1.0
C      1  0.5684980000000  0.4518780000000  0.5478950000000 1.0
C      1  0.4243420000000  0.4642630000000  0.5478910000000 1.0
C      1  0.5071450000000  0.5829130000000  0.5478740000000 1.0
C      1  0.5976700000000  0.5166440000000  0.4746940000000 1.0
C      1  0.4658560000000  0.4066010000000  0.4747090000000 1.0
C      1  0.4364630000000  0.5757760000000  0.4746830000000 1.0
C      1  0.5901550000000  0.5353730000000  0.5295600000000 1.0
C      1  0.4858250000000  0.4037550000000  0.5295780000000 1.0
C      1  0.4240060000000  0.5599170000000  0.5295540000000 1.0
C      1  0.5060630000000  0.4689660000000  0.4710310000000 1.0
C      1  0.4703690000000  0.5097720000000  0.4710250000000 1.0
C      1  0.5235560000000  0.5202810000000  0.4710240000000 1.0
C      1  0.5079260000000  0.4696220000000  0.5263540000000 1.0
C      1  0.4699980000000  0.5078430000000  0.5263470000000 1.0
C      1  0.5220630000000  0.5215800000000  0.5263460000000 1.0
C      1  0.4916410000000  0.5654600000000  0.5639160000000 1.0
C      1  0.5611320000000  0.4740350000000  0.5639310000000 1.0
C      1  0.4472110000000  0.4595660000000  0.5639310000000 1.0
C      1  0.4963390000000  0.5642550000000  0.4324480000000 1.0
C      1  0.5577600000000  0.4705410000000  0.4324620000000 1.0
C      1  0.4458910000000  0.4642060000000  0.4324620000000 1.0
C      1  0.4665980000000  0.5079760000000  0.4409270000000 1.0
C      1  0.5238900000000  0.5244390000000  0.4409260000000 1.0
C      1  0.5095010000000  0.4665910000000  0.4409340000000 1.0
C      1  0.4658150000000  0.5046490000000  0.5562670000000 1.0
C      1  0.5213830000000  0.5268060000000  0.5562640000000 1.0
C      1  0.5127870000000  0.4676030000000  0.5562730000000 1.0
C      1  0.4653680000000  0.5369640000000  0.4848660000000 1.0
C      1  0.5496030000000  0.5110190000000  0.4848710000000 1.0
C      1  0.4850170000000  0.4510430000000  0.4848790000000 1.0
C      1  0.4638920000000  0.5355930000000  0.5141490000000 1.0
C      1  0.5491490000000  0.5129890000000  0.5141530000000 1.0
C      1  0.4869450000000  0.4504570000000  0.5141620000000 1.0
C      1  0.5717050000000  0.4985720000000  0.5552470000000 1.0
C      1  0.4631750000000  0.4381400000000  0.5552550000000 1.0
C      1  0.4651050000000  0.5623460000000  0.5552360000000 1.0
C      1  0.5692600000000  0.4939760000000  0.4429720000000 1.0
C      1  0.4604350000000  0.4425320000000  0.4429780000000 1.0
C      1  0.4702950000000  0.5624990000000  0.4429610000000 1.0
C      1  0.5545640000000  0.4469190000000  0.5253990000000 1.0
C      1  0.4270180000000  0.4788040000000  0.5253930000000 1.0
C      1  0.5184040000000  0.5733200000000  0.5253800000000 1.0
C      1  0.5506070000000  0.4424120000000  0.4699170000000 1.0
C      1  0.4251010000000  0.4844730000000  0.4699090000000 1.0
C      1  0.5242800000000  0.5721340000000  0.4698980000000 1.0
C      1  0.4480240000000  0.4931890000000  0.4839460000000 1.0
C      1  0.5203650000000  0.5479280000000  0.4839390000000 1.0
C      1  0.5315990000000  0.4579090000000  0.4839530000000 1.0
C      1  0.4486490000000  0.4910720000000  0.5121170000000 1.0
C      1  0.5182150000000  0.5484500000000  0.5121090000000 1.0
C      1  0.5331220000000  0.4595160000000  0.5121230000000 1.0
C      1  0.3980990000000  0.5627060000000  0.5302430000000 1.0
C      1  0.6055240000000  0.5564150000000  0.5302470000000 1.0
C      1  0.4963640000000  0.3799250000000  0.5302720000000 1.0
C      1  0.4181650000000  0.5942700000000  0.4763550000000 1.0
C      1  0.6228340000000  0.5232430000000  0.4763690000000 1.0
C      1  0.4589890000000  0.3815080000000  0.4763880000000 1.0
C      1  0.4573280000000  0.5585810000000  0.4677910000000 1.0
C      1  0.5723470000000  0.5071700000000  0.4678000000000 1.0
C      1  0.4703140000000  0.4332670000000  0.4678100000000 1.0
C      1  0.4510980000000  0.5538370000000  0.5322790000000 1.0
C      1  0.5713440000000  0.5149520000000  0.5322860000000 1.0
C      1  0.4775450000000  0.4302580000000  0.5322980000000 1.0
C      1  0.5305420000000  0.4708330000000  0.4243820000000 1.0
C      1  0.4597540000000  0.4876300000000  0.4243790000000 1.0
C      1  0.5096950000000  0.5405360000000  0.4243710000000 1.0
C      1  0.5340390000000  0.4726110000000  0.5722950000000 1.0
C      1  0.4595220000000  0.4837440000000  0.5722930000000 1.0
C      1  0.5064230000000  0.5427110000000  0.5722840000000 1.0
C      1  0.4999950000000  0.4996810000000  0.5225400000000 1.0
C      1  0.4999960000000  0.4996740000000  0.4748060000000 1.0
END
