TITL C-3623289-7120-1901 126524.811825588 125000 -741.650825471399 0 0 121 (C1) n - 1
REM
REM in /home/nfs/bkarasulu/CARBON/AIRSS/Generating-Clusters/LCBOP/Higher-Symm/SD-CG/FIRE-CG
REM
REM
REM
REM
REM
REM ./C.cell (b20cbc046b6831c77cfcea5457e17084)
REM AIRSS Version 0.9.1 bugfix July 2018 build 013d7b7c2542+ Fri, 06 Jul 2018 19:26:36 +0100
REM compiler GCC version 9.2.1 20190827 (Red Hat 9.2.1-1)
REM options -cpp -mtune=generic -march=x86-64 -g -O0 -fpre-include=/usr/include/finclude/math-vector-fortran.h
REM seed -1731997338 1009124974 541038244 180327804 -1447178036 -226720455 -1465979738 1914722159 -181889044 627506975 -1436954336 -611875350 -1592859092 -1241424377 409855058 -1225266408 427204068 677448001 -1094527947 -1779465488 -187908816 -1418325258 1330700334 -1224692832 352269987 -1908082186 -1253500988 498853571 -1498831577 -140747405 1085007895 607076954 811204713
REM
CELL 1.54180   50.00000   50.00000   50.00000   90.00000   90.00000   90.00000
LATT -1
SFAC C  
C      1  0.5423150000000  0.4977040000000  0.5833210000000 1.0
C      1  0.4922730000000  0.5948340000000  0.5179610000000 1.0
C      1  0.5915440000000  0.5300380000000  0.4870480000000 1.0
C      1  0.5295010000000  0.5112390000000  0.4089250000000 1.0
C      1  0.4869180000000  0.4901170000000  0.3959020000000 1.0
C      1  0.4601390000000  0.4997370000000  0.5852530000000 1.0
C      1  0.4981750000000  0.3999350000000  0.4850190000000 1.0
C      1  0.5113110000000  0.5900810000000  0.4699350000000 1.0
C      1  0.5110970000000  0.4066430000000  0.5347770000000 1.0
C      1  0.6041290000000  0.4807070000000  0.5027910000000 1.0
C      1  0.4104800000000  0.5342580000000  0.5128290000000 1.0
C      1  0.4024340000000  0.4840040000000  0.4983830000000 1.0
C      1  0.5140800000000  0.5969900000000  0.4978590000000 1.0
C      1  0.5007180000000  0.5435970000000  0.5870730000000 1.0
C      1  0.5982580000000  0.4882800000000  0.5312710000000 1.0
C      1  0.5192260000000  0.3997370000000  0.5067230000000 1.0
C      1  0.4703030000000  0.4080210000000  0.4892020000000 1.0
C      1  0.4632900000000  0.5893670000000  0.5129740000000 1.0
C      1  0.4868850000000  0.4642390000000  0.4077020000000 1.0
C      1  0.4997070000000  0.4549250000000  0.5849410000000 1.0
C      1  0.5038870000000  0.5130310000000  0.3956690000000 1.0
C      1  0.6007040000000  0.5024680000000  0.4816800000000 1.0
C      1  0.4050360000000  0.5056860000000  0.5182220000000 1.0
C      1  0.4084510000000  0.4862550000000  0.4700880000000 1.0
C      1  0.4851370000000  0.5887550000000  0.4602200000000 1.0
C      1  0.5943870000000  0.4556880000000  0.4883820000000 1.0
C      1  0.4744660000000  0.4904800000000  0.6081620000000 1.0
C      1  0.4834960000000  0.4030510000000  0.5381120000000 1.0
C      1  0.5050550000000  0.5864760000000  0.5430250000000 1.0
C      1  0.5097740000000  0.4083640000000  0.4599200000000 1.0
C      1  0.5903410000000  0.5363870000000  0.5153400000000 1.0
C      1  0.4097850000000  0.4586840000000  0.5105520000000 1.0
C      1  0.4077940000000  0.5430140000000  0.4863990000000 1.0
C      1  0.4815710000000  0.5583650000000  0.3779100000000 1.0
C      1  0.5397080000000  0.4850760000000  0.4123450000000 1.0
C      1  0.5306580000000  0.5090740000000  0.6068150000000 1.0
C      1  0.4938280000000  0.4710220000000  0.6078040000000 1.0
C      1  0.5902810000000  0.4909840000000  0.4571200000000 1.0
C      1  0.4542970000000  0.5908150000000  0.4863920000000 1.0
C      1  0.4948300000000  0.5369050000000  0.3844850000000 1.0
C      1  0.5124460000000  0.5294710000000  0.6089960000000 1.0
C      1  0.5132690000000  0.4546350000000  0.4120320000000 1.0
C      1  0.5976080000000  0.5158650000000  0.5347900000000 1.0
C      1  0.4093140000000  0.5124060000000  0.4599420000000 1.0
C      1  0.4151070000000  0.4947150000000  0.5431220000000 1.0
C      1  0.4633260000000  0.4094760000000  0.5169400000000 1.0
C      1  0.5439520000000  0.4094260000000  0.4931640000000 1.0
C      1  0.5398660000000  0.5906280000000  0.5099420000000 1.0
C      1  0.4289340000000  0.5482030000000  0.5314880000000 1.0
C      1  0.5399440000000  0.5326650000000  0.4258020000000 1.0
C      1  0.5254120000000  0.4280140000000  0.5506480000000 1.0
C      1  0.4390670000000  0.4467310000000  0.4750770000000 1.0
C      1  0.5736040000000  0.5428830000000  0.4663140000000 1.0
C      1  0.5621050000000  0.4573360000000  0.5306690000000 1.0
C      1  0.5491390000000  0.4706900000000  0.5748190000000 1.0
C      1  0.4535460000000  0.5262780000000  0.5749760000000 1.0
C      1  0.4460710000000  0.4734340000000  0.4376390000000 1.0
C      1  0.5312740000000  0.5726780000000  0.4571200000000 1.0
C      1  0.4728410000000  0.4363950000000  0.4464910000000 1.0
C      1  0.4697640000000  0.5615910000000  0.5498920000000 1.0
C      1  0.4424050000000  0.5265490000000  0.5468240000000 1.0
C      1  0.5393420000000  0.4418470000000  0.5301590000000 1.0
C      1  0.5219640000000  0.5500050000000  0.4405980000000 1.0
C      1  0.4251420000000  0.4654500000000  0.4570460000000 1.0
C      1  0.5748530000000  0.4700240000000  0.5511350000000 1.0
C      1  0.5596250000000  0.5257460000000  0.4463950000000 1.0
C      1  0.5517740000000  0.5607640000000  0.4746390000000 1.0
C      1  0.4481850000000  0.5720500000000  0.5324100000000 1.0
C      1  0.4565730000000  0.4242280000000  0.4679860000000 1.0
C      1  0.5258350000000  0.4482640000000  0.5734280000000 1.0
C      1  0.4647170000000  0.4545380000000  0.4246900000000 1.0
C      1  0.4726470000000  0.5488610000000  0.5772960000000 1.0
C      1  0.5404750000000  0.5171740000000  0.5599550000000 1.0
C      1  0.5235790000000  0.5641390000000  0.5458730000000 1.0
C      1  0.5681330000000  0.5493590000000  0.5307940000000 1.0
C      1  0.5503450000000  0.4685700000000  0.4323640000000 1.0
C      1  0.4554310000000  0.5221610000000  0.4441940000000 1.0
C      1  0.4638480000000  0.4801860000000  0.5619530000000 1.0
C      1  0.5204880000000  0.4371030000000  0.4585250000000 1.0
C      1  0.4684310000000  0.5684880000000  0.4511170000000 1.0
C      1  0.4648220000000  0.4317040000000  0.5557950000000 1.0
C      1  0.5639820000000  0.4594560000000  0.4818180000000 1.0
C      1  0.4246830000000  0.5534440000000  0.4669410000000 1.0
C      1  0.4386480000000  0.4570590000000  0.5215000000000 1.0
C      1  0.5428220000000  0.5622460000000  0.5218610000000 1.0
C      1  0.5177650000000  0.5382000000000  0.5621020000000 1.0
C      1  0.5657910000000  0.5311180000000  0.5526720000000 1.0
C      1  0.5400390000000  0.4383810000000  0.4823430000000 1.0
C      1  0.4490570000000  0.4312740000000  0.5315380000000 1.0
C      1  0.4443990000000  0.5729950000000  0.4674830000000 1.0
C      1  0.5307390000000  0.4467190000000  0.4324220000000 1.0
C      1  0.4764660000000  0.4534840000000  0.5679700000000 1.0
C      1  0.4759350000000  0.5413110000000  0.4469670000000 1.0
C      1  0.5618790000000  0.4789360000000  0.4578930000000 1.0
C      1  0.4371370000000  0.4763180000000  0.5454090000000 1.0
C      1  0.4285650000000  0.5298430000000  0.4497000000000 1.0
C      1  0.5128830000000  0.5026230000000  0.4622510000000 1.0
C      1  0.5043410000000  0.4693940000000  0.5079950000000 1.0
C      1  0.4635780000000  0.5156660000000  0.5008000000000 1.0
C      1  0.5303980000000  0.4986440000000  0.5368260000000 1.0
C      1  0.4817360000000  0.4980300000000  0.5432210000000 1.0
C      1  0.4627360000000  0.4945450000000  0.4525250000000 1.0
C      1  0.5053860000000  0.5424470000000  0.4871530000000 1.0
C      1  0.4936920000000  0.4535110000000  0.4621910000000 1.0
C      1  0.4848190000000  0.5453660000000  0.5302970000000 1.0
C      1  0.4543550000000  0.4650130000000  0.4953840000000 1.0
C      1  0.5457320000000  0.5170800000000  0.4931800000000 1.0
C      1  0.5584390000000  0.4743970000000  0.5077500000000 1.0
C      1  0.5246080000000  0.4483510000000  0.5068000000000 1.0
C      1  0.5029300000000  0.5330070000000  0.4579480000000 1.0
C      1  0.4581420000000  0.5100870000000  0.5282710000000 1.0
C      1  0.5349510000000  0.5455530000000  0.4964820000000 1.0
C      1  0.4824610000000  0.5379460000000  0.5030300000000 1.0
C      1  0.4832270000000  0.4568700000000  0.4916360000000 1.0
C      1  0.5053280000000  0.4828250000000  0.5343020000000 1.0
C      1  0.4922060000000  0.4837530000000  0.4512540000000 1.0
C      1  0.4964330000000  0.5246920000000  0.5460890000000 1.0
C      1  0.4568360000000  0.4940800000000  0.4836190000000 1.0
C      1  0.5460450000000  0.4985350000000  0.5131450000000 1.0
C      1  0.5444960000000  0.5047290000000  0.4634990000000 1.0
C      1  0.5099490000000  0.4936020000000  0.4911250000000 1.0
END
