TITL C-3623288-6813-486 -7.44196597710027e-08 125000 -220.873690682005 0 0 37 (C1) n - 1
REM
REM in /home/nfs/bkarasulu/CARBON/AIRSS/Generating-Clusters/LCBOP/Higher-Symm/SD-CG/FIRE-CG
REM
REM
REM
REM
REM
REM ./C.cell (b20cbc046b6831c77cfcea5457e17084)
REM AIRSS Version 0.9.1 bugfix July 2018 build 013d7b7c2542+ Fri, 06 Jul 2018 19:26:36 +0100
REM compiler GCC version 9.2.1 20190827 (Red Hat 9.2.1-1)
REM options -cpp -mtune=generic -march=x86-64 -g -O0 -fpre-include=/usr/include/finclude/math-vector-fortran.h
REM seed 1901371860 -181055091 -562260805 -128493299 2088325337 -1260437565 -1258578337 -1950839899 600342265 871741843 2038502495 -1093457676 1745954156 1863602003 1316980766 1722569930 1972427339 -625994934 1173997284 69483406 -1182468331 741043794 1291554106 1645764476 -683366908 -1996461052 351678917 -947276636 -294326726 -254669990 -24769373 694521683 -1469384535
REM
CELL 1.54180   50.00000   50.00000   50.00000   90.00000   90.00000   90.00000
LATT -1
SFAC C  
C      1  0.5507170000000  0.4401840000000  0.4876390000000 1.0
C      1  0.5450220000000  0.5160770000000  0.5683410000000 1.0
C      1  0.5500070000000  0.5417620000000  0.4459770000000 1.0
C      1  0.4393400000000  0.4565440000000  0.5073070000000 1.0
C      1  0.4356310000000  0.5171160000000  0.5322700000000 1.0
C      1  0.4374040000000  0.5242630000000  0.4672790000000 1.0
C      1  0.4957070000000  0.4855810000000  0.4549160000000 1.0
C      1  0.5028370000000  0.4692750000000  0.5324970000000 1.0
C      1  0.4982350000000  0.5443780000000  0.5119540000000 1.0
C      1  0.5270060000000  0.5514000000000  0.4367920000000 1.0
C      1  0.5292280000000  0.4248060000000  0.4846150000000 1.0
C      1  0.5216350000000  0.5226170000000  0.5791720000000 1.0
C      1  0.5029870000000  0.4205140000000  0.4861170000000 1.0
C      1  0.4952870000000  0.5262370000000  0.5781820000000 1.0
C      1  0.5004300000000  0.5518220000000  0.4358200000000 1.0
C      1  0.5615210000000  0.5072670000000  0.5494640000000 1.0
C      1  0.5654580000000  0.5261290000000  0.4608860000000 1.0
C      1  0.5644050000000  0.4622510000000  0.4932570000000 1.0
C      1  0.5721230000000  0.5078940000000  0.4789810000000 1.0
C      1  0.5696330000000  0.4890380000000  0.4995090000000 1.0
C      1  0.5697960000000  0.4975410000000  0.5261810000000 1.0
C      1  0.4771550000000  0.5417660000000  0.4439250000000 1.0
C      1  0.4791030000000  0.4302010000000  0.4930080000000 1.0
C      1  0.4728600000000  0.5265430000000  0.5637930000000 1.0
C      1  0.4216810000000  0.5042240000000  0.5114050000000 1.0
C      1  0.4202420000000  0.5176530000000  0.4867080000000 1.0
C      1  0.4214390000000  0.4760810000000  0.5111580000000 1.0
C      1  0.4810740000000  0.5228230000000  0.5163770000000 1.0
C      1  0.4806900000000  0.5022470000000  0.4715670000000 1.0
C      1  0.4842770000000  0.4740690000000  0.5121650000000 1.0
C      1  0.4668960000000  0.4527950000000  0.5041070000000 1.0
C      1  0.4624010000000  0.5232620000000  0.5380770000000 1.0
C      1  0.4644040000000  0.5227720000000  0.4600050000000 1.0
C      1  0.5162000000000  0.5628690000000  0.5081700000000 1.0
C      1  0.5109950000000  0.4727560000000  0.4381570000000 1.0
C      1  0.5175530000000  0.4593780000000  0.5515960000000 1.0
C      1  0.4823980000000  0.4996500000000  0.4998620000000 1.0
END
