TITL C-3623284-6838-1683 -3.54020739487454e-07 125000 -433.581799783128 0 0 70 (C1) n - 1
REM
REM in /home/nfs/bkarasulu/CARBON/AIRSS/Generating-Clusters/LCBOP/Higher-Symm/SD-CG/FIRE-CG
REM
REM
REM
REM
REM
REM ./C.cell (b20cbc046b6831c77cfcea5457e17084)
REM AIRSS Version 0.9.1 bugfix July 2018 build 013d7b7c2542+ Fri, 06 Jul 2018 19:26:36 +0100
REM compiler GCC version 9.2.1 20190827 (Red Hat 9.2.1-1)
REM options -cpp -mtune=generic -march=x86-64 -g -O0 -fpre-include=/usr/include/finclude/math-vector-fortran.h
REM seed 166712470 525684371 1296061805 1012451559 446791253 1465645424 319256076 -1794482082 -205063914 -403278656 1441042888 1947943016 -621939375 1424402110 1999162346 -1459681787 2046454766 -1991247989 1592480318 5269086 -1623125711 -1080102981 -851085729 1273058847 1320559237 -780425147 274778986 1501584905 922258569 -1125118616 -343586389 -479110052 -1320021854
REM
CELL 1.54180   50.00000   50.00000   50.00000   90.00000   90.00000   90.00000
LATT -1
SFAC C  
C      1  0.5474870000000  0.4475060000000  0.5029790000000 1.0
C      1  0.5421130000000  0.5367660000000  0.4961450000000 1.0
C      1  0.4498660000000  0.4458880000000  0.4986820000000 1.0
C      1  0.4556080000000  0.5380850000000  0.5021220000000 1.0
C      1  0.5464270000000  0.5047810000000  0.4475340000000 1.0
C      1  0.5423440000000  0.4956620000000  0.5359080000000 1.0
C      1  0.4541650000000  0.5010660000000  0.4609160000000 1.0
C      1  0.4520750000000  0.5024830000000  0.5478270000000 1.0
C      1  0.5885970000000  0.4774430000000  0.5469280000000 1.0
C      1  0.6022740000000  0.5674600000000  0.4674460000000 1.0
C      1  0.4092490000000  0.4782610000000  0.4597870000000 1.0
C      1  0.3967550000000  0.5657900000000  0.5367950000000 1.0
C      1  0.5882370000000  0.5480090000000  0.4775920000000 1.0
C      1  0.6025580000000  0.4671030000000  0.5663310000000 1.0
C      1  0.4079140000000  0.4585170000000  0.4782990000000 1.0
C      1  0.4101630000000  0.5477430000000  0.5236490000000 1.0
C      1  0.4855660000000  0.5576260000000  0.4613940000000 1.0
C      1  0.4858550000000  0.4384340000000  0.5363630000000 1.0
C      1  0.5126900000000  0.5556450000000  0.5373270000000 1.0
C      1  0.5122640000000  0.4427460000000  0.4634650000000 1.0
C      1  0.4858620000000  0.4605340000000  0.5549890000000 1.0
C      1  0.4851080000000  0.5387140000000  0.4400630000000 1.0
C      1  0.5128550000000  0.5355770000000  0.5574120000000 1.0
C      1  0.5113980000000  0.4636860000000  0.4439690000000 1.0
C      1  0.5115500000000  0.4130020000000  0.5043190000000 1.0
C      1  0.5132120000000  0.5780980000000  0.4953550000000 1.0
C      1  0.4867410000000  0.4138350000000  0.4924900000000 1.0
C      1  0.4856260000000  0.5783660000000  0.5045400000000 1.0
C      1  0.5100600000000  0.5036420000000  0.4176360000000 1.0
C      1  0.5144020000000  0.4926140000000  0.5777570000000 1.0
C      1  0.4827130000000  0.4949890000000  0.4208540000000 1.0
C      1  0.4884150000000  0.5029320000000  0.5820500000000 1.0
C      1  0.4264870000000  0.5274530000000  0.5094810000000 1.0
C      1  0.4240770000000  0.4569770000000  0.5015940000000 1.0
C      1  0.5710230000000  0.5264990000000  0.4882980000000 1.0
C      1  0.5673420000000  0.4677870000000  0.5017730000000 1.0
C      1  0.4315190000000  0.5019140000000  0.5277480000000 1.0
C      1  0.4241370000000  0.5021500000000  0.4629200000000 1.0
C      1  0.5713290000000  0.4883150000000  0.5255510000000 1.0
C      1  0.5666400000000  0.5030550000000  0.4673420000000 1.0
C      1  0.5114250000000  0.5309160000000  0.4282730000000 1.0
C      1  0.5128600000000  0.4678340000000  0.5638910000000 1.0
C      1  0.4863940000000  0.5282340000000  0.5691750000000 1.0
C      1  0.4836230000000  0.4708820000000  0.4362160000000 1.0
C      1  0.5124530000000  0.4274440000000  0.5287510000000 1.0
C      1  0.5127370000000  0.5662460000000  0.4692780000000 1.0
C      1  0.4857360000000  0.5653640000000  0.5301040000000 1.0
C      1  0.4856830000000  0.4318830000000  0.4706250000000 1.0
C      1  0.4639340000000  0.5284210000000  0.5517450000000 1.0
C      1  0.4640070000000  0.4721580000000  0.4570880000000 1.0
C      1  0.5345130000000  0.5309740000000  0.4452310000000 1.0
C      1  0.5326300000000  0.4676590000000  0.5437840000000 1.0
C      1  0.4654680000000  0.5455850000000  0.5301570000000 1.0
C      1  0.4633190000000  0.4497580000000  0.4734870000000 1.0
C      1  0.5349230000000  0.4448950000000  0.5285820000000 1.0
C      1  0.5325240000000  0.5460320000000  0.4683100000000 1.0
C      1  0.4688180000000  0.5619540000000  0.4855060000000 1.0
C      1  0.4665000000000  0.4316360000000  0.5164360000000 1.0
C      1  0.5295630000000  0.5603830000000  0.5136120000000 1.0
C      1  0.5315720000000  0.4349910000000  0.4830850000000 1.0
C      1  0.4677680000000  0.4822290000000  0.5608810000000 1.0
C      1  0.4677780000000  0.5153520000000  0.4366320000000 1.0
C      1  0.5300820000000  0.5118060000000  0.5604350000000 1.0
C      1  0.5284640000000  0.4856930000000  0.4342640000000 1.0
C      1  0.4204560000000  0.4771010000000  0.5208380000000 1.0
C      1  0.5751820000000  0.4779120000000  0.4766700000000 1.0
C      1  0.4147350000000  0.5202850000000  0.4826260000000 1.0
C      1  0.5826560000000  0.5133520000000  0.5129280000000 1.0
C      1  0.5316600000000  0.5119420000000  0.5117270000000 1.0
C      1  0.4656870000000  0.5139230000000  0.4860360000000 1.0
END
