TITL C-3623283-6828-1856 -1.55635301084463e-06 125000 -540.078450531743 0 0 95 (C1) n - 1
REM
REM in /home/nfs/bkarasulu/CARBON/AIRSS/Generating-Clusters/LCBOP/Higher-Symm/SD-CG/FIRE-CG
REM
REM
REM
REM
REM
REM ./C.cell (b20cbc046b6831c77cfcea5457e17084)
REM AIRSS Version 0.9.1 bugfix July 2018 build 013d7b7c2542+ Fri, 06 Jul 2018 19:26:36 +0100
REM compiler GCC version 9.2.1 20190827 (Red Hat 9.2.1-1)
REM options -cpp -mtune=generic -march=x86-64 -g -O0 -fpre-include=/usr/include/finclude/math-vector-fortran.h
REM seed -474022909 -1742687833 360531996 -488209805 930934959 1563153927 -1025655220 -688014394 -1621460671 -1141617505 1653057227 551202008 -370626217 1473160758 -27886685 1842144941 -1385151012 -1823228344 1272279134 -1745401613 -767497006 -113051604 -1018846270 2032680089 -856232111 1112496811 -892748996 -1968641123 1219804965 -931389055 -232568932 -1556916265 -1355789864
REM
CELL 1.54180   50.00000   50.00000   50.00000   90.00000   90.00000   90.00000
LATT -1
SFAC C  
C      1  0.4890580000000  0.4156050000000  0.4593300000000 1.0
C      1  0.4887130000000  0.4160790000000  0.5401550000000 1.0
C      1  0.4885520000000  0.4796050000000  0.5918590000000 1.0
C      1  0.4914430000000  0.5598330000000  0.5737010000000 1.0
C      1  0.4896720000000  0.5950560000000  0.5019230000000 1.0
C      1  0.4896540000000  0.5588370000000  0.4265010000000 1.0
C      1  0.4889440000000  0.4778450000000  0.4084730000000 1.0
C      1  0.4374460000000  0.4726920000000  0.5474490000000 1.0
C      1  0.4378090000000  0.5203450000000  0.5511330000000 1.0
C      1  0.4404800000000  0.5529940000000  0.5160610000000 1.0
C      1  0.4429500000000  0.5451630000000  0.4692320000000 1.0
C      1  0.4421060000000  0.5041530000000  0.4457820000000 1.0
C      1  0.4393430000000  0.4600250000000  0.4628770000000 1.0
C      1  0.4383620000000  0.4459190000000  0.5081930000000 1.0
C      1  0.4478440000000  0.5342810000000  0.4396150000000 1.0
C      1  0.4451470000000  0.4740900000000  0.4351940000000 1.0
C      1  0.4434980000000  0.4329660000000  0.4796740000000 1.0
C      1  0.4425640000000  0.4422730000000  0.5397720000000 1.0
C      1  0.4417400000000  0.4950160000000  0.5702750000000 1.0
C      1  0.4435330000000  0.5521250000000  0.5480960000000 1.0
C      1  0.4468840000000  0.5693120000000  0.4892310000000 1.0
C      1  0.4731030000000  0.4253770000000  0.4813850000000 1.0
C      1  0.4720880000000  0.4386950000000  0.5467080000000 1.0
C      1  0.4712120000000  0.4976980000000  0.5779040000000 1.0
C      1  0.4732260000000  0.5593000000000  0.5515800000000 1.0
C      1  0.4765330000000  0.5750880000000  0.4860710000000 1.0
C      1  0.4771400000000  0.5338680000000  0.4323270000000 1.0
C      1  0.4742200000000  0.4671670000000  0.4306080000000 1.0
C      1  0.5116500000000  0.4786140000000  0.5350880000000 1.0
C      1  0.5083580000000  0.5138130000000  0.5401800000000 1.0
C      1  0.5136120000000  0.5390830000000  0.5251610000000 1.0
C      1  0.5179130000000  0.5343700000000  0.4727890000000 1.0
C      1  0.5178990000000  0.4925150000000  0.4538360000000 1.0
C      1  0.5172420000000  0.4657460000000  0.4756880000000 1.0
C      1  0.5122540000000  0.4607330000000  0.5045510000000 1.0
C      1  0.5432150000000  0.4508150000000  0.5239920000000 1.0
C      1  0.5421940000000  0.4900010000000  0.5536060000000 1.0
C      1  0.5603370000000  0.5484310000000  0.5494140000000 1.0
C      1  0.5385360000000  0.5547450000000  0.5044630000000 1.0
C      1  0.5403940000000  0.5350800000000  0.4539500000000 1.0
C      1  0.5437520000000  0.4861160000000  0.4410460000000 1.0
C      1  0.5433480000000  0.4495390000000  0.4736660000000 1.0
C      1  0.5316610000000  0.5403670000000  0.4273230000000 1.0
C      1  0.5342780000000  0.4681360000000  0.4202130000000 1.0
C      1  0.5334710000000  0.4221170000000  0.4755570000000 1.0
C      1  0.5319730000000  0.4357160000000  0.5450250000000 1.0
C      1  0.5317850000000  0.4963920000000  0.5788850000000 1.0
C      1  0.5372620000000  0.5646350000000  0.5562060000000 1.0
C      1  0.5304640000000  0.5782210000000  0.4894810000000 1.0
C      1  0.5630550000000  0.4963390000000  0.5375990000000 1.0
C      1  0.5680870000000  0.5271470000000  0.5317900000000 1.0
C      1  0.5631390000000  0.5430120000000  0.4993090000000 1.0
C      1  0.5646390000000  0.5281820000000  0.4656310000000 1.0
C      1  0.5656450000000  0.4925660000000  0.4574070000000 1.0
C      1  0.5654660000000  0.4648930000000  0.4805360000000 1.0
C      1  0.5639700000000  0.4662180000000  0.5163920000000 1.0
C      1  0.5266880000000  0.5244510000000  0.5849020000000 1.0
C      1  0.5271410000000  0.5861750000000  0.5379750000000 1.0
C      1  0.5252430000000  0.5794170000000  0.4593490000000 1.0
C      1  0.5244050000000  0.5169620000000  0.4094120000000 1.0
C      1  0.5256410000000  0.4403480000000  0.4291390000000 1.0
C      1  0.5254900000000  0.4109320000000  0.5022320000000 1.0
C      1  0.5248390000000  0.4478940000000  0.5711720000000 1.0
C      1  0.4871650000000  0.5507710000000  0.5262670000000 1.0
C      1  0.4914070000000  0.5486650000000  0.4771720000000 1.0
C      1  0.4911440000000  0.5093300000000  0.4471950000000 1.0
C      1  0.4865780000000  0.4625200000000  0.4573710000000 1.0
C      1  0.4862800000000  0.4443680000000  0.5019380000000 1.0
C      1  0.4853550000000  0.4661770000000  0.5451760000000 1.0
C      1  0.4843410000000  0.5130090000000  0.5556750000000 1.0
C      1  0.4156860000000  0.4673060000000  0.5046150000000 1.0
C      1  0.4150010000000  0.4839180000000  0.5286020000000 1.0
C      1  0.4154350000000  0.5130740000000  0.5306200000000 1.0
C      1  0.4174260000000  0.5329390000000  0.5093480000000 1.0
C      1  0.4190380000000  0.5284130000000  0.4806760000000 1.0
C      1  0.4185070000000  0.5031700000000  0.4663920000000 1.0
C      1  0.4167300000000  0.4761720000000  0.4769320000000 1.0
C      1  0.5158490000000  0.4726000000000  0.5858870000000 1.0
C      1  0.5190080000000  0.5511910000000  0.5752110000000 1.0
C      1  0.5167360000000  0.5931990000000  0.5109670000000 1.0
C      1  0.5167070000000  0.5656620000000  0.4329500000000 1.0
C      1  0.5160620000000  0.4872820000000  0.4059180000000 1.0
C      1  0.5162410000000  0.4211860000000  0.4512170000000 1.0
C      1  0.5158870000000  0.4155670000000  0.5306050000000 1.0
C      1  0.4640810000000  0.4662680000000  0.5042790000000 1.0
C      1  0.4633290000000  0.4822110000000  0.5292070000000 1.0
C      1  0.4631100000000  0.5114840000000  0.5331240000000 1.0
C      1  0.4657610000000  0.5325830000000  0.5124720000000 1.0
C      1  0.4680200000000  0.5282100000000  0.4830880000000 1.0
C      1  0.4676010000000  0.5028860000000  0.4674270000000 1.0
C      1  0.4652760000000  0.4753310000000  0.4764880000000 1.0
C      1  0.5497850000000  0.5020800000000  0.4967470000000 1.0
C      1  0.5237300000000  0.5130130000000  0.4914560000000 1.0
C      1  0.5010420000000  0.5007980000000  0.4994640000000 1.0
C      1  0.5781890000000  0.5024990000000  0.4976130000000 1.0
END
