TITL C-3623286-7563-370 2211.66675704985 125000 -1055.2202284371 0 0 172 (C1) n - 1
REM
REM in /home/nfs/bkarasulu/CARBON/AIRSS/Generating-Clusters/LCBOP/Higher-Symm/SD-CG/FIRE-CG
REM
REM
REM
REM
REM
REM ./C.cell (b20cbc046b6831c77cfcea5457e17084)
REM AIRSS Version 0.9.1 bugfix July 2018 build 013d7b7c2542+ Fri, 06 Jul 2018 19:26:36 +0100
REM compiler GCC version 9.2.1 20190827 (Red Hat 9.2.1-1)
REM options -cpp -mtune=generic -march=x86-64 -g -O0 -fpre-include=/usr/include/finclude/math-vector-fortran.h
REM seed -260584350 301575414 1429958462 -1189309056 -1778875019 1952941758 -91033698 -577267727 1066155638 1059810148 1976787342 -2020896618 102010655 -1902136219 817584458 -2027475261 -89375221 -5920403 -245501061 1627245552 -1038853802 749119185 1358102477 969880985 -1310728671 -438218476 1457964683 -838024552 -881144456 -1614703861 -2098988190 1984484368 -1506593234
REM
CELL 1.54180   50.00000   50.00000   50.00000   90.00000   90.00000   90.00000
LATT -1
SFAC C  
C      1  0.5946860000000  0.5125110000000  0.4528460000000 1.0
C      1  0.3989190000000  0.5287120000000  0.4513220000000 1.0
C      1  0.5646920000000  0.5747390000000  0.5563690000000 1.0
C      1  0.4318980000000  0.5690960000000  0.5455450000000 1.0
C      1  0.5571300000000  0.5303940000000  0.5981420000000 1.0
C      1  0.4398140000000  0.5372910000000  0.5972600000000 1.0
C      1  0.4551080000000  0.4403200000000  0.4713410000000 1.0
C      1  0.5183660000000  0.4262580000000  0.4845630000000 1.0
C      1  0.4630420000000  0.6063990000000  0.5715850000000 1.0
C      1  0.5144220000000  0.6027910000000  0.5799050000000 1.0
C      1  0.5069340000000  0.4502360000000  0.5306760000000 1.0
C      1  0.5325340000000  0.4469890000000  0.5306400000000 1.0
C      1  0.4687380000000  0.4604220000000  0.5493860000000 1.0
C      1  0.5234790000000  0.4924410000000  0.5463430000000 1.0
C      1  0.5246770000000  0.5473610000000  0.4407580000000 1.0
C      1  0.4734410000000  0.5541430000000  0.4446270000000 1.0
C      1  0.4812000000000  0.4820250000000  0.4501080000000 1.0
C      1  0.5020200000000  0.4784330000000  0.4334900000000 1.0
C      1  0.5439440000000  0.4663130000000  0.4677550000000 1.0
C      1  0.4306570000000  0.4792640000000  0.4772880000000 1.0
C      1  0.5942300000000  0.4203030000000  0.4898230000000 1.0
C      1  0.4148480000000  0.4202040000000  0.5003280000000 1.0
C      1  0.3668490000000  0.5285390000000  0.4890830000000 1.0
C      1  0.6101560000000  0.5320780000000  0.4951800000000 1.0
C      1  0.4341080000000  0.5116820000000  0.5851140000000 1.0
C      1  0.5698680000000  0.5077060000000  0.5885760000000 1.0
C      1  0.4908970000000  0.3903100000000  0.5102140000000 1.0
C      1  0.5145550000000  0.4035480000000  0.5028100000000 1.0
C      1  0.6019330000000  0.5355200000000  0.5684650000000 1.0
C      1  0.3994270000000  0.5259250000000  0.5594680000000 1.0
C      1  0.4343270000000  0.4968740000000  0.4538150000000 1.0
C      1  0.5549430000000  0.4852990000000  0.4485510000000 1.0
C      1  0.5124120000000  0.4513290000000  0.3924250000000 1.0
C      1  0.4842890000000  0.4551830000000  0.3955070000000 1.0
C      1  0.5858980000000  0.5242480000000  0.5105600000000 1.0
C      1  0.4212970000000  0.5311240000000  0.5196950000000 1.0
C      1  0.4965620000000  0.4188320000000  0.6026400000000 1.0
C      1  0.5234950000000  0.4204600000000  0.5998330000000 1.0
C      1  0.5157080000000  0.5739140000000  0.4351990000000 1.0
C      1  0.4881650000000  0.5768030000000  0.4357850000000 1.0
C      1  0.5545030000000  0.4762680000000  0.4205990000000 1.0
C      1  0.4442630000000  0.4876060000000  0.4262390000000 1.0
C      1  0.4897120000000  0.5166140000000  0.5132710000000 1.0
C      1  0.5149560000000  0.5111660000000  0.5269660000000 1.0
C      1  0.4698030000000  0.5884870000000  0.5936220000000 1.0
C      1  0.4975180000000  0.5941230000000  0.5997270000000 1.0
C      1  0.6194590000000  0.4898120000000  0.5147280000000 1.0
C      1  0.3957860000000  0.4917450000000  0.5072250000000 1.0
C      1  0.5642360000000  0.5651290000000  0.4155950000000 1.0
C      1  0.4442320000000  0.5776410000000  0.4109310000000 1.0
C      1  0.5305770000000  0.5519430000000  0.5383570000000 1.0
C      1  0.4741690000000  0.5488490000000  0.5433500000000 1.0
C      1  0.4069280000000  0.4695500000000  0.4930100000000 1.0
C      1  0.6214970000000  0.4630120000000  0.5057020000000 1.0
C      1  0.3887370000000  0.5090220000000  0.4332710000000 1.0
C      1  0.6085050000000  0.4894970000000  0.4440160000000 1.0
C      1  0.5014250000000  0.4509030000000  0.4858690000000 1.0
C      1  0.4724510000000  0.4561220000000  0.4878460000000 1.0
C      1  0.3974750000000  0.4580390000000  0.4297730000000 1.0
C      1  0.5925000000000  0.4406080000000  0.4435590000000 1.0
C      1  0.5319310000000  0.3988660000000  0.4476980000000 1.0
C      1  0.4694810000000  0.4025440000000  0.4537970000000 1.0
C      1  0.3723790000000  0.5061880000000  0.5029740000000 1.0
C      1  0.6310350000000  0.5139560000000  0.5043250000000 1.0
C      1  0.5168380000000  0.5276930000000  0.3814990000000 1.0
C      1  0.4900100000000  0.5312230000000  0.3833250000000 1.0
C      1  0.5641880000000  0.4358420000000  0.5767970000000 1.0
C      1  0.4508620000000  0.4278090000000  0.5845250000000 1.0
C      1  0.5357380000000  0.5305020000000  0.5213180000000 1.0
C      1  0.4693910000000  0.5342100000000  0.5203800000000 1.0
C      1  0.5081120000000  0.6062520000000  0.5521070000000 1.0
C      1  0.4791900000000  0.6079730000000  0.5476400000000 1.0
C      1  0.5263250000000  0.4350730000000  0.4120490000000 1.0
C      1  0.4697600000000  0.4416100000000  0.4171650000000 1.0
C      1  0.5157440000000  0.6064700000000  0.5032650000000 1.0
C      1  0.4839850000000  0.6082150000000  0.4989710000000 1.0
C      1  0.5428270000000  0.5198020000000  0.3919680000000 1.0
C      1  0.4637350000000  0.5282070000000  0.3952730000000 1.0
C      1  0.4572730000000  0.5005040000000  0.4029380000000 1.0
C      1  0.5461740000000  0.4904240000000  0.3961830000000 1.0
C      1  0.5775530000000  0.4542610000000  0.5197970000000 1.0
C      1  0.4217640000000  0.4515020000000  0.5371330000000 1.0
C      1  0.5286560000000  0.4725130000000  0.3811480000000 1.0
C      1  0.4717690000000  0.4800230000000  0.3877340000000 1.0
C      1  0.4834570000000  0.4189040000000  0.4333410000000 1.0
C      1  0.5134720000000  0.4156440000000  0.4303160000000 1.0
C      1  0.4262910000000  0.5246670000000  0.4596970000000 1.0
C      1  0.5665480000000  0.5096370000000  0.4577340000000 1.0
C      1  0.5981480000000  0.5087230000000  0.5799440000000 1.0
C      1  0.4107040000000  0.5008590000000  0.5712160000000 1.0
C      1  0.5572870000000  0.4363650000000  0.5240350000000 1.0
C      1  0.4500930000000  0.4410230000000  0.5378870000000 1.0
C      1  0.4855650000000  0.6105040000000  0.4687550000000 1.0
C      1  0.5227560000000  0.6071480000000  0.4689470000000 1.0
C      1  0.5514150000000  0.4466620000000  0.4202000000000 1.0
C      1  0.4452840000000  0.4577570000000  0.4233160000000 1.0
C      1  0.5150930000000  0.5001640000000  0.4246740000000 1.0
C      1  0.4779660000000  0.5079200000000  0.4613190000000 1.0
C      1  0.4098390000000  0.4464550000000  0.5105920000000 1.0
C      1  0.5997380000000  0.4449220000000  0.5042080000000 1.0
C      1  0.5133960000000  0.5567390000000  0.4856850000000 1.0
C      1  0.4868930000000  0.5622700000000  0.4876290000000 1.0
C      1  0.5514050000000  0.4864450000000  0.5485970000000 1.0
C      1  0.4565170000000  0.4872550000000  0.5465570000000 1.0
C      1  0.5087050000000  0.4856110000000  0.5695700000000 1.0
C      1  0.4875120000000  0.4662320000000  0.5717380000000 1.0
C      1  0.4664830000000  0.4739130000000  0.6182160000000 1.0
C      1  0.5187710000000  0.4909590000000  0.6170930000000 1.0
C      1  0.5563870000000  0.5971130000000  0.5381690000000 1.0
C      1  0.4390060000000  0.5903220000000  0.5252210000000 1.0
C      1  0.3799930000000  0.5402490000000  0.4686890000000 1.0
C      1  0.6073430000000  0.5333460000000  0.4671330000000 1.0
C      1  0.4912250000000  0.5102400000000  0.4859310000000 1.0
C      1  0.5162640000000  0.4985360000000  0.4839680000000 1.0
C      1  0.4536050000000  0.4772460000000  0.4968800000000 1.0
C      1  0.5207030000000  0.4721150000000  0.4816420000000 1.0
C      1  0.5089700000000  0.5263370000000  0.4312110000000 1.0
C      1  0.4827640000000  0.5282650000000  0.4417260000000 1.0
C      1  0.4445130000000  0.5377430000000  0.5059850000000 1.0
C      1  0.5586510000000  0.5285210000000  0.5037670000000 1.0
C      1  0.5924050000000  0.4988780000000  0.5226760000000 1.0
C      1  0.4184080000000  0.5035080000000  0.5199700000000 1.0
C      1  0.4189810000000  0.5996580000000  0.5086310000000 1.0
C      1  0.5761910000000  0.6132520000000  0.5276730000000 1.0
C      1  0.5355780000000  0.5438880000000  0.5861170000000 1.0
C      1  0.4608960000000  0.5588990000000  0.5892770000000 1.0
C      1  0.4298590000000  0.4463980000000  0.5829260000000 1.0
C      1  0.5782350000000  0.4616440000000  0.5793470000000 1.0
C      1  0.4319000000000  0.4342200000000  0.4584940000000 1.0
C      1  0.5472590000000  0.4383360000000  0.4661190000000 1.0
C      1  0.4553130000000  0.4967160000000  0.5745580000000 1.0
C      1  0.5597350000000  0.4840110000000  0.5757720000000 1.0
C      1  0.4664990000000  0.6024390000000  0.5222370000000 1.0
C      1  0.5275980000000  0.6033900000000  0.5303470000000 1.0
C      1  0.4778550000000  0.4159350000000  0.5812120000000 1.0
C      1  0.5390750000000  0.4196960000000  0.5755870000000 1.0
C      1  0.4508070000000  0.5991320000000  0.4272870000000 1.0
C      1  0.5585090000000  0.5865580000000  0.4322580000000 1.0
C      1  0.4551410000000  0.5603950000000  0.5598700000000 1.0
C      1  0.5414290000000  0.5591180000000  0.5630740000000 1.0
C      1  0.4867040000000  0.5441180000000  0.5952890000000 1.0
C      1  0.5106710000000  0.5308230000000  0.5908280000000 1.0
C      1  0.4422670000000  0.5415820000000  0.4780280000000 1.0
C      1  0.5532930000000  0.5280760000000  0.4756280000000 1.0
C      1  0.4489610000000  0.5524710000000  0.4010340000000 1.0
C      1  0.5589970000000  0.5415110000000  0.4025870000000 1.0
C      1  0.5123370000000  0.5022960000000  0.5928820000000 1.0
C      1  0.4695710000000  0.4786180000000  0.5917440000000 1.0
C      1  0.4547730000000  0.4155880000000  0.5254140000000 1.0
C      1  0.5577110000000  0.4089690000000  0.5161800000000 1.0
C      1  0.5893680000000  0.5592940000000  0.5610630000000 1.0
C      1  0.4129110000000  0.5463400000000  0.5423480000000 1.0
C      1  0.4641510000000  0.5577710000000  0.4706740000000 1.0
C      1  0.5323830000000  0.5449960000000  0.4678900000000 1.0
C      1  0.4769940000000  0.4002290000000  0.5327630000000 1.0
C      1  0.5326420000000  0.3997910000000  0.5257750000000 1.0
C      1  0.4441870000000  0.4901010000000  0.5214690000000 1.0
C      1  0.5725640000000  0.4804970000000  0.5296290000000 1.0
C      1  0.6079170000000  0.4626810000000  0.4425070000000 1.0
C      1  0.3867710000000  0.4826930000000  0.4280840000000 1.0
C      1  0.5336980000000  0.5938740000000  0.4459960000000 1.0
C      1  0.4746760000000  0.6010220000000  0.4439680000000 1.0
C      1  0.5227220000000  0.4062630000000  0.5534240000000 1.0
C      1  0.4919050000000  0.4058470000000  0.5568620000000 1.0
C      1  0.6039720000000  0.4782560000000  0.5795780000000 1.0
C      1  0.4157200000000  0.4655780000000  0.5638330000000 1.0
C      1  0.4406710000000  0.4076520000000  0.5010830000000 1.0
C      1  0.5697550000000  0.4038550000000  0.4900710000000 1.0
C      1  0.4548610000000  0.3973890000000  0.4770480000000 1.0
C      1  0.5524130000000  0.3947710000000  0.4670240000000 1.0
C      1  0.4221060000000  0.4454400000000  0.4347330000000 1.0
C      1  0.5647700000000  0.4349010000000  0.4428610000000 1.0
END
