TITL C-3623289-7120-949 -1.28791740964207e-06 125000 -1289.60676048491 0 0 200 (C1) n - 1
REM
REM in /home/nfs/bkarasulu/CARBON/AIRSS/Generating-Clusters/LCBOP/Higher-Symm/SD-CG/FIRE-CG
REM
REM
REM
REM
REM
REM ./C.cell (b20cbc046b6831c77cfcea5457e17084)
REM AIRSS Version 0.9.1 bugfix July 2018 build 013d7b7c2542+ Fri, 06 Jul 2018 19:26:36 +0100
REM compiler GCC version 9.2.1 20190827 (Red Hat 9.2.1-1)
REM options -cpp -mtune=generic -march=x86-64 -g -O0 -fpre-include=/usr/include/finclude/math-vector-fortran.h
REM seed -1818684793 -215105320 161669212 -240224132 1984549564 1536268464 1342030420 -1297308875 1511354059 -354312459 -1302126692 -579150406 -29939735 -249842504 -532649916 -1311186695 -1690796613 -293638701 -1103905686 -2068573910 -1977605265 -174235535 101808994 284337040 -1710220735 -1507872616 -2025888673 1349686240 -2051846597 1245492871 -1653705929 602215161 -1798105896
REM
CELL 1.54180   50.00000   50.00000   50.00000   90.00000   90.00000   90.00000
LATT -1
SFAC C  
C      1  0.4531690000000  0.3815610000000  0.5786590000000 1.0
C      1  0.5824730000000  0.4725670000000  0.3944750000000 1.0
C      1  0.3937630000000  0.5790460000000  0.4701430000000 1.0
C      1  0.5295560000000  0.4144200000000  0.4205240000000 1.0
C      1  0.4674550000000  0.5794840000000  0.4257600000000 1.0
C      1  0.5504900000000  0.6244590000000  0.5731480000000 1.0
C      1  0.4236380000000  0.4638370000000  0.5813100000000 1.0
C      1  0.5767360000000  0.5516450000000  0.6101220000000 1.0
C      1  0.4222620000000  0.5195710000000  0.4161640000000 1.0
C      1  0.6162520000000  0.5807070000000  0.5360030000000 1.0
C      1  0.4145160000000  0.4189580000000  0.5203780000000 1.0
C      1  0.5827310000000  0.4239810000000  0.4745060000000 1.0
C      1  0.4715760000000  0.5848600000000  0.5798430000000 1.0
C      1  0.5761420000000  0.5257980000000  0.4196380000000 1.0
C      1  0.3809110000000  0.4217280000000  0.4625680000000 1.0
C      1  0.5537590000000  0.6135370000000  0.4137090000000 1.0
C      1  0.4354670000000  0.3862250000000  0.4182170000000 1.0
C      1  0.5338450000000  0.4205250000000  0.5735880000000 1.0
C      1  0.4113690000000  0.5450220000000  0.6132570000000 1.0
C      1  0.5803430000000  0.4762680000000  0.5838890000000 1.0
C      1  0.4181250000000  0.4648940000000  0.3907040000000 1.0
C      1  0.6121990000000  0.4186180000000  0.5297040000000 1.0
C      1  0.4202630000000  0.5740370000000  0.5275610000000 1.0
C      1  0.5877760000000  0.5802230000000  0.4787470000000 1.0
C      1  0.5331570000000  0.6126000000000  0.4608470000000 1.0
C      1  0.4612670000000  0.5319420000000  0.6117640000000 1.0
C      1  0.6061050000000  0.4654000000000  0.5279120000000 1.0
C      1  0.4864470000000  0.6063650000000  0.5348070000000 1.0
C      1  0.5137660000000  0.3937770000000  0.5336860000000 1.0
C      1  0.4590970000000  0.3935060000000  0.4649270000000 1.0
C      1  0.5325330000000  0.5293090000000  0.4015660000000 1.0
C      1  0.4666470000000  0.4663200000000  0.3962360000000 1.0
C      1  0.5340850000000  0.4885100000000  0.6040170000000 1.0
C      1  0.3984190000000  0.4654090000000  0.4681640000000 1.0
C      1  0.6040530000000  0.5355480000000  0.4769010000000 1.0
C      1  0.4012000000000  0.5303730000000  0.5292100000000 1.0
C      1  0.5268340000000  0.3913520000000  0.4648390000000 1.0
C      1  0.4697870000000  0.4653990000000  0.5991620000000 1.0
C      1  0.6023250000000  0.5346950000000  0.5325980000000 1.0
C      1  0.4816370000000  0.3897310000000  0.5339680000000 1.0
C      1  0.5181840000000  0.6100480000000  0.5318900000000 1.0
C      1  0.4684200000000  0.5979090000000  0.4707250000000 1.0
C      1  0.5348620000000  0.4736600000000  0.3930870000000 1.0
C      1  0.4658040000000  0.5233000000000  0.3969070000000 1.0
C      1  0.5311860000000  0.5208360000000  0.6050690000000 1.0
C      1  0.3948880000000  0.5323550000000  0.4742720000000 1.0
C      1  0.5972880000000  0.4690220000000  0.4748720000000 1.0
C      1  0.3963350000000  0.4632160000000  0.5239450000000 1.0
C      1  0.5860530000000  0.4196370000000  0.4467650000000 1.0
C      1  0.4413920000000  0.5783570000000  0.4152990000000 1.0
C      1  0.4100570000000  0.4392290000000  0.5798720000000 1.0
C      1  0.4065600000000  0.4070470000000  0.5444850000000 1.0
C      1  0.6099590000000  0.5917160000000  0.5594730000000 1.0
C      1  0.4018480000000  0.5812010000000  0.4443950000000 1.0
C      1  0.5735440000000  0.6144120000000  0.5817810000000 1.0
C      1  0.4304590000000  0.3946520000000  0.5840320000000 1.0
C      1  0.5557510000000  0.4152200000000  0.4101440000000 1.0
C      1  0.5893390000000  0.4496000000000  0.4068020000000 1.0
C      1  0.4087850000000  0.5440510000000  0.4125930000000 1.0
C      1  0.5893910000000  0.5722800000000  0.5991040000000 1.0
C      1  0.5935610000000  0.5854200000000  0.4515900000000 1.0
C      1  0.4150710000000  0.3992090000000  0.4070600000000 1.0
C      1  0.4040490000000  0.5649870000000  0.5968380000000 1.0
C      1  0.4145510000000  0.5849800000000  0.5527540000000 1.0
C      1  0.6030390000000  0.4143710000000  0.5547630000000 1.0
C      1  0.3823110000000  0.4186110000000  0.4359500000000 1.0
C      1  0.5611180000000  0.4192670000000  0.5801700000000 1.0
C      1  0.4453210000000  0.5875870000000  0.5892560000000 1.0
C      1  0.5742340000000  0.5968390000000  0.4092800000000 1.0
C      1  0.5887150000000  0.5508510000000  0.4173450000000 1.0
C      1  0.4024490000000  0.4450490000000  0.3992810000000 1.0
C      1  0.5949750000000  0.4520840000000  0.5849880000000 1.0
C      1  0.4383730000000  0.5073900000000  0.5569470000000 1.0
C      1  0.5518390000000  0.4302520000000  0.5148210000000 1.0
C      1  0.5106740000000  0.5549840000000  0.4407100000000 1.0
C      1  0.5715360000000  0.5149010000000  0.4455390000000 1.0
C      1  0.4398260000000  0.4870820000000  0.4480290000000 1.0
C      1  0.5737670000000  0.4862700000000  0.5577420000000 1.0
C      1  0.4484710000000  0.4350730000000  0.4902720000000 1.0
C      1  0.5603820000000  0.5827340000000  0.4879140000000 1.0
C      1  0.4469940000000  0.5707670000000  0.5180580000000 1.0
C      1  0.4835270000000  0.5588350000000  0.5773650000000 1.0
C      1  0.5195320000000  0.4453080000000  0.5706270000000 1.0
C      1  0.4906680000000  0.4425200000000  0.4356860000000 1.0
C      1  0.4277610000000  0.4805100000000  0.5585070000000 1.0
C      1  0.5533020000000  0.5722670000000  0.5136710000000 1.0
C      1  0.5165210000000  0.4397290000000  0.4242680000000 1.0
C      1  0.5582950000000  0.4901370000000  0.4507380000000 1.0
C      1  0.4269890000000  0.5116960000000  0.4432200000000 1.0
C      1  0.5609270000000  0.5109190000000  0.5507960000000 1.0
C      1  0.4502880000000  0.5563920000000  0.4927030000000 1.0
C      1  0.5573560000000  0.4217240000000  0.4875510000000 1.0
C      1  0.4426940000000  0.4212100000000  0.5145450000000 1.0
C      1  0.4927260000000  0.4467430000000  0.5584320000000 1.0
C      1  0.5093940000000  0.5539320000000  0.5659370000000 1.0
C      1  0.4835900000000  0.5562510000000  0.4299110000000 1.0
C      1  0.6106770000000  0.4413960000000  0.5130350000000 1.0
C      1  0.5378270000000  0.6196860000000  0.4342780000000 1.0
C      1  0.4344160000000  0.5328680000000  0.6194420000000 1.0
C      1  0.3903930000000  0.4407760000000  0.4808200000000 1.0
C      1  0.6049270000000  0.5603760000000  0.4912710000000 1.0
C      1  0.4006370000000  0.5561530000000  0.5160470000000 1.0
C      1  0.4807650000000  0.6065010000000  0.5642100000000 1.0
C      1  0.5229930000000  0.3964930000000  0.5623010000000 1.0
C      1  0.4510020000000  0.3848920000000  0.4397100000000 1.0
C      1  0.5580670000000  0.5162540000000  0.3994630000000 1.0
C      1  0.4416540000000  0.4802890000000  0.3916050000000 1.0
C      1  0.5635000000000  0.4825970000000  0.6055960000000 1.0
C      1  0.6103620000000  0.5590450000000  0.5193220000000 1.0
C      1  0.5231320000000  0.3918810000000  0.4369080000000 1.0
C      1  0.4420560000000  0.4663530000000  0.6025490000000 1.0
C      1  0.3925650000000  0.5572300000000  0.4882500000000 1.0
C      1  0.6011170000000  0.4427450000000  0.4860900000000 1.0
C      1  0.3965450000000  0.4387150000000  0.5087580000000 1.0
C      1  0.4722320000000  0.3785280000000  0.5601640000000 1.0
C      1  0.5299290000000  0.6232200000000  0.5563340000000 1.0
C      1  0.4717830000000  0.6012780000000  0.4431570000000 1.0
C      1  0.5593100000000  0.4886070000000  0.3911190000000 1.0
C      1  0.4411000000000  0.5087580000000  0.3968710000000 1.0
C      1  0.5572890000000  0.5337990000000  0.6133600000000 1.0
C      1  0.4684200000000  0.5353940000000  0.5842290000000 1.0
C      1  0.5788740000000  0.4684040000000  0.5363360000000 1.0
C      1  0.5381090000000  0.5858520000000  0.4697780000000 1.0
C      1  0.5235130000000  0.5319630000000  0.4291160000000 1.0
C      1  0.4734370000000  0.4619300000000  0.4239510000000 1.0
C      1  0.5261640000000  0.4730380000000  0.5774510000000 1.0
C      1  0.4265420000000  0.4698030000000  0.4656030000000 1.0
C      1  0.5772770000000  0.5287580000000  0.4693160000000 1.0
C      1  0.4280810000000  0.5204540000000  0.5336060000000 1.0
C      1  0.4735600000000  0.5787360000000  0.5265450000000 1.0
C      1  0.5259670000000  0.4206600000000  0.5225830000000 1.0
C      1  0.4631530000000  0.4212140000000  0.4704940000000 1.0
C      1  0.4780790000000  0.4672470000000  0.5717500000000 1.0
C      1  0.5739740000000  0.5307610000000  0.5351080000000 1.0
C      1  0.5319800000000  0.4176740000000  0.4748110000000 1.0
C      1  0.5294460000000  0.4647360000000  0.4198410000000 1.0
C      1  0.4743500000000  0.5297870000000  0.4236270000000 1.0
C      1  0.5259060000000  0.5333390000000  0.5769520000000 1.0
C      1  0.4217940000000  0.5263500000000  0.4667620000000 1.0
C      1  0.5693710000000  0.4765470000000  0.4727960000000 1.0
C      1  0.4227370000000  0.4710890000000  0.5320120000000 1.0
C      1  0.4665400000000  0.4165130000000  0.5300590000000 1.0
C      1  0.5325960000000  0.5825280000000  0.5303910000000 1.0
C      1  0.4709910000000  0.5704330000000  0.4790850000000 1.0
C      1  0.5144190000000  0.5616980000000  0.5387190000000 1.0
C      1  0.5333200000000  0.5140660000000  0.5570090000000 1.0
C      1  0.5587780000000  0.5439750000000  0.5149820000000 1.0
C      1  0.4977190000000  0.5625170000000  0.4877610000000 1.0
C      1  0.5081740000000  0.4334360000000  0.4818420000000 1.0
C      1  0.4853200000000  0.4382090000000  0.5320330000000 1.0
C      1  0.4845620000000  0.5067060000000  0.4385670000000 1.0
C      1  0.5323590000000  0.4850860000000  0.4398170000000 1.0
C      1  0.4854110000000  0.4938570000000  0.5624710000000 1.0
C      1  0.4409470000000  0.5297940000000  0.4878100000000 1.0
C      1  0.5541380000000  0.4738750000000  0.4963680000000 1.0
C      1  0.4393430000000  0.4809240000000  0.5099620000000 1.0
C      1  0.5046800000000  0.4368120000000  0.5105930000000 1.0
C      1  0.5144100000000  0.4931050000000  0.5593190000000 1.0
C      1  0.5590240000000  0.4577520000000  0.5191920000000 1.0
C      1  0.4872210000000  0.4335760000000  0.4624240000000 1.0
C      1  0.5174200000000  0.5659940000000  0.4667140000000 1.0
C      1  0.4953580000000  0.5610640000000  0.5171260000000 1.0
C      1  0.4669660000000  0.4843590000000  0.4403210000000 1.0
C      1  0.5133110000000  0.5066320000000  0.4397240000000 1.0
C      1  0.4648120000000  0.5135560000000  0.5663370000000 1.0
C      1  0.4416290000000  0.4625030000000  0.4883890000000 1.0
C      1  0.5580650000000  0.5309760000000  0.4898540000000 1.0
C      1  0.4402080000000  0.5101430000000  0.5090310000000 1.0
C      1  0.4724490000000  0.6244350000000  0.5151630000000 1.0
C      1  0.5145070000000  0.4758410000000  0.6233020000000 1.0
C      1  0.6222770000000  0.5144150000000  0.4741750000000 1.0
C      1  0.5268290000000  0.6302560000000  0.4816180000000 1.0
C      1  0.4643290000000  0.3752420000000  0.4855540000000 1.0
C      1  0.5238220000000  0.3736040000000  0.5128270000000 1.0
C      1  0.4873430000000  0.4655810000000  0.3771610000000 1.0
C      1  0.5129560000000  0.5308700000000  0.3812260000000 1.0
C      1  0.4832530000000  0.5296960000000  0.6289360000000 1.0
C      1  0.3805610000000  0.5109870000000  0.5296540000000 1.0
C      1  0.6231340000000  0.4871130000000  0.5323040000000 1.0
C      1  0.3796070000000  0.4859330000000  0.4648090000000 1.0
C      1  0.4728550000000  0.3727870000000  0.5107100000000 1.0
C      1  0.5095270000000  0.5276640000000  0.6245720000000 1.0
C      1  0.6177900000000  0.4879640000000  0.4719040000000 1.0
C      1  0.5257430000000  0.3722140000000  0.4856970000000 1.0
C      1  0.4660770000000  0.6186750000000  0.4895190000000 1.0
C      1  0.5236240000000  0.6271340000000  0.5079210000000 1.0
C      1  0.4863170000000  0.5272310000000  0.3779310000000 1.0
C      1  0.5137870000000  0.4699930000000  0.3749270000000 1.0
C      1  0.4892310000000  0.4671870000000  0.6194020000000 1.0
C      1  0.3775850000000  0.4842260000000  0.5264710000000 1.0
C      1  0.6203020000000  0.5134800000000  0.5359060000000 1.0
C      1  0.3762530000000  0.5121640000000  0.4692250000000 1.0
C      1  0.5794440000000  0.4268260000000  0.4202700000000 1.0
C      1  0.4154440000000  0.5698130000000  0.4222710000000 1.0
C      1  0.4129280000000  0.4125720000000  0.5713620000000 1.0
C      1  0.5923660000000  0.5936720000000  0.5812290000000 1.0
C      1  0.5880180000000  0.5779540000000  0.4249040000000 1.0
C      1  0.3979000000000  0.4207280000000  0.4125980000000 1.0
C      1  0.4193220000000  0.5817180000000  0.5802010000000 1.0
C      1  0.5878560000000  0.4264630000000  0.5752830000000 1.0
END
