TITL C-3623283-6828-253 -161628.537128605 125000 -261.583781782227 0 0 49 (C1) n - 1
REM
REM in /home/nfs/bkarasulu/CARBON/AIRSS/Generating-Clusters/LCBOP/Higher-Symm/SD-CG/FIRE-CG
REM
REM
REM
REM
REM
REM ./C.cell (b20cbc046b6831c77cfcea5457e17084)
REM AIRSS Version 0.9.1 bugfix July 2018 build 013d7b7c2542+ Fri, 06 Jul 2018 19:26:36 +0100
REM compiler GCC version 9.2.1 20190827 (Red Hat 9.2.1-1)
REM options -cpp -mtune=generic -march=x86-64 -g -O0 -fpre-include=/usr/include/finclude/math-vector-fortran.h
REM seed -1108479049 -1561775240 2080257544 -443575729 665090041 941729983 1369687738 390190742 2110586279 -558985203 387237421 -1642734027 752140329 -1165774608 -1442373831 383146396 1865723693 1980487683 -1134665880 -1035794104 264096594 490557360 205389926 2025004637 -1836176864 948867211 193520854 -319130658 1778241564 -1317502694 1231762479 695877578 -1484853038
REM
CELL 1.54180   50.00000   50.00000   50.00000   90.00000   90.00000   90.00000
LATT -1
SFAC C  
C      1  0.5563430000000  0.4551430000000  0.4971750000000 1.0
C      1  0.5022900000000  0.4630210000000  0.5469660000000 1.0
C      1  0.4434040000000  0.4564430000000  0.5036360000000 1.0
C      1  0.4956140000000  0.4623280000000  0.4534260000000 1.0
C      1  0.5546280000000  0.5385680000000  0.4998750000000 1.0
C      1  0.5017290000000  0.5376420000000  0.5532810000000 1.0
C      1  0.4444840000000  0.5371270000000  0.5022300000000 1.0
C      1  0.4960370000000  0.5371780000000  0.4473780000000 1.0
C      1  0.5648950000000  0.4809620000000  0.4746350000000 1.0
C      1  0.5225150000000  0.4816450000000  0.5589460000000 1.0
C      1  0.4320160000000  0.4780650000000  0.5222470000000 1.0
C      1  0.4757200000000  0.4820840000000  0.4413880000000 1.0
C      1  0.5642900000000  0.5185080000000  0.4796800000000 1.0
C      1  0.5210820000000  0.5174370000000  0.5643990000000 1.0
C      1  0.4354930000000  0.5159110000000  0.5233990000000 1.0
C      1  0.4764590000000  0.5179870000000  0.4358910000000 1.0
C      1  0.4835620000000  0.5147520000000  0.5207290000000 1.0
C      1  0.4720920000000  0.5121050000000  0.4798090000000 1.0
C      1  0.5135480000000  0.5131960000000  0.4791200000000 1.0
C      1  0.5268480000000  0.5120830000000  0.5203630000000 1.0
C      1  0.4775720000000  0.4873410000000  0.5171340000000 1.0
C      1  0.4709080000000  0.4869840000000  0.4898090000000 1.0
C      1  0.5200770000000  0.4853880000000  0.4837000000000 1.0
C      1  0.5292940000000  0.4861010000000  0.5107680000000 1.0
C      1  0.4465400000000  0.4821690000000  0.4521180000000 1.0
C      1  0.5483030000000  0.4829420000000  0.4499220000000 1.0
C      1  0.5520780000000  0.4819260000000  0.5488160000000 1.0
C      1  0.4508210000000  0.4845280000000  0.5521020000000 1.0
C      1  0.4416030000000  0.5129740000000  0.4491560000000 1.0
C      1  0.5466480000000  0.5133090000000  0.4489560000000 1.0
C      1  0.5564320000000  0.5127410000000  0.5519440000000 1.0
C      1  0.4499900000000  0.5147760000000  0.5495420000000 1.0
C      1  0.4484110000000  0.4717090000000  0.4794800000000 1.0
C      1  0.5225440000000  0.4725920000000  0.4574600000000 1.0
C      1  0.5516840000000  0.4711350000000  0.5211640000000 1.0
C      1  0.4758910000000  0.4743460000000  0.5432620000000 1.0
C      1  0.4473840000000  0.5254850000000  0.4751580000000 1.0
C      1  0.5206290000000  0.5239740000000  0.4532760000000 1.0
C      1  0.5512510000000  0.5256900000000  0.5262760000000 1.0
C      1  0.4764900000000  0.5255700000000  0.5467690000000 1.0
C      1  0.4952810000000  0.5573340000000  0.4763230000000 1.0
C      1  0.5254290000000  0.5590850000000  0.4972690000000 1.0
C      1  0.5031400000000  0.5595410000000  0.5258160000000 1.0
C      1  0.4745070000000  0.5566450000000  0.5043180000000 1.0
C      1  0.4937060000000  0.4428340000000  0.4766840000000 1.0
C      1  0.5244660000000  0.4405390000000  0.4955100000000 1.0
C      1  0.5034360000000  0.4432670000000  0.5240810000000 1.0
C      1  0.4752250000000  0.4414050000000  0.5051050000000 1.0
C      1  0.5052110000000  0.5216850000000  0.5049330000000 1.0
END
