TITL C-3623283-6828-1707 -0.115334946127259 125000 -28.206422444607 0 0 8 (Oh) n - 1
REM
REM in /home/nfs/bkarasulu/CARBON/AIRSS/Generating-Clusters/LCBOP/Higher-Symm/SD-CG/FIRE-CG
REM
REM
REM
REM
REM
REM ./C.cell (b20cbc046b6831c77cfcea5457e17084)
REM AIRSS Version 0.9.1 bugfix July 2018 build 013d7b7c2542+ Fri, 06 Jul 2018 19:26:36 +0100
REM compiler GCC version 9.2.1 20190827 (Red Hat 9.2.1-1)
REM options -cpp -mtune=generic -march=x86-64 -g -O0 -fpre-include=/usr/include/finclude/math-vector-fortran.h
REM seed -2028595302 784069499 -958612125 228912862 -2025993410 308398621 -2035625432 -1946134722 -877788368 1173221153 -602567373 1896615401 -997017144 -1751298938 2470917 -614907479 -1555677881 1801209940 -558947843 1939811245 1785169760 372483551 -341852663 -855344580 -1339120316 -2020774815 -813986911 -226200810 -576954208 1483036018 1731575941 -348848827 2044078716
REM
CELL 1.54180   50.00000   50.00000   50.00000   90.00000   90.00000   90.00000
LATT -1
SFAC C  
C      1  0.4836000000000  0.4834700000000  0.5167410000000 1.0
C      1  0.5168220000000  0.4834700000000  0.4835190000000 1.0
C      1  0.4836000000000  0.5166920000000  0.4835190000000 1.0
C      1  0.5168220000000  0.4834700000000  0.5167410000000 1.0
C      1  0.5168220000000  0.5166920000000  0.4835190000000 1.0
C      1  0.4836000000000  0.5166920000000  0.5167410000000 1.0
C      1  0.5168220000000  0.5166920000000  0.5167410000000 1.0
C      1  0.4836000000000  0.4834700000000  0.4835190000000 1.0
END
