TITL C-3623288-6813-718 -1.82018699808954e-07 125000 -162.499454830654 0 0 26 (D3d) n - 1
REM
REM in /home/nfs/bkarasulu/CARBON/AIRSS/Generating-Clusters/LCBOP/Higher-Symm/SD-CG/FIRE-CG
REM
REM
REM
REM
REM
REM ./C.cell (b20cbc046b6831c77cfcea5457e17084)
REM AIRSS Version 0.9.1 bugfix July 2018 build 013d7b7c2542+ Fri, 06 Jul 2018 19:26:36 +0100
REM compiler GCC version 9.2.1 20190827 (Red Hat 9.2.1-1)
REM options -cpp -mtune=generic -march=x86-64 -g -O0 -fpre-include=/usr/include/finclude/math-vector-fortran.h
REM seed 2077437705 2069428955 1534193457 -891120970 -2028688674 -408400590 300185110 1534758682 -1557610492 -939001913 -1529022481 1610717532 -190225752 -2046361238 1938157328 2082400758 732333728 -2078081274 1446160056 68191142 1656153609 450854187 1931897582 -200715381 -1814304698 -1584257587 -579213339 -863278326 -914417100 1175400076 2000398696 -52803861 1143943686
REM
CELL 1.54180   50.00000   50.00000   50.00000   90.00000   90.00000   90.00000
LATT -1
SFAC C  
C      1  0.4758550000000  0.5376130000000  0.5125680000000 1.0
C      1  0.5241460000000  0.5061400000000  0.5384710000000 1.0
C      1  0.4758540000000  0.4679710000000  0.5241670000000 1.0
C      1  0.5241450000000  0.4612740000000  0.4839590000000 1.0
C      1  0.4758540000000  0.4927480000000  0.4580560000000 1.0
C      1  0.5241460000000  0.5309160000000  0.4723600000000 1.0
C      1  0.5000010000000  0.5462750000000  0.5246030000000 1.0
C      1  0.5000000000000  0.5000480000000  0.5519910000000 1.0
C      1  0.4999990000000  0.4532170000000  0.5256510000000 1.0
C      1  0.4999990000000  0.4526120000000  0.4719230000000 1.0
C      1  0.5000000000000  0.4988390000000  0.4445360000000 1.0
C      1  0.5000010000000  0.5456700000000  0.4708760000000 1.0
C      1  0.5376030000000  0.4852380000000  0.4742870000000 1.0
C      1  0.4623960000000  0.5131060000000  0.4739740000000 1.0
C      1  0.5376040000000  0.5273090000000  0.4979500000000 1.0
C      1  0.4623970000000  0.5136490000000  0.5222400000000 1.0
C      1  0.5376040000000  0.4857810000000  0.5225530000000 1.0
C      1  0.4623960000000  0.4715780000000  0.4985770000000 1.0
C      1  0.5241450000000  0.5052330000000  0.4579150000000 1.0
C      1  0.4758550000000  0.5372820000000  0.4831030000000 1.0
C      1  0.5241460000000  0.5314910000000  0.5234520000000 1.0
C      1  0.4758550000000  0.4936540000000  0.5386120000000 1.0
C      1  0.5241450000000  0.4616060000000  0.5134230000000 1.0
C      1  0.4758540000000  0.4673960000000  0.4730750000000 1.0
C      1  0.5478210000000  0.4994430000000  0.4982630000000 1.0
C      1  0.4521790000000  0.4994440000000  0.4982640000000 1.0
END
