TITL C-3623285-6872-1701 115146.822157212 125000 -790.963428196779 0 0 130 (Cs) n - 1
REM
REM in /home/nfs/bkarasulu/CARBON/AIRSS/Generating-Clusters/LCBOP/Higher-Symm/SD-CG/FIRE-CG
REM
REM
REM
REM
REM
REM ./C.cell (b20cbc046b6831c77cfcea5457e17084)
REM AIRSS Version 0.9.1 bugfix July 2018 build 013d7b7c2542+ Fri, 06 Jul 2018 19:26:36 +0100
REM compiler GCC version 9.2.1 20190827 (Red Hat 9.2.1-1)
REM options -cpp -mtune=generic -march=x86-64 -g -O0 -fpre-include=/usr/include/finclude/math-vector-fortran.h
REM seed -1873820149 27541162 1647997162 -782731963 1845353021 -956598927 1744969591 1072672585 -1905918732 791922567 -1239298135 1411325170 -316994099 853163884 -44638763 481941885 -745850849 549451042 1695439321 229803368 -2125927753 -477638800 121323649 -1875446584 1422076818 1688683709 -382739437 284412612 768319211 1738103644 1455821197 1362227086 -1578746130
REM
CELL 1.54180   50.00000   50.00000   50.00000   90.00000   90.00000   90.00000
LATT -1
SFAC C  
C      1  0.4424690000000  0.4086980000000  0.4852470000000 1.0
C      1  0.4423370000000  0.4859480000000  0.4085440000000 1.0
C      1  0.4421350000000  0.5827100000000  0.4582600000000 1.0
C      1  0.4423430000000  0.5653750000000  0.5655920000000 1.0
C      1  0.4425460000000  0.4578850000000  0.5823540000000 1.0
C      1  0.4424690000000  0.4086980000000  0.5147530000000 1.0
C      1  0.4423370000000  0.4859480000000  0.5914560000000 1.0
C      1  0.4421350000000  0.5827100000000  0.5417410000000 1.0
C      1  0.4423420000000  0.5653760000000  0.4344090000000 1.0
C      1  0.4425460000000  0.4578850000000  0.4176460000000 1.0
C      1  0.5065790000000  0.5454480000000  0.5623770000000 1.0
C      1  0.5066580000000  0.4546590000000  0.5624730000000 1.0
C      1  0.5063150000000  0.4264260000000  0.4762530000000 1.0
C      1  0.5059110000000  0.4999460000000  0.4227900000000 1.0
C      1  0.5059490000000  0.5736250000000  0.4760040000000 1.0
C      1  0.5065790000000  0.5454490000000  0.4376240000000 1.0
C      1  0.5066580000000  0.4546590000000  0.4375270000000 1.0
C      1  0.5063150000000  0.4264260000000  0.5237470000000 1.0
C      1  0.5059110000000  0.4999460000000  0.5772100000000 1.0
C      1  0.5059490000000  0.5736250000000  0.5239960000000 1.0
C      1  0.4858730000000  0.5919600000000  0.5144800000000 1.0
C      1  0.4860040000000  0.5148330000000  0.5917150000000 1.0
C      1  0.4862610000000  0.4172570000000  0.5422880000000 1.0
C      1  0.4864530000000  0.4343280000000  0.4342810000000 1.0
C      1  0.4863430000000  0.5423730000000  0.4172830000000 1.0
C      1  0.4858730000000  0.5919600000000  0.4855200000000 1.0
C      1  0.4860030000000  0.5148330000000  0.4082850000000 1.0
C      1  0.4862610000000  0.4172570000000  0.4577110000000 1.0
C      1  0.4864530000000  0.4343280000000  0.5657190000000 1.0
C      1  0.4863430000000  0.5423730000000  0.5827170000000 1.0
C      1  0.4294730000000  0.4591200000000  0.4437040000000 1.0
C      1  0.4293250000000  0.5409600000000  0.4436620000000 1.0
C      1  0.4291740000000  0.5662300000000  0.5214760000000 1.0
C      1  0.4292940000000  0.5000890000000  0.5695410000000 1.0
C      1  0.4294500000000  0.4339020000000  0.5215280000000 1.0
C      1  0.4294730000000  0.4591200000000  0.5562960000000 1.0
C      1  0.4293250000000  0.5409590000000  0.5563380000000 1.0
C      1  0.4291740000000  0.5662300000000  0.4785250000000 1.0
C      1  0.4292940000000  0.5000890000000  0.4304590000000 1.0
C      1  0.4294500000000  0.4339020000000  0.4784720000000 1.0
C      1  0.4033880000000  0.4696910000000  0.4584640000000 1.0
C      1  0.4032620000000  0.5301500000000  0.4583170000000 1.0
C      1  0.4032130000000  0.5489330000000  0.5157950000000 1.0
C      1  0.4033260000000  0.5001260000000  0.5514140000000 1.0
C      1  0.4034220000000  0.4511660000000  0.5160030000000 1.0
C      1  0.4033880000000  0.4696910000000  0.5415370000000 1.0
C      1  0.4032620000000  0.5301500000000  0.5416840000000 1.0
C      1  0.4032130000000  0.5489330000000  0.4842060000000 1.0
C      1  0.4033250000000  0.5001270000000  0.4485860000000 1.0
C      1  0.4034210000000  0.4511660000000  0.4839970000000 1.0
C      1  0.4501240000000  0.4726240000000  0.4623960000000 1.0
C      1  0.4500090000000  0.5273840000000  0.4622600000000 1.0
C      1  0.4499220000000  0.5444260000000  0.5142830000000 1.0
C      1  0.4500050000000  0.5002070000000  0.5465450000000 1.0
C      1  0.4501280000000  0.4558280000000  0.5144970000000 1.0
C      1  0.4501240000000  0.4726240000000  0.5376040000000 1.0
C      1  0.4500090000000  0.5273840000000  0.5377410000000 1.0
C      1  0.4499220000000  0.5444260000000  0.4857180000000 1.0
C      1  0.4500050000000  0.5002070000000  0.4534550000000 1.0
C      1  0.4501280000000  0.4558280000000  0.4855030000000 1.0
C      1  0.5027440000000  0.4722790000000  0.4618810000000 1.0
C      1  0.5025630000000  0.5277760000000  0.4619340000000 1.0
C      1  0.5024510000000  0.5450330000000  0.5145960000000 1.0
C      1  0.5024090000000  0.4999850000000  0.5471170000000 1.0
C      1  0.5028310000000  0.4550620000000  0.5145340000000 1.0
C      1  0.5027440000000  0.4722790000000  0.5381190000000 1.0
C      1  0.5025630000000  0.5277760000000  0.5380660000000 1.0
C      1  0.5024510000000  0.5450330000000  0.4854040000000 1.0
C      1  0.5024090000000  0.4999850000000  0.4528830000000 1.0
C      1  0.5028310000000  0.4550620000000  0.4854660000000 1.0
C      1  0.5539230000000  0.5852500000000  0.4819870000000 1.0
C      1  0.5546640000000  0.5438830000000  0.5743560000000 1.0
C      1  0.5547010000000  0.4426790000000  0.5656260000000 1.0
C      1  0.5542070000000  0.4206640000000  0.4639720000000 1.0
C      1  0.5538020000000  0.5088940000000  0.4146530000000 1.0
C      1  0.5539230000000  0.5852500000000  0.5180140000000 1.0
C      1  0.5546640000000  0.5438850000000  0.4256430000000 1.0
C      1  0.5547010000000  0.4426760000000  0.4343740000000 1.0
C      1  0.5542070000000  0.4206640000000  0.5360270000000 1.0
C      1  0.5538020000000  0.5088940000000  0.5853460000000 1.0
C      1  0.5322430000000  0.4592030000000  0.4239070000000 1.0
C      1  0.5323580000000  0.5595080000000  0.4377470000000 1.0
C      1  0.5315950000000  0.5783260000000  0.5373400000000 1.0
C      1  0.5315470000000  0.4888210000000  0.5857530000000 1.0
C      1  0.5321430000000  0.4146640000000  0.5158710000000 1.0
C      1  0.5322430000000  0.4592030000000  0.5760920000000 1.0
C      1  0.5323580000000  0.5595080000000  0.5622530000000 1.0
C      1  0.5315950000000  0.5783260000000  0.4626600000000 1.0
C      1  0.5315460000000  0.4888210000000  0.4142460000000 1.0
C      1  0.5321430000000  0.4146640000000  0.4841290000000 1.0
C      1  0.4640450000000  0.5976230000000  0.5316890000000 1.0
C      1  0.4641750000000  0.5002660000000  0.6024990000000 1.0
C      1  0.4644030000000  0.4026040000000  0.5316600000000 1.0
C      1  0.4646340000000  0.4401020000000  0.4170630000000 1.0
C      1  0.4645180000000  0.5605140000000  0.4174150000000 1.0
C      1  0.4640440000000  0.5976240000000  0.4683110000000 1.0
C      1  0.4641750000000  0.5002660000000  0.3975010000000 1.0
C      1  0.4644030000000  0.4026040000000  0.4683400000000 1.0
C      1  0.4646340000000  0.4401020000000  0.5829360000000 1.0
C      1  0.4645190000000  0.5605130000000  0.5825860000000 1.0
C      1  0.6007390000000  0.4505710000000  0.4836530000000 1.0
C      1  0.5999590000000  0.4997550000000  0.4486770000000 1.0
C      1  0.6001600000000  0.5488430000000  0.4837250000000 1.0
C      1  0.6007250000000  0.5303390000000  0.5423890000000 1.0
C      1  0.6010670000000  0.4691390000000  0.5426150000000 1.0
C      1  0.6007390000000  0.4505710000000  0.5163470000000 1.0
C      1  0.5999590000000  0.4997550000000  0.5513230000000 1.0
C      1  0.6001600000000  0.5488420000000  0.5162750000000 1.0
C      1  0.6007250000000  0.5303400000000  0.4576110000000 1.0
C      1  0.6010670000000  0.4691380000000  0.4573840000000 1.0
C      1  0.5729170000000  0.4995840000000  0.4338440000000 1.0
C      1  0.5730920000000  0.5637070000000  0.4784070000000 1.0
C      1  0.5765730000000  0.5415620000000  0.5577420000000 1.0
C      1  0.5766590000000  0.4578500000000  0.5581810000000 1.0
C      1  0.5737680000000  0.4358090000000  0.4784360000000 1.0
C      1  0.5729150000000  0.4995850000000  0.5661600000000 1.0
C      1  0.5730910000000  0.5637140000000  0.5215810000000 1.0
C      1  0.5765770000000  0.5415650000000  0.4422610000000 1.0
C      1  0.5766640000000  0.4578530000000  0.4418170000000 1.0
C      1  0.5737670000000  0.4358050000000  0.5215560000000 1.0
C      1  0.5520750000000  0.4753260000000  0.5328350000000 1.0
C      1  0.5559950000000  0.4581260000000  0.4865190000000 1.0
C      1  0.5555230000000  0.4993040000000  0.4573560000000 1.0
C      1  0.5551380000000  0.5410960000000  0.4862360000000 1.0
C      1  0.5519690000000  0.5235400000000  0.5327390000000 1.0
C      1  0.5520690000000  0.4753320000000  0.4671720000000 1.0
C      1  0.5559960000000  0.4581250000000  0.5134800000000 1.0
C      1  0.5555230000000  0.4993040000000  0.5426440000000 1.0
C      1  0.5551380000000  0.5410960000000  0.5137640000000 1.0
C      1  0.5519620000000  0.5235340000000  0.4672680000000 1.0
END
