TITL C-3623284-6838-1447 -76.3941045027543 125000 -925.002314544186 0 0 161 (Cs) n - 1
REM
REM in /home/nfs/bkarasulu/CARBON/AIRSS/Generating-Clusters/LCBOP/Higher-Symm/SD-CG/FIRE-CG
REM
REM
REM
REM
REM
REM ./C.cell (b20cbc046b6831c77cfcea5457e17084)
REM AIRSS Version 0.9.1 bugfix July 2018 build 013d7b7c2542+ Fri, 06 Jul 2018 19:26:36 +0100
REM compiler GCC version 9.2.1 20190827 (Red Hat 9.2.1-1)
REM options -cpp -mtune=generic -march=x86-64 -g -O0 -fpre-include=/usr/include/finclude/math-vector-fortran.h
REM seed -534148576 1262822077 -920305410 -1008357128 284650513 -889439345 -1997309820 -811479418 1270319949 -427953122 -370437689 772806186 -172134347 -1982217278 -2068119773 -1247444173 525985040 1674386578 -2082149412 -1508548979 -1931893943 -725677218 1845346905 -2094892973 -1590881940 -515269195 -693207130 1158572501 -1115123992 -1651771099 -1582564676 2054889031 -497474644
REM
CELL 1.54180   50.00000   50.00000   50.00000   90.00000   90.00000   90.00000
LATT -1
SFAC C  
C      1  0.5560000000000  0.4613870000000  0.4372220000000 1.0
C      1  0.5559710000000  0.4646740000000  0.5648730000000 1.0
C      1  0.5560070000000  0.5737310000000  0.4983510000000 1.0
C      1  0.4437230000000  0.4613730000000  0.4372150000000 1.0
C      1  0.4437740000000  0.4646730000000  0.5648630000000 1.0
C      1  0.4437460000000  0.5737260000000  0.4983540000000 1.0
C      1  0.5645900000000  0.5104070000000  0.4260570000000 1.0
C      1  0.5644240000000  0.4306320000000  0.5279930000000 1.0
C      1  0.5645280000000  0.5587960000000  0.5462970000000 1.0
C      1  0.4351480000000  0.5104050000000  0.4260550000000 1.0
C      1  0.4353160000000  0.4306320000000  0.5279890000000 1.0
C      1  0.4352140000000  0.5587970000000  0.5462970000000 1.0
C      1  0.4401900000000  0.5275040000000  0.5861000000000 1.0
C      1  0.4401610000000  0.5605850000000  0.4332860000000 1.0
C      1  0.4401930000000  0.4116530000000  0.4810580000000 1.0
C      1  0.5595490000000  0.5275040000000  0.5861030000000 1.0
C      1  0.5595830000000  0.5605850000000  0.4332850000000 1.0
C      1  0.5595450000000  0.4116570000000  0.4810580000000 1.0
C      1  0.4850570000000  0.4551740000000  0.4079040000000 1.0
C      1  0.4850650000000  0.4423670000000  0.5849680000000 1.0
C      1  0.4850670000000  0.6022860000000  0.5077540000000 1.0
C      1  0.5146720000000  0.4551790000000  0.4079100000000 1.0
C      1  0.5146770000000  0.4423660000000  0.5849720000000 1.0
C      1  0.5146840000000  0.6022890000000  0.5077540000000 1.0
C      1  0.5200460000000  0.4153460000000  0.5822410000000 1.0
C      1  0.5200500000000  0.6134030000000  0.5325320000000 1.0
C      1  0.5200430000000  0.4710550000000  0.3858700000000 1.0
C      1  0.4796930000000  0.4153480000000  0.5822390000000 1.0
C      1  0.4796980000000  0.6134010000000  0.5325300000000 1.0
C      1  0.4796910000000  0.4710530000000  0.3858650000000 1.0
C      1  0.5252210000000  0.4193330000000  0.4518330000000 1.0
C      1  0.5252370000000  0.4983520000000  0.5940970000000 1.0
C      1  0.5252610000000  0.5821650000000  0.4544960000000 1.0
C      1  0.4745130000000  0.4193220000000  0.4518270000000 1.0
C      1  0.4745030000000  0.4983510000000  0.5940890000000 1.0
C      1  0.4744870000000  0.5821600000000  0.4544980000000 1.0
C      1  0.4354990000000  0.4330420000000  0.4288370000000 1.0
C      1  0.4354850000000  0.4715770000000  0.5935660000000 1.0
C      1  0.4354810000000  0.5950990000000  0.4779690000000 1.0
C      1  0.5642250000000  0.4330570000000  0.4288380000000 1.0
C      1  0.5642600000000  0.4715810000000  0.5935750000000 1.0
C      1  0.5642710000000  0.5951020000000  0.4779630000000 1.0
C      1  0.4413750000000  0.4926060000000  0.5550590000000 1.0
C      1  0.4413970000000  0.5512490000000  0.4790880000000 1.0
C      1  0.4413200000000  0.4558830000000  0.4663310000000 1.0
C      1  0.5583660000000  0.4926060000000  0.5550670000000 1.0
C      1  0.5583560000000  0.5512520000000  0.4790850000000 1.0
C      1  0.5584060000000  0.4558930000000  0.4663360000000 1.0
C      1  0.5483250000000  0.5270640000000  0.4736190000000 1.0
C      1  0.5486890000000  0.4641040000000  0.4898810000000 1.0
C      1  0.5485190000000  0.5090740000000  0.5364490000000 1.0
C      1  0.4514210000000  0.5270610000000  0.4736090000000 1.0
C      1  0.4510450000000  0.4641100000000  0.4898670000000 1.0
C      1  0.4512210000000  0.5090790000000  0.5364450000000 1.0
C      1  0.5965780000000  0.5324210000000  0.4684440000000 1.0
C      1  0.5964140000000  0.4562760000000  0.4879190000000 1.0
C      1  0.5964610000000  0.5111490000000  0.5440890000000 1.0
C      1  0.4031640000000  0.5324230000000  0.4684430000000 1.0
C      1  0.4033230000000  0.4562770000000  0.4879180000000 1.0
C      1  0.4032820000000  0.5111500000000  0.5440860000000 1.0
C      1  0.5544810000000  0.5847850000000  0.4520630000000 1.0
C      1  0.5544260000000  0.4157920000000  0.4507120000000 1.0
C      1  0.5544470000000  0.4991410000000  0.5976260000000 1.0
C      1  0.4452670000000  0.5847830000000  0.4520670000000 1.0
C      1  0.4453080000000  0.4157810000000  0.4507100000000 1.0
C      1  0.4452930000000  0.4991390000000  0.5976190000000 1.0
C      1  0.5241780000000  0.4606040000000  0.5627270000000 1.0
C      1  0.5241920000000  0.5739170000000  0.5029950000000 1.0
C      1  0.5241790000000  0.4653670000000  0.4348250000000 1.0
C      1  0.4755710000000  0.4606040000000  0.5627150000000 1.0
C      1  0.4755650000000  0.5739100000000  0.5029990000000 1.0
C      1  0.4755370000000  0.4653500000000  0.4348150000000 1.0
C      1  0.4861810000000  0.3770950000000  0.5556260000000 1.0
C      1  0.4861840000000  0.6093690000000  0.5789550000000 1.0
C      1  0.4861840000000  0.5132060000000  0.3659910000000 1.0
C      1  0.5135560000000  0.3770950000000  0.5556280000000 1.0
C      1  0.5135590000000  0.6093680000000  0.5789560000000 1.0
C      1  0.5135570000000  0.5132060000000  0.3659930000000 1.0
C      1  0.5957290000000  0.5442640000000  0.5036530000000 1.0
C      1  0.5957690000000  0.4807820000000  0.4600000000000 1.0
C      1  0.5956010000000  0.4747320000000  0.5367110000000 1.0
C      1  0.4040140000000  0.5442670000000  0.5036510000000 1.0
C      1  0.4039670000000  0.4807830000000  0.4599980000000 1.0
C      1  0.4041410000000  0.4747330000000  0.5367080000000 1.0
C      1  0.6072690000000  0.4732820000000  0.5096720000000 1.0
C      1  0.6073300000000  0.5214960000000  0.5184720000000 1.0
C      1  0.6073720000000  0.5050140000000  0.4723150000000 1.0
C      1  0.3924700000000  0.4732840000000  0.5096710000000 1.0
C      1  0.3924120000000  0.5214990000000  0.5184710000000 1.0
C      1  0.3923670000000  0.5050160000000  0.4723140000000 1.0
C      1  0.4706150000000  0.4008850000000  0.5600230000000 1.0
C      1  0.4706060000000  0.6013550000000  0.5561370000000 1.0
C      1  0.4706110000000  0.4975230000000  0.3844030000000 1.0
C      1  0.5291230000000  0.4008840000000  0.5600260000000 1.0
C      1  0.5291380000000  0.6013550000000  0.5561380000000 1.0
C      1  0.5291270000000  0.4975220000000  0.3844070000000 1.0
C      1  0.4239760000000  0.5342160000000  0.5617950000000 1.0
C      1  0.4238580000000  0.5361940000000  0.4395830000000 1.0
C      1  0.4240510000000  0.4294350000000  0.4990100000000 1.0
C      1  0.5757650000000  0.5342150000000  0.5617970000000 1.0
C      1  0.5758830000000  0.5361930000000  0.4395830000000 1.0
C      1  0.5756880000000  0.4294360000000  0.4990110000000 1.0
C      1  0.5146280000000  0.4471980000000  0.4585710000000 1.0
C      1  0.5146130000000  0.4902010000000  0.5666640000000 1.0
C      1  0.5145980000000  0.5626970000000  0.4753900000000 1.0
C      1  0.4850980000000  0.4471910000000  0.4585610000000 1.0
C      1  0.4851290000000  0.4902010000000  0.5666570000000 1.0
C      1  0.4851540000000  0.5626900000000  0.4753870000000 1.0
C      1  0.4781200000000  0.5254450000000  0.4820280000000 1.0
C      1  0.4779870000000  0.4716410000000  0.4872130000000 1.0
C      1  0.4780510000000  0.5028870000000  0.5310770000000 1.0
C      1  0.5216330000000  0.5254510000000  0.4820570000000 1.0
C      1  0.5217450000000  0.4716290000000  0.4872360000000 1.0
C      1  0.5216850000000  0.5028890000000  0.5310850000000 1.0
C      1  0.4860410000000  0.3991240000000  0.4685450000000 1.0
C      1  0.4860360000000  0.5229230000000  0.6032170000000 1.0
C      1  0.4860370000000  0.5776570000000  0.4286870000000 1.0
C      1  0.5136970000000  0.3991280000000  0.4685460000000 1.0
C      1  0.5137020000000  0.5229240000000  0.6032200000000 1.0
C      1  0.5137080000000  0.5776580000000  0.4286870000000 1.0
C      1  0.5179260000000  0.5321390000000  0.4150770000000 1.0
C      1  0.5179120000000  0.4101110000000  0.5147430000000 1.0
C      1  0.5179180000000  0.5574820000000  0.5706360000000 1.0
C      1  0.4818140000000  0.5321390000000  0.4150750000000 1.0
C      1  0.4818280000000  0.4101120000000  0.5147410000000 1.0
C      1  0.4818230000000  0.5574820000000  0.5706350000000 1.0
C      1  0.5640120000000  0.5132810000000  0.5156190000000 1.0
C      1  0.5637010000000  0.5068300000000  0.4798350000000 1.0
C      1  0.5642550000000  0.4810010000000  0.5030450000000 1.0
C      1  0.4357300000000  0.5132950000000  0.5156160000000 1.0
C      1  0.4360410000000  0.5068320000000  0.4798320000000 1.0
C      1  0.4354810000000  0.4810090000000  0.5030330000000 1.0
C      1  0.4241730000000  0.4845740000000  0.4364920000000 1.0
C      1  0.4243100000000  0.4525050000000  0.5450810000000 1.0
C      1  0.4242030000000  0.5627100000000  0.5187670000000 1.0
C      1  0.5755600000000  0.4845780000000  0.4364970000000 1.0
C      1  0.5754310000000  0.4525040000000  0.5450870000000 1.0
C      1  0.5755420000000  0.5627100000000  0.5187680000000 1.0
C      1  0.5381000000000  0.5113730000000  0.4086450000000 1.0
C      1  0.5380550000000  0.4149980000000  0.5359220000000 1.0
C      1  0.5380980000000  0.5734320000000  0.5558850000000 1.0
C      1  0.4616390000000  0.5113730000000  0.4086420000000 1.0
C      1  0.4616840000000  0.4149990000000  0.5359200000000 1.0
C      1  0.4616440000000  0.5734320000000  0.5558840000000 1.0
C      1  0.5151560000000  0.4975100000000  0.4732880000000 1.0
C      1  0.5152210000000  0.4778200000000  0.5157710000000 1.0
C      1  0.5152110000000  0.5245790000000  0.5114570000000 1.0
C      1  0.4846020000000  0.4975110000000  0.4732330000000 1.0
C      1  0.4845080000000  0.4778350000000  0.5157480000000 1.0
C      1  0.4845230000000  0.5245590000000  0.5114300000000 1.0
C      1  0.4682060000000  0.5413980000000  0.5900700000000 1.0
C      1  0.4682010000000  0.5570130000000  0.4193090000000 1.0
C      1  0.4682130000000  0.4012770000000  0.4911170000000 1.0
C      1  0.5315330000000  0.5413990000000  0.5900710000000 1.0
C      1  0.5315410000000  0.5570120000000  0.4193100000000 1.0
C      1  0.5315260000000  0.4012770000000  0.4911180000000 1.0
C      1  0.4998850000000  0.5591410000000  0.5188780000000 1.0
C      1  0.4998840000000  0.4541780000000  0.5420170000000 1.0
C      1  0.4998430000000  0.4865120000000  0.4395650000000 1.0
C      1  0.3848950000000  0.4999270000000  0.5001590000000 1.0
C      1  0.6148450000000  0.4999240000000  0.5001600000000 1.0
END
