TITL C-3623282-6910-1209 0.106199510720011 125000 -300.463190677091 0 0 51 (C1) n - 1
REM
REM in /home/nfs/bkarasulu/CARBON/AIRSS/Generating-Clusters/LCBOP/Higher-Symm/SD-CG/FIRE-CG
REM
REM
REM
REM
REM
REM ./C.cell (b20cbc046b6831c77cfcea5457e17084)
REM AIRSS Version 0.9.1 bugfix July 2018 build 013d7b7c2542+ Fri, 06 Jul 2018 19:26:36 +0100
REM compiler GCC version 9.2.1 20190827 (Red Hat 9.2.1-1)
REM options -cpp -mtune=generic -march=x86-64 -g -O0 -fpre-include=/usr/include/finclude/math-vector-fortran.h
REM seed 254766788 -1998585436 -155381299 95711761 1222595362 1697985422 -186602324 -1855153936 1387864925 -922796145 -1230833675 2124479177 -1739024655 1009837160 -723519727 535548675 1102536486 -235680557 -1791494087 -2125277844 1836802550 179942159 -1325250965 1869237206 -183870350 1990130172 -2016400358 -643077415 1625737343 -1575271934 -261814284 1945199767 -1942027947
REM
CELL 1.54180   50.00000   50.00000   50.00000   90.00000   90.00000   90.00000
LATT -1
SFAC C  
C      1  0.4799880000000  0.6225550000000  0.5030570000000 1.0
C      1  0.4728900000000  0.5272270000000  0.4653650000000 1.0
C      1  0.5426830000000  0.5355920000000  0.4520200000000 1.0
C      1  0.4677270000000  0.4403730000000  0.5502980000000 1.0
C      1  0.5064050000000  0.5709160000000  0.5124950000000 1.0
C      1  0.5410350000000  0.4412750000000  0.4702390000000 1.0
C      1  0.4595980000000  0.4757360000000  0.4870530000000 1.0
C      1  0.4998040000000  0.4584630000000  0.4437030000000 1.0
C      1  0.4525870000000  0.4604700000000  0.4422990000000 1.0
C      1  0.4975270000000  0.4160430000000  0.4898540000000 1.0
C      1  0.5423660000000  0.4042360000000  0.5588550000000 1.0
C      1  0.5251100000000  0.5101870000000  0.5645580000000 1.0
C      1  0.5194600000000  0.5000380000000  0.4289900000000 1.0
C      1  0.4845840000000  0.4649190000000  0.4961200000000 1.0
C      1  0.5082930000000  0.6414250000000  0.5380380000000 1.0
C      1  0.5262740000000  0.4982000000000  0.4991960000000 1.0
C      1  0.5276170000000  0.6400640000000  0.5571440000000 1.0
C      1  0.4405770000000  0.4950410000000  0.5262070000000 1.0
C      1  0.5201100000000  0.5651470000000  0.4884030000000 1.0
C      1  0.5400600000000  0.6162860000000  0.5617500000000 1.0
C      1  0.4607000000000  0.5081880000000  0.4481670000000 1.0
C      1  0.5111920000000  0.4997490000000  0.4753310000000 1.0
C      1  0.5207070000000  0.4250250000000  0.4784550000000 1.0
C      1  0.5599750000000  0.4873500000000  0.4502910000000 1.0
C      1  0.5555050000000  0.4624660000000  0.4609520000000 1.0
C      1  0.5548920000000  0.3867480000000  0.5735810000000 1.0
C      1  0.5295360000000  0.4219390000000  0.5438780000000 1.0
C      1  0.5159780000000  0.4390130000000  0.5287930000000 1.0
C      1  0.5089350000000  0.4965530000000  0.5474080000000 1.0
C      1  0.5449960000000  0.5096860000000  0.4392420000000 1.0
C      1  0.4364380000000  0.4464250000000  0.5154770000000 1.0
C      1  0.4714110000000  0.5094540000000  0.4215200000000 1.0
C      1  0.4811680000000  0.4911530000000  0.5528660000000 1.0
C      1  0.5175940000000  0.4859070000000  0.5226080000000 1.0
C      1  0.4995510000000  0.6196390000000  0.5218680000000 1.0
C      1  0.5328210000000  0.5945270000000  0.5471050000000 1.0
C      1  0.5211710000000  0.5453050000000  0.4686720000000 1.0
C      1  0.4705770000000  0.5341610000000  0.5319780000000 1.0
C      1  0.4758500000000  0.4169210000000  0.5065600000000 1.0
C      1  0.4622730000000  0.5081310000000  0.5391480000000 1.0
C      1  0.4760120000000  0.4483140000000  0.4361100000000 1.0
C      1  0.5002760000000  0.5260070000000  0.4712720000000 1.0
C      1  0.5103960000000  0.4833140000000  0.4514480000000 1.0
C      1  0.4737880000000  0.4647490000000  0.5604340000000 1.0
C      1  0.4398780000000  0.4736680000000  0.5075900000000 1.0
C      1  0.4975520000000  0.5088630000000  0.4134660000000 1.0
C      1  0.5128100000000  0.5944060000000  0.5268080000000 1.0
C      1  0.4865140000000  0.5535050000000  0.5225900000000 1.0
C      1  0.4532220000000  0.4828090000000  0.4599200000000 1.0
C      1  0.5051860000000  0.4612370000000  0.5156950000000 1.0
C      1  0.4584030000000  0.4305970000000  0.5251210000000 1.0
END
