TITL C-3623283-6828-1314 10.7834697692496 125000 -357.208050699938 0 0 59 (C1) n - 1
REM
REM in /home/nfs/bkarasulu/CARBON/AIRSS/Generating-Clusters/LCBOP/Higher-Symm/SD-CG/FIRE-CG
REM
REM
REM
REM
REM
REM ./C.cell (b20cbc046b6831c77cfcea5457e17084)
REM AIRSS Version 0.9.1 bugfix July 2018 build 013d7b7c2542+ Fri, 06 Jul 2018 19:26:36 +0100
REM compiler GCC version 9.2.1 20190827 (Red Hat 9.2.1-1)
REM options -cpp -mtune=generic -march=x86-64 -g -O0 -fpre-include=/usr/include/finclude/math-vector-fortran.h
REM seed -1363508091 1988259282 1796564365 559780714 1152509310 1042045963 2097836942 2002638661 1386773384 721158552 -372824531 -301437289 1318141425 -1298562664 -597378227 1425240095 -769615938 980543624 -1547216917 12378172 1887806 -1796512341 -1168514138 -1227320697 593039698 417525545 -294586756 642700670 -589622714 1733662863 56737329 -1178864119 -86999083
REM
CELL 1.54180   50.00000   50.00000   50.00000   90.00000   90.00000   90.00000
LATT -1
SFAC C  
C      1  0.5230010000000  0.4710750000000  0.4415620000000 1.0
C      1  0.4769860000000  0.4707760000000  0.5631000000000 1.0
C      1  0.5234320000000  0.5302300000000  0.4405380000000 1.0
C      1  0.4801410000000  0.5252880000000  0.5536570000000 1.0
C      1  0.4678950000000  0.5472570000000  0.5166950000000 1.0
C      1  0.5315660000000  0.5476590000000  0.4838530000000 1.0
C      1  0.4742120000000  0.4585490000000  0.5199520000000 1.0
C      1  0.5221200000000  0.4719070000000  0.4891310000000 1.0
C      1  0.5559530000000  0.4660620000000  0.5265380000000 1.0
C      1  0.4493980000000  0.4702900000000  0.4767260000000 1.0
C      1  0.5546320000000  0.5281400000000  0.5273950000000 1.0
C      1  0.4437260000000  0.5303510000000  0.4740490000000 1.0
C      1  0.4992270000000  0.5146820000000  0.5048350000000 1.0
C      1  0.4941620000000  0.5191460000000  0.4777780000000 1.0
C      1  0.5162620000000  0.4860460000000  0.5355600000000 1.0
C      1  0.4862050000000  0.4962030000000  0.4643030000000 1.0
C      1  0.4756180000000  0.5437900000000  0.4348860000000 1.0
C      1  0.5246230000000  0.5422290000000  0.5623490000000 1.0
C      1  0.4785740000000  0.4515030000000  0.4382950000000 1.0
C      1  0.5221960000000  0.4495820000000  0.5649020000000 1.0
C      1  0.4528290000000  0.5144330000000  0.5493740000000 1.0
C      1  0.5475760000000  0.5147900000000  0.4506480000000 1.0
C      1  0.4518960000000  0.4852110000000  0.5519780000000 1.0
C      1  0.5477940000000  0.4852090000000  0.4506800000000 1.0
C      1  0.5383160000000  0.4724110000000  0.5739890000000 1.0
C      1  0.4636840000000  0.4748500000000  0.4287440000000 1.0
C      1  0.5425180000000  0.5218800000000  0.5743810000000 1.0
C      1  0.4565180000000  0.5236550000000  0.4258670000000 1.0
C      1  0.4701660000000  0.4480340000000  0.4729910000000 1.0
C      1  0.5327270000000  0.4446070000000  0.5293230000000 1.0
C      1  0.4678300000000  0.5522810000000  0.4681620000000 1.0
C      1  0.5317950000000  0.5480380000000  0.5323180000000 1.0
C      1  0.5024800000000  0.5401790000000  0.4236630000000 1.0
C      1  0.4974690000000  0.5391500000000  0.5705510000000 1.0
C      1  0.5062680000000  0.4512560000000  0.4291940000000 1.0
C      1  0.4943750000000  0.4514260000000  0.5768590000000 1.0
C      1  0.5568360000000  0.5117100000000  0.5506260000000 1.0
C      1  0.4430760000000  0.5142740000000  0.4505330000000 1.0
C      1  0.5451810000000  0.4847950000000  0.5471010000000 1.0
C      1  0.4577030000000  0.4888230000000  0.4553710000000 1.0
C      1  0.4377280000000  0.5150740000000  0.4990290000000 1.0
C      1  0.5626150000000  0.5143690000000  0.5029070000000 1.0
C      1  0.4400360000000  0.4850830000000  0.5001910000000 1.0
C      1  0.5642540000000  0.4838450000000  0.5027900000000 1.0
C      1  0.4884720000000  0.5289840000000  0.5261900000000 1.0
C      1  0.5120430000000  0.5373250000000  0.4660830000000 1.0
C      1  0.4923200000000  0.4716800000000  0.5384390000000 1.0
C      1  0.5064690000000  0.4770420000000  0.4646170000000 1.0
C      1  0.4856730000000  0.4437860000000  0.4980440000000 1.0
C      1  0.5152340000000  0.4454640000000  0.5039920000000 1.0
C      1  0.4823310000000  0.5601770000000  0.4948710000000 1.0
C      1  0.5179040000000  0.5577800000000  0.5070000000000 1.0
C      1  0.4488920000000  0.4726780000000  0.5244740000000 1.0
C      1  0.5511190000000  0.4746750000000  0.4785410000000 1.0
C      1  0.4443570000000  0.5296370000000  0.5232970000000 1.0
C      1  0.5537840000000  0.5280650000000  0.4786040000000 1.0
C      1  0.5370420000000  0.4971160000000  0.5899530000000 1.0
C      1  0.4624980000000  0.4983640000000  0.4112540000000 1.0
C      1  0.5162300000000  0.4936800000000  0.5089000000000 1.0
END
