TITL C-3623287-7182-603 -1.60365785160349e-06 125000 -881.687268049052 0 0 140 (C1) n - 1
REM
REM in /home/nfs/bkarasulu/CARBON/AIRSS/Generating-Clusters/LCBOP/Higher-Symm/SD-CG/FIRE-CG
REM
REM
REM
REM
REM
REM ./C.cell (b20cbc046b6831c77cfcea5457e17084)
REM AIRSS Version 0.9.1 bugfix July 2018 build 013d7b7c2542+ Fri, 06 Jul 2018 19:26:36 +0100
REM compiler GCC version 9.2.1 20190827 (Red Hat 9.2.1-1)
REM options -cpp -mtune=generic -march=x86-64 -g -O0 -fpre-include=/usr/include/finclude/math-vector-fortran.h
REM seed -1491667828 -705342376 -462484767 1565910141 1979256420 1844129827 1491216683 -1981123853 -1387396539 680105857 -38253647 -1213274805 827647568 -2090100436 -2132559650 -1825063660 1259030531 1164075635 1341955245 -1029975186 -446702604 -657591651 2041971862 -2026126351 -1484279361 -92950044 769232358 -1471145489 -1658657130 440977932 -868833635 -392760823 -1825702719
REM
CELL 1.54180   50.00000   50.00000   50.00000   90.00000   90.00000   90.00000
LATT -1
SFAC C  
C      1  0.5397460000000  0.5982330000000  0.4740980000000 1.0
C      1  0.4756640000000  0.5379950000000  0.5961960000000 1.0
C      1  0.5966120000000  0.4745160000000  0.5384730000000 1.0
C      1  0.4630780000000  0.5944820000000  0.5244980000000 1.0
C      1  0.5368990000000  0.4055910000000  0.5260110000000 1.0
C      1  0.4608760000000  0.4030490000000  0.4758960000000 1.0
C      1  0.5252500000000  0.5401270000000  0.4014240000000 1.0
C      1  0.4742660000000  0.4647650000000  0.4067140000000 1.0
C      1  0.5264660000000  0.4624960000000  0.5990880000000 1.0
C      1  0.4024610000000  0.4752840000000  0.4617960000000 1.0
C      1  0.5979590000000  0.5254100000000  0.4621030000000 1.0
C      1  0.4029710000000  0.5226520000000  0.5391080000000 1.0
C      1  0.5385960000000  0.4058910000000  0.4769030000000 1.0
C      1  0.4738890000000  0.4615610000000  0.5999160000000 1.0
C      1  0.5963280000000  0.5235590000000  0.5380130000000 1.0
C      1  0.4605870000000  0.4020040000000  0.5253750000000 1.0
C      1  0.5394040000000  0.5965810000000  0.5231210000000 1.0
C      1  0.4639020000000  0.5943580000000  0.4752720000000 1.0
C      1  0.5231640000000  0.4637460000000  0.4053520000000 1.0
C      1  0.4752120000000  0.5400530000000  0.4032690000000 1.0
C      1  0.5246560000000  0.5376470000000  0.5941620000000 1.0
C      1  0.4032580000000  0.5244670000000  0.4628880000000 1.0
C      1  0.5966450000000  0.4760610000000  0.4618200000000 1.0
C      1  0.4043630000000  0.4735190000000  0.5373210000000 1.0
C      1  0.3905100000000  0.4788540000000  0.5131600000000 1.0
C      1  0.5132570000000  0.3933610000000  0.4858150000000 1.0
C      1  0.4798850000000  0.5151620000000  0.3904700000000 1.0
C      1  0.6097040000000  0.4802150000000  0.4867510000000 1.0
C      1  0.3901130000000  0.5191270000000  0.4875820000000 1.0
C      1  0.6099350000000  0.5186320000000  0.5137200000000 1.0
C      1  0.4856910000000  0.3894100000000  0.5208090000000 1.0
C      1  0.5143730000000  0.6092000000000  0.5187440000000 1.0
C      1  0.4878020000000  0.6084340000000  0.4798590000000 1.0
C      1  0.5151960000000  0.5128790000000  0.6082720000000 1.0
C      1  0.4733720000000  0.4875050000000  0.6130420000000 1.0
C      1  0.5183630000000  0.4881170000000  0.3916100000000 1.0
C      1  0.3901200000000  0.5181060000000  0.5141610000000 1.0
C      1  0.5142850000000  0.6099370000000  0.4795890000000 1.0
C      1  0.4790670000000  0.4886660000000  0.3923550000000 1.0
C      1  0.6101850000000  0.5194620000000  0.4871910000000 1.0
C      1  0.3896650000000  0.4799120000000  0.4866390000000 1.0
C      1  0.6095170000000  0.4794100000000  0.5134170000000 1.0
C      1  0.4878060000000  0.6078980000000  0.5192350000000 1.0
C      1  0.5127610000000  0.3927890000000  0.5157920000000 1.0
C      1  0.4861270000000  0.3903340000000  0.4799550000000 1.0
C      1  0.5272490000000  0.4878180000000  0.6130930000000 1.0
C      1  0.4857140000000  0.5127480000000  0.6088500000000 1.0
C      1  0.5190260000000  0.5146390000000  0.3898060000000 1.0
C      1  0.4622950000000  0.4883320000000  0.5446700000000 1.0
C      1  0.5364820000000  0.4787050000000  0.4855850000000 1.0
C      1  0.4911910000000  0.5334220000000  0.4578660000000 1.0
C      1  0.5496060000000  0.4996390000000  0.4737540000000 1.0
C      1  0.4707160000000  0.5207630000000  0.4722880000000 1.0
C      1  0.5261930000000  0.5037120000000  0.5406710000000 1.0
C      1  0.4623340000000  0.4622410000000  0.5059760000000 1.0
C      1  0.5262910000000  0.5331090000000  0.5031920000000 1.0
C      1  0.4590480000000  0.5356130000000  0.4929090000000 1.0
C      1  0.5142100000000  0.5245480000000  0.5262840000000 1.0
C      1  0.4765080000000  0.4691980000000  0.5296940000000 1.0
C      1  0.5166230000000  0.4667840000000  0.4712540000000 1.0
C      1  0.4537310000000  0.5098470000000  0.5302860000000 1.0
C      1  0.5437190000000  0.5484310000000  0.4913590000000 1.0
C      1  0.4913850000000  0.4572020000000  0.4681680000000 1.0
C      1  0.5393790000000  0.5109310000000  0.4508500000000 1.0
C      1  0.4621540000000  0.4945360000000  0.4658790000000 1.0
C      1  0.5239690000000  0.4774690000000  0.5308100000000 1.0
C      1  0.4678450000000  0.5298550000000  0.5183420000000 1.0
C      1  0.5417610000000  0.4693210000000  0.5107480000000 1.0
C      1  0.4707000000000  0.4716740000000  0.4806290000000 1.0
C      1  0.5022990000000  0.4607260000000  0.5371900000000 1.0
C      1  0.4907260000000  0.5381270000000  0.5319830000000 1.0
C      1  0.5128470000000  0.5184080000000  0.4501360000000 1.0
C      1  0.5565930000000  0.4877330000000  0.5744580000000 1.0
C      1  0.5705830000000  0.5548670000000  0.4878910000000 1.0
C      1  0.4891000000000  0.5619970000000  0.5466530000000 1.0
C      1  0.4513360000000  0.4906110000000  0.4396400000000 1.0
C      1  0.5545020000000  0.5128260000000  0.4269190000000 1.0
C      1  0.4408430000000  0.5102810000000  0.5807280000000 1.0
C      1  0.4214350000000  0.5575770000000  0.5132830000000 1.0
C      1  0.5644760000000  0.4529310000000  0.5127310000000 1.0
C      1  0.4221920000000  0.4415280000000  0.4879900000000 1.0
C      1  0.5132090000000  0.5742150000000  0.4438800000000 1.0
C      1  0.4877880000000  0.4338310000000  0.4529540000000 1.0
C      1  0.5081750000000  0.4358050000000  0.5497690000000 1.0
C      1  0.5440860000000  0.5092550000000  0.5617830000000 1.0
C      1  0.5755010000000  0.4436260000000  0.4885570000000 1.0
C      1  0.4864400000000  0.4212280000000  0.5599860000000 1.0
C      1  0.4429400000000  0.5128170000000  0.4247060000000 1.0
C      1  0.5623130000000  0.4874540000000  0.4171790000000 1.0
C      1  0.4502640000000  0.4859530000000  0.5697610000000 1.0
C      1  0.4366410000000  0.4504370000000  0.5103030000000 1.0
C      1  0.5833900000000  0.5609510000000  0.5123590000000 1.0
C      1  0.4340970000000  0.5486310000000  0.4896960000000 1.0
C      1  0.5113780000000  0.4225590000000  0.4423670000000 1.0
C      1  0.4898870000000  0.5611760000000  0.4520030000000 1.0
C      1  0.5126030000000  0.5746040000000  0.5548350000000 1.0
C      1  0.5439290000000  0.5358110000000  0.5723460000000 1.0
C      1  0.5801960000000  0.5476230000000  0.5377640000000 1.0
C      1  0.5391740000000  0.5772560000000  0.5448340000000 1.0
C      1  0.4519660000000  0.5396070000000  0.4212230000000 1.0
C      1  0.5479200000000  0.4625340000000  0.4207090000000 1.0
C      1  0.4526790000000  0.4588950000000  0.5794360000000 1.0
C      1  0.4234500000000  0.5456690000000  0.4630540000000 1.0
C      1  0.5776940000000  0.4537820000000  0.4618080000000 1.0
C      1  0.4251600000000  0.4529560000000  0.5368820000000 1.0
C      1  0.4640930000000  0.5737140000000  0.4550190000000 1.0
C      1  0.5379880000000  0.4226430000000  0.4531050000000 1.0
C      1  0.4600410000000  0.4187790000000  0.5492450000000 1.0
C      1  0.5477760000000  0.4610380000000  0.5793960000000 1.0
C      1  0.5759440000000  0.4536580000000  0.5389280000000 1.0
C      1  0.5350140000000  0.4254000000000  0.5468050000000 1.0
C      1  0.4540680000000  0.4646630000000  0.4275890000000 1.0
C      1  0.5495820000000  0.5405860000000  0.4187820000000 1.0
C      1  0.4516900000000  0.5368990000000  0.5799850000000 1.0
C      1  0.4197960000000  0.4519240000000  0.4615860000000 1.0
C      1  0.5795300000000  0.5483150000000  0.4611410000000 1.0
C      1  0.4201440000000  0.5463330000000  0.5397620000000 1.0
C      1  0.4610470000000  0.4235410000000  0.4550580000000 1.0
C      1  0.5401760000000  0.5794240000000  0.4514760000000 1.0
C      1  0.4627520000000  0.5737030000000  0.5454530000000 1.0
C      1  0.5950260000000  0.4993340000000  0.5531350000000 1.0
C      1  0.5001660000000  0.5548760000000  0.4034090000000 1.0
C      1  0.5004210000000  0.4506520000000  0.5990450000000 1.0
C      1  0.4039040000000  0.5000930000000  0.4473680000000 1.0
C      1  0.5966690000000  0.5007960000000  0.4470680000000 1.0
C      1  0.4047760000000  0.4976260000000  0.5531730000000 1.0
C      1  0.4484950000000  0.5936150000000  0.4995980000000 1.0
C      1  0.5535710000000  0.4065940000000  0.5019570000000 1.0
C      1  0.5000910000000  0.5536170000000  0.5941280000000 1.0
C      1  0.4985310000000  0.4494380000000  0.4076880000000 1.0
C      1  0.5546780000000  0.5976140000000  0.4987590000000 1.0
C      1  0.4461130000000  0.4032390000000  0.5006460000000 1.0
C      1  0.5559430000000  0.4449210000000  0.4435370000000 1.0
C      1  0.4424770000000  0.5548530000000  0.5575930000000 1.0
C      1  0.4422650000000  0.4404490000000  0.5581230000000 1.0
C      1  0.4428830000000  0.5569280000000  0.4432550000000 1.0
C      1  0.5595320000000  0.5591380000000  0.4407960000000 1.0
C      1  0.5560150000000  0.4428440000000  0.5582940000000 1.0
C      1  0.5567060000000  0.5554130000000  0.5538400000000 1.0
C      1  0.4419010000000  0.4435040000000  0.4442270000000 1.0
END
