TITL C-3623285-6872-627 -396686.252642785 125000 -1138.58911458422 0 0 186 (C1) n - 1
REM
REM in /home/nfs/bkarasulu/CARBON/AIRSS/Generating-Clusters/LCBOP/Higher-Symm/SD-CG/FIRE-CG
REM
REM
REM
REM
REM
REM ./C.cell (b20cbc046b6831c77cfcea5457e17084)
REM AIRSS Version 0.9.1 bugfix July 2018 build 013d7b7c2542+ Fri, 06 Jul 2018 19:26:36 +0100
REM compiler GCC version 9.2.1 20190827 (Red Hat 9.2.1-1)
REM options -cpp -mtune=generic -march=x86-64 -g -O0 -fpre-include=/usr/include/finclude/math-vector-fortran.h
REM seed 64615336 -537762237 1700437496 496718420 -1891525272 993932082 -1385819841 68020614 1421247953 -132515027 -1232841260 318561182 1309982213 1591608977 -176287551 120929873 -1236111479 -1502689540 878111361 -1270791066 -1826187236 1757170086 261442997 -1542210486 1392315610 -119437228 274302410 668827179 -2071780943 -3246882 -1568196393 731937660 -570758597
REM
CELL 1.54180   50.00000   50.00000   50.00000   90.00000   90.00000   90.00000
LATT -1
SFAC C  
C      1  0.4655950000000  0.5450520000000  0.3931850000000 1.0
C      1  0.5672840000000  0.4173930000000  0.4710340000000 1.0
C      1  0.4170700000000  0.4743850000000  0.5451480000000 1.0
C      1  0.5271490000000  0.4500810000000  0.4133230000000 1.0
C      1  0.4711360000000  0.4510790000000  0.5835310000000 1.0
C      1  0.5227370000000  0.5451690000000  0.6085150000000 1.0
C      1  0.4511960000000  0.5836630000000  0.4768120000000 1.0
C      1  0.5447450000000  0.5880520000000  0.5223390000000 1.0
C      1  0.4513440000000  0.4069160000000  0.5256470000000 1.0
C      1  0.5768160000000  0.5338680000000  0.5591510000000 1.0
C      1  0.3991910000000  0.5405520000000  0.4434270000000 1.0
C      1  0.5931290000000  0.4714950000000  0.4524940000000 1.0
C      1  0.5530950000000  0.4675600000000  0.4140030000000 1.0
C      1  0.4084030000000  0.5643590000000  0.4515950000000 1.0
C      1  0.4748550000000  0.3950910000000  0.5369790000000 1.0
C      1  0.4519260000000  0.5258640000000  0.4095820000000 1.0
C      1  0.4576640000000  0.4736360000000  0.5883160000000 1.0
C      1  0.5449770000000  0.5295850000000  0.5997720000000 1.0
C      1  0.6019790000000  0.4603900000000  0.4775100000000 1.0
C      1  0.5770740000000  0.5530020000000  0.5378340000000 1.0
C      1  0.4159090000000  0.4494230000000  0.5281940000000 1.0
C      1  0.5287620000000  0.5873500000000  0.5476440000000 1.0
C      1  0.5155720000000  0.4144400000000  0.4558780000000 1.0
C      1  0.4729010000000  0.5778270000000  0.4574980000000 1.0
C      1  0.4050410000000  0.4292790000000  0.4524120000000 1.0
C      1  0.4294180000000  0.4547180000000  0.4124700000000 1.0
C      1  0.4458750000000  0.4161740000000  0.4324120000000 1.0
C      1  0.5825970000000  0.5680090000000  0.4432350000000 1.0
C      1  0.4203250000000  0.5597970000000  0.5536290000000 1.0
C      1  0.5930950000000  0.4309030000000  0.5555290000000 1.0
C      1  0.5746270000000  0.5453570000000  0.4033880000000 1.0
C      1  0.4252850000000  0.5575740000000  0.5978430000000 1.0
C      1  0.5639470000000  0.4527610000000  0.5900010000000 1.0
C      1  0.5421160000000  0.5830470000000  0.4275110000000 1.0
C      1  0.4543880000000  0.5915200000000  0.5716840000000 1.0
C      1  0.5522020000000  0.4101330000000  0.5656880000000 1.0
C      1  0.4198930000000  0.4080230000000  0.4399240000000 1.0
C      1  0.4508040000000  0.4333640000000  0.4086070000000 1.0
C      1  0.4171660000000  0.4527080000000  0.4401920000000 1.0
C      1  0.5627120000000  0.5895510000000  0.4483880000000 1.0
C      1  0.5736940000000  0.4111620000000  0.5480790000000 1.0
C      1  0.4313650000000  0.5881580000000  0.5526410000000 1.0
C      1  0.5488410000000  0.5561600000000  0.4137110000000 1.0
C      1  0.5449900000000  0.4311820000000  0.5853980000000 1.0
C      1  0.4505800000000  0.5677890000000  0.5892820000000 1.0
C      1  0.5933670000000  0.5611710000000  0.4181590000000 1.0
C      1  0.5881010000000  0.4507490000000  0.5739380000000 1.0
C      1  0.4099560000000  0.5453250000000  0.5764970000000 1.0
C      1  0.5449620000000  0.5087950000000  0.4364320000000 1.0
C      1  0.5122210000000  0.4456850000000  0.5394450000000 1.0
C      1  0.4384280000000  0.5443030000000  0.5378710000000 1.0
C      1  0.4599060000000  0.4754720000000  0.4456060000000 1.0
C      1  0.5431980000000  0.4821700000000  0.5509640000000 1.0
C      1  0.4592630000000  0.5214830000000  0.5747860000000 1.0
C      1  0.4827110000000  0.5554600000000  0.5467130000000 1.0
C      1  0.5247510000000  0.5468420000000  0.4545360000000 1.0
C      1  0.4675070000000  0.4258270000000  0.4528650000000 1.0
C      1  0.5652090000000  0.4595590000000  0.5105060000000 1.0
C      1  0.4401770000000  0.4571270000000  0.4861410000000 1.0
C      1  0.5736780000000  0.5456690000000  0.4625920000000 1.0
C      1  0.5354630000000  0.5368460000000  0.4301740000000 1.0
C      1  0.4493180000000  0.5199550000000  0.5475840000000 1.0
C      1  0.5320840000000  0.4387110000000  0.5222830000000 1.0
C      1  0.4791110000000  0.4548860000000  0.4454520000000 1.0
C      1  0.4724040000000  0.5477920000000  0.5799320000000 1.0
C      1  0.5194840000000  0.4664240000000  0.5555630000000 1.0
C      1  0.5599090000000  0.4807630000000  0.5288540000000 1.0
C      1  0.5713470000000  0.5162350000000  0.4525370000000 1.0
C      1  0.4355960000000  0.4663680000000  0.4573450000000 1.0
C      1  0.4604110000000  0.5600370000000  0.5240930000000 1.0
C      1  0.4543280000000  0.4289500000000  0.4807940000000 1.0
C      1  0.5452800000000  0.5498280000000  0.4734440000000 1.0
C      1  0.5098420000000  0.5262120000000  0.3905970000000 1.0
C      1  0.5355220000000  0.3940930000000  0.4998340000000 1.0
C      1  0.3904400000000  0.5149430000000  0.5306010000000 1.0
C      1  0.4872510000000  0.4652940000000  0.3815410000000 1.0
C      1  0.5074690000000  0.4660120000000  0.6117670000000 1.0
C      1  0.4794360000000  0.5356060000000  0.6248210000000 1.0
C      1  0.4740950000000  0.6086060000000  0.5141340000000 1.0
C      1  0.5243230000000  0.6163220000000  0.4863970000000 1.0
C      1  0.4602050000000  0.3809710000000  0.4831570000000 1.0
C      1  0.6053250000000  0.5002720000000  0.5357650000000 1.0
C      1  0.4034910000000  0.5032660000000  0.4735280000000 1.0
C      1  0.6151500000000  0.5121270000000  0.4703990000000 1.0
C      1  0.5352490000000  0.5129620000000  0.3871700000000 1.0
C      1  0.3977250000000  0.5335590000000  0.5105160000000 1.0
C      1  0.5210540000000  0.3851530000000  0.5224840000000 1.0
C      1  0.4745270000000  0.4882420000000  0.3912560000000 1.0
C      1  0.4644060000000  0.5130860000000  0.6212050000000 1.0
C      1  0.5194280000000  0.4905340000000  0.6046670000000 1.0
C      1  0.6111770000000  0.4738160000000  0.5260530000000 1.0
C      1  0.6049660000000  0.5271920000000  0.4927050000000 1.0
C      1  0.3972860000000  0.4782610000000  0.4864010000000 1.0
C      1  0.4926930000000  0.6161390000000  0.5317130000000 1.0
C      1  0.4789210000000  0.3808040000000  0.4634190000000 1.0
C      1  0.5058680000000  0.6130690000000  0.4673500000000 1.0
C      1  0.4597870000000  0.4956650000000  0.5332460000000 1.0
C      1  0.4963360000000  0.5092290000000  0.4549690000000 1.0
C      1  0.5249690000000  0.4406350000000  0.4947710000000 1.0
C      1  0.5647610000000  0.5061990000000  0.5167360000000 1.0
C      1  0.4572180000000  0.5016410000000  0.4825780000000 1.0
C      1  0.5348380000000  0.4902110000000  0.4827960000000 1.0
C      1  0.5064960000000  0.4622430000000  0.4557220000000 1.0
C      1  0.4978360000000  0.4843320000000  0.5616030000000 1.0
C      1  0.5150770000000  0.5179690000000  0.5331900000000 1.0
C      1  0.4652150000000  0.5421120000000  0.5012950000000 1.0
C      1  0.5434540000000  0.5439320000000  0.5007590000000 1.0
C      1  0.4823360000000  0.4610590000000  0.5053250000000 1.0
C      1  0.4851500000000  0.4480340000000  0.5308750000000 1.0
C      1  0.5203490000000  0.4916670000000  0.4553440000000 1.0
C      1  0.4444630000000  0.5249970000000  0.4918670000000 1.0
C      1  0.5075310000000  0.5462980000000  0.5424390000000 1.0
C      1  0.5018710000000  0.4567230000000  0.4860090000000 1.0
C      1  0.4988550000000  0.5375050000000  0.4552080000000 1.0
C      1  0.4670460000000  0.5026300000000  0.4540200000000 1.0
C      1  0.4898060000000  0.4988710000000  0.5375830000000 1.0
C      1  0.5335950000000  0.5102920000000  0.5593930000000 1.0
C      1  0.5478720000000  0.4600280000000  0.4852740000000 1.0
C      1  0.5377060000000  0.5149450000000  0.5069850000000 1.0
C      1  0.4585230000000  0.4780620000000  0.5007970000000 1.0
C      1  0.4960310000000  0.4448590000000  0.5957350000000 1.0
C      1  0.4536370000000  0.5875060000000  0.5087770000000 1.0
C      1  0.5979050000000  0.5006520000000  0.4483260000000 1.0
C      1  0.4936170000000  0.5528810000000  0.6033790000000 1.0
C      1  0.4939760000000  0.5506580000000  0.3915640000000 1.0
C      1  0.5011530000000  0.4459250000000  0.3974420000000 1.0
C      1  0.5634890000000  0.4016810000000  0.4962080000000 1.0
C      1  0.4452620000000  0.4032630000000  0.4964860000000 1.0
C      1  0.5464400000000  0.6029200000000  0.4972940000000 1.0
C      1  0.4008880000000  0.5122570000000  0.4460310000000 1.0
C      1  0.5936500000000  0.5092150000000  0.5611210000000 1.0
C      1  0.4022150000000  0.4996910000000  0.5516520000000 1.0
C      1  0.4510930000000  0.5012010000000  0.5968870000000 1.0
C      1  0.5957560000000  0.4549850000000  0.5068970000000 1.0
C      1  0.4957010000000  0.5943370000000  0.4489230000000 1.0
C      1  0.5464390000000  0.5006730000000  0.6074990000000 1.0
C      1  0.5532320000000  0.4985910000000  0.4077500000000 1.0
C      1  0.4489360000000  0.4986970000000  0.3984590000000 1.0
C      1  0.3920400000000  0.5612170000000  0.5102080000000 1.0
C      1  0.4109740000000  0.4530980000000  0.4973540000000 1.0
C      1  0.5933570000000  0.5518360000000  0.4849580000000 1.0
C      1  0.4894650000000  0.4038040000000  0.4473860000000 1.0
C      1  0.5040890000000  0.6026070000000  0.5536910000000 1.0
C      1  0.5027920000000  0.3930500000000  0.5432430000000 1.0
C      1  0.4279190000000  0.5947330000000  0.5242040000000 1.0
C      1  0.6022670000000  0.5066500000000  0.4190510000000 1.0
C      1  0.5148520000000  0.4256740000000  0.5863370000000 1.0
C      1  0.5794610000000  0.4078720000000  0.5190600000000 1.0
C      1  0.4151930000000  0.4038880000000  0.4923490000000 1.0
C      1  0.5671410000000  0.5955190000000  0.4779230000000 1.0
C      1  0.4069330000000  0.4971350000000  0.4226150000000 1.0
C      1  0.5883450000000  0.4902340000000  0.5814580000000 1.0
C      1  0.4066660000000  0.5159800000000  0.5760830000000 1.0
C      1  0.4952940000000  0.5837480000000  0.5993050000000 1.0
C      1  0.5017200000000  0.5753940000000  0.4028760000000 1.0
C      1  0.4799810000000  0.4261650000000  0.4030000000000 1.0
C      1  0.5998100000000  0.4270250000000  0.5157450000000 1.0
C      1  0.5130660000000  0.5877760000000  0.4260150000000 1.0
C      1  0.4209810000000  0.5032800000000  0.5972230000000 1.0
C      1  0.4032090000000  0.5856890000000  0.5131040000000 1.0
C      1  0.4030540000000  0.4276920000000  0.4814900000000 1.0
C      1  0.5900510000000  0.5803570000000  0.4889800000000 1.0
C      1  0.4885890000000  0.4025400000000  0.4171630000000 1.0
C      1  0.4846030000000  0.5970520000000  0.5752400000000 1.0
C      1  0.5133470000000  0.4041250000000  0.5669010000000 1.0
C      1  0.5661770000000  0.4821800000000  0.5979190000000 1.0
C      1  0.5795930000000  0.5160250000000  0.4038450000000 1.0
C      1  0.4265410000000  0.4832090000000  0.4064400000000 1.0
C      1  0.5706060000000  0.4600370000000  0.4382460000000 1.0
C      1  0.4613540000000  0.4480850000000  0.5494030000000 1.0
C      1  0.4741060000000  0.5505540000000  0.4485470000000 1.0
C      1  0.5548170000000  0.4438580000000  0.4585060000000 1.0
C      1  0.4466400000000  0.4752470000000  0.5497480000000 1.0
C      1  0.4254230000000  0.5797720000000  0.4653980000000 1.0
C      1  0.5565930000000  0.5613740000000  0.5196750000000 1.0
C      1  0.4393880000000  0.4308270000000  0.5369320000000 1.0
C      1  0.5490170000000  0.5335390000000  0.5700830000000 1.0
C      1  0.4572550000000  0.5281020000000  0.4380410000000 1.0
C      1  0.5261450000000  0.4405810000000  0.4438060000000 1.0
C      1  0.5285300000000  0.5595070000000  0.5563550000000 1.0
C      1  0.4158010000000  0.5230210000000  0.4912050000000 1.0
C      1  0.4942270000000  0.5052860000000  0.4008650000000 1.0
C      1  0.5219810000000  0.4131950000000  0.4833940000000 1.0
C      1  0.5921790000000  0.5138560000000  0.5139270000000 1.0
C      1  0.5110140000000  0.5017690000000  0.5795150000000 1.0
C      1  0.4916530000000  0.5385270000000  0.4966550000000 1.0
END
