TITL C-3623286-7563-1103 301.255613301217 125000 -667.721481746191 0 0 118 (C3) n - 1
REM
REM in /home/nfs/bkarasulu/CARBON/AIRSS/Generating-Clusters/LCBOP/Higher-Symm/SD-CG/FIRE-CG
REM
REM
REM
REM
REM
REM ./C.cell (b20cbc046b6831c77cfcea5457e17084)
REM AIRSS Version 0.9.1 bugfix July 2018 build 013d7b7c2542+ Fri, 06 Jul 2018 19:26:36 +0100
REM compiler GCC version 9.2.1 20190827 (Red Hat 9.2.1-1)
REM options -cpp -mtune=generic -march=x86-64 -g -O0 -fpre-include=/usr/include/finclude/math-vector-fortran.h
REM seed -1149525983 233979957 -703836660 -842701444 132876081 -250322203 2130556123 875773481 -346773462 243739306 1087142778 532847458 -1973051130 -1079186326 -1877459167 2048585811 -848600296 201098663 -1036768112 -1300558290 1637739334 -264879455 -1075171337 457554362 -1269950352 94635199 719757984 2138258906 -1202759811 -1268542965 2071767032 1982735068 -6354951
REM
CELL 1.54180   50.00000   50.00000   50.00000   90.00000   90.00000   90.00000
LATT -1
SFAC C  
C      1  0.5601360000000  0.4107970000000  0.4828950000000 1.0
C      1  0.5601390000000  0.5293740000000  0.5860240000000 1.0
C      1  0.5601390000000  0.5593980000000  0.4317690000000 1.0
C      1  0.4353820000000  0.4128330000000  0.5203860000000 1.0
C      1  0.4353840000000  0.5259150000000  0.4147850000000 1.0
C      1  0.4353840000000  0.5608270000000  0.5655170000000 1.0
C      1  0.4369390000000  0.5384800000000  0.5809680000000 1.0
C      1  0.4369390000000  0.5504690000000  0.4264140000000 1.0
C      1  0.4369370000000  0.4106260000000  0.4933080000000 1.0
C      1  0.5590160000000  0.5365120000000  0.4166250000000 1.0
C      1  0.5590170000000  0.5539320000000  0.5737770000000 1.0
C      1  0.5590140000000  0.4091240000000  0.5102870000000 1.0
C      1  0.4743250000000  0.5264610000000  0.5013430000000 1.0
C      1  0.4743240000000  0.4875200000000  0.4766340000000 1.0
C      1  0.4743240000000  0.4855920000000  0.5227120000000 1.0
C      1  0.5234340000000  0.5268640000000  0.5009230000000 1.0
C      1  0.5234330000000  0.4857530000000  0.5232710000000 1.0
C      1  0.5234330000000  0.4869540000000  0.4764940000000 1.0
C      1  0.4968250000000  0.5680070000000  0.4266370000000 1.0
C      1  0.4968230000000  0.4020490000000  0.4780060000000 1.0
C      1  0.4968250000000  0.5295150000000  0.5960460000000 1.0
C      1  0.4908570000000  0.5556860000000  0.5847720000000 1.0
C      1  0.4908550000000  0.3987280000000  0.5063080000000 1.0
C      1  0.4908570000000  0.5451590000000  0.4096100000000 1.0
C      1  0.5306640000000  0.6025320000000  0.4899010000000 1.0
C      1  0.5306610000000  0.4395740000000  0.4164750000000 1.0
C      1  0.5306620000000  0.4574640000000  0.5943130000000 1.0
C      1  0.4838410000000  0.6015560000000  0.5082510000000 1.0
C      1  0.4838380000000  0.4420620000000  0.5842920000000 1.0
C      1  0.4838380000000  0.4559550000000  0.4081460000000 1.0
C      1  0.5206610000000  0.4366430000000  0.5004130000000 1.0
C      1  0.5206620000000  0.5316230000000  0.5548830000000 1.0
C      1  0.5206610000000  0.5313050000000  0.4453920000000 1.0
C      1  0.4950930000000  0.4409440000000  0.4975870000000 1.0
C      1  0.4950930000000  0.5316020000000  0.4505300000000 1.0
C      1  0.4950940000000  0.5270260000000  0.5525710000000 1.0
C      1  0.5880240000000  0.5335640000000  0.5244110000000 1.0
C      1  0.5880230000000  0.5039430000000  0.4589470000000 1.0
C      1  0.5880230000000  0.4620590000000  0.5173310000000 1.0
C      1  0.4104350000000  0.5317630000000  0.4759010000000 1.0
C      1  0.4104340000000  0.5049750000000  0.5400240000000 1.0
C      1  0.4104330000000  0.4628380000000  0.4847640000000 1.0
C      1  0.5570670000000  0.5005360000000  0.5808950000000 1.0
C      1  0.5570690000000  0.5693750000000  0.4593090000000 1.0
C      1  0.5570660000000  0.4296580000000  0.4604850000000 1.0
C      1  0.4408840000000  0.4977400000000  0.4212540000000 1.0
C      1  0.4408860000000  0.5693130000000  0.5378830000000 1.0
C      1  0.4408830000000  0.4325220000000  0.5415520000000 1.0
C      1  0.4690540000000  0.5832710000000  0.5352160000000 1.0
C      1  0.4690530000000  0.4884500000000  0.4104990000000 1.0
C      1  0.4690520000000  0.4278520000000  0.5549740000000 1.0
C      1  0.5322160000000  0.5857790000000  0.4655910000000 1.0
C      1  0.5322150000000  0.4868930000000  0.5919600000000 1.0
C      1  0.5322140000000  0.4268970000000  0.4431380000000 1.0
C      1  0.4748150000000  0.4642070000000  0.4606420000000 1.0
C      1  0.4748160000000  0.4833990000000  0.5508980000000 1.0
C      1  0.4748170000000  0.5519670000000  0.4891500000000 1.0
C      1  0.5227240000000  0.4641110000000  0.5417000000000 1.0
C      1  0.5227250000000  0.4818150000000  0.4485380000000 1.0
C      1  0.5227260000000  0.5536440000000  0.5104510000000 1.0
C      1  0.5891220000000  0.5301020000000  0.4675060000000 1.0
C      1  0.5891220000000  0.4563930000000  0.4903970000000 1.0
C      1  0.5891220000000  0.5130720000000  0.5427850000000 1.0
C      1  0.4099700000000  0.5306350000000  0.5312670000000 1.0
C      1  0.4099690000000  0.4575920000000  0.5113640000000 1.0
C      1  0.4099700000000  0.5113500000000  0.4580580000000 1.0
C      1  0.4258390000000  0.4824990000000  0.5493740000000 1.0
C      1  0.4258400000000  0.5510980000000  0.4906920000000 1.0
C      1  0.4258390000000  0.4659780000000  0.4606240000000 1.0
C      1  0.5727340000000  0.4803920000000  0.4501460000000 1.0
C      1  0.5727350000000  0.5529610000000  0.5084160000000 1.0
C      1  0.5727340000000  0.4662140000000  0.5421270000000 1.0
C      1  0.4236960000000  0.4566660000000  0.5370820000000 1.0
C      1  0.4236970000000  0.5533700000000  0.5192090000000 1.0
C      1  0.4236960000000  0.4895390000000  0.4443980000000 1.0
C      1  0.5754130000000  0.4543070000000  0.4639180000000 1.0
C      1  0.5754150000000  0.5540770000000  0.4789390000000 1.0
C      1  0.5754140000000  0.4911830000000  0.5578320000000 1.0
C      1  0.4494800000000  0.4901540000000  0.5641090000000 1.0
C      1  0.4494810000000  0.5600310000000  0.4766940000000 1.0
C      1  0.4494790000000  0.4493890000000  0.4598860000000 1.0
C      1  0.5483800000000  0.4875200000000  0.4347710000000 1.0
C      1  0.5483820000000  0.5627140000000  0.5222750000000 1.0
C      1  0.5483800000000  0.4493360000000  0.5436430000000 1.0
C      1  0.4582460000000  0.4670630000000  0.5106820000000 1.0
C      1  0.4582470000000  0.5253070000000  0.5234050000000 1.0
C      1  0.4582460000000  0.5072030000000  0.4666030000000 1.0
C      1  0.5453690000000  0.4750570000000  0.4880090000000 1.0
C      1  0.5453690000000  0.5228400000000  0.4848620000000 1.0
C      1  0.5453690000000  0.5016730000000  0.5278170000000 1.0
C      1  0.5427490000000  0.4507570000000  0.4980190000000 1.0
C      1  0.5427500000000  0.5224920000000  0.5438570000000 1.0
C      1  0.5427490000000  0.5263210000000  0.4588120000000 1.0
C      1  0.4696300000000  0.4446620000000  0.5025490000000 1.0
C      1  0.4696300000000  0.5254470000000  0.4512700000000 1.0
C      1  0.4696310000000  0.5294640000000  0.5468710000000 1.0
C      1  0.4825480000000  0.5958770000000  0.4736060000000 1.0
C      1  0.4825450000000  0.4287920000000  0.4303860000000 1.0
C      1  0.4825460000000  0.4749040000000  0.5966960000000 1.0
C      1  0.5118190000000  0.6090520000000  0.5093280000000 1.0
C      1  0.5118170000000  0.4373800000000  0.5902460000000 1.0
C      1  0.5118170000000  0.4531390000000  0.4011150000000 1.0
C      1  0.5527150000000  0.4224620000000  0.5334690000000 1.0
C      1  0.5527180000000  0.5673400000000  0.5506350000000 1.0
C      1  0.5527170000000  0.5097670000000  0.4165850000000 1.0
C      1  0.4445760000000  0.4230940000000  0.4703830000000 1.0
C      1  0.4445790000000  0.5640880000000  0.4486730000000 1.0
C      1  0.4445780000000  0.5123920000000  0.5816330000000 1.0
C      1  0.5039370000000  0.5836840000000  0.4527030000000 1.0
C      1  0.5039340000000  0.4167840000000  0.4513970000000 1.0
C      1  0.5039360000000  0.4991030000000  0.5965900000000 1.0
C      1  0.4847240000000  0.5735980000000  0.5629230000000 1.0
C      1  0.4847210000000  0.4086940000000  0.5327440000000 1.0
C      1  0.4847220000000  0.5172810000000  0.4050220000000 1.0
C      1  0.4994920000000  0.5629840000000  0.4977170000000 1.0
C      1  0.4994900000000  0.4661170000000  0.4468160000000 1.0
C      1  0.4994900000000  0.4704700000000  0.5561560000000 1.0
C      1  0.4992100000000  0.4998570000000  0.5002300000000 1.0
END
