TITL C-3623283-6828-2025 -2.73964088220433e-07 125000 -521.472120714318 0 0 85 (C1) n - 1
REM
REM in /home/nfs/bkarasulu/CARBON/AIRSS/Generating-Clusters/LCBOP/Higher-Symm/SD-CG/FIRE-CG
REM
REM
REM
REM
REM
REM ./C.cell (b20cbc046b6831c77cfcea5457e17084)
REM AIRSS Version 0.9.1 bugfix July 2018 build 013d7b7c2542+ Fri, 06 Jul 2018 19:26:36 +0100
REM compiler GCC version 9.2.1 20190827 (Red Hat 9.2.1-1)
REM options -cpp -mtune=generic -march=x86-64 -g -O0 -fpre-include=/usr/include/finclude/math-vector-fortran.h
REM seed 1180374046 814343109 -1333350862 1041403802 1872320985 566971084 -758938100 -236440457 -756562910 -690638930 390073322 -328433214 1699953030 -1747084794 -189110269 1370411956 1970037096 -1350018090 -441094726 -1107292324 -820943284 -1686981197 1617384114 2003335097 -1529688614 361771534 -402533133 -28737886 988459811 656065355 183973751 -1084599862 -920280357
REM
CELL 1.54180   50.00000   50.00000   50.00000   90.00000   90.00000   90.00000
LATT -1
SFAC C  
C      1  0.5166020000000  0.5340060000000  0.5575470000000 1.0
C      1  0.4819610000000  0.5356370000000  0.5574860000000 1.0
C      1  0.5144840000000  0.4158170000000  0.4918030000000 1.0
C      1  0.4889310000000  0.4206440000000  0.5042150000000 1.0
C      1  0.4695940000000  0.5169040000000  0.4946140000000 1.0
C      1  0.5376690000000  0.5110950000000  0.4928030000000 1.0
C      1  0.4724740000000  0.4400510000000  0.4584530000000 1.0
C      1  0.5305220000000  0.4412310000000  0.4532510000000 1.0
C      1  0.4760640000000  0.4912580000000  0.5024060000000 1.0
C      1  0.5281580000000  0.4871200000000  0.5042000000000 1.0
C      1  0.5730780000000  0.5970510000000  0.4802750000000 1.0
C      1  0.4232380000000  0.5996270000000  0.4785330000000 1.0
C      1  0.4751270000000  0.4875960000000  0.5525090000000 1.0
C      1  0.5234290000000  0.4854920000000  0.5553230000000 1.0
C      1  0.5142620000000  0.5677980000000  0.4678230000000 1.0
C      1  0.4822760000000  0.5676850000000  0.4685400000000 1.0
C      1  0.4271190000000  0.4900780000000  0.4446740000000 1.0
C      1  0.5721810000000  0.4926320000000  0.4424200000000 1.0
C      1  0.4348320000000  0.5092850000000  0.5561660000000 1.0
C      1  0.5637540000000  0.5062350000000  0.5580040000000 1.0
C      1  0.5219170000000  0.4745230000000  0.4178020000000 1.0
C      1  0.4760270000000  0.4725100000000  0.4203330000000 1.0
C      1  0.4193750000000  0.5603250000000  0.5076490000000 1.0
C      1  0.5764670000000  0.5598270000000  0.5119570000000 1.0
C      1  0.5352120000000  0.4679840000000  0.4626690000000 1.0
C      1  0.4660820000000  0.4674810000000  0.4650350000000 1.0
C      1  0.5952740000000  0.4754280000000  0.4971840000000 1.0
C      1  0.4047130000000  0.4751830000000  0.4970810000000 1.0
C      1  0.5233090000000  0.5500170000000  0.4448330000000 1.0
C      1  0.4731700000000  0.5473380000000  0.4478450000000 1.0
C      1  0.4189160000000  0.5129790000000  0.5309080000000 1.0
C      1  0.5808830000000  0.5112940000000  0.5339220000000 1.0
C      1  0.4094950000000  0.4860510000000  0.5225950000000 1.0
C      1  0.5893020000000  0.4843660000000  0.5233250000000 1.0
C      1  0.4856300000000  0.4458580000000  0.4322350000000 1.0
C      1  0.5145600000000  0.4477230000000  0.4297200000000 1.0
C      1  0.4204680000000  0.4654470000000  0.5409960000000 1.0
C      1  0.5764670000000  0.4628430000000  0.5393300000000 1.0
C      1  0.5698050000000  0.4773590000000  0.5634310000000 1.0
C      1  0.4271060000000  0.4815760000000  0.5639990000000 1.0
C      1  0.5350050000000  0.5114570000000  0.5610840000000 1.0
C      1  0.4635160000000  0.5131240000000  0.5586190000000 1.0
C      1  0.5154660000000  0.4749400000000  0.4814060000000 1.0
C      1  0.4868130000000  0.4770670000000  0.4809880000000 1.0
C      1  0.5150680000000  0.5823290000000  0.5611370000000 1.0
C      1  0.4875950000000  0.5837750000000  0.5624380000000 1.0
C      1  0.5329690000000  0.5716530000000  0.4924150000000 1.0
C      1  0.4632800000000  0.5749180000000  0.4925780000000 1.0
C      1  0.5771800000000  0.4602660000000  0.4811990000000 1.0
C      1  0.4241650000000  0.4593790000000  0.4836110000000 1.0
C      1  0.5628250000000  0.4745600000000  0.4615860000000 1.0
C      1  0.4384380000000  0.4728460000000  0.4635860000000 1.0
C      1  0.4733700000000  0.5665480000000  0.5191370000000 1.0
C      1  0.5215930000000  0.5622390000000  0.5175900000000 1.0
C      1  0.5290890000000  0.5028290000000  0.4217640000000 1.0
C      1  0.4688220000000  0.5009620000000  0.4234920000000 1.0
C      1  0.5768990000000  0.5315840000000  0.5140980000000 1.0
C      1  0.4241670000000  0.5326280000000  0.5108860000000 1.0
C      1  0.4828310000000  0.4630250000000  0.5652860000000 1.0
C      1  0.5120860000000  0.4631860000000  0.5697980000000 1.0
C      1  0.5164010000000  0.5240400000000  0.4806480000000 1.0
C      1  0.4928420000000  0.5320120000000  0.4929640000000 1.0
C      1  0.4901210000000  0.4234450000000  0.5332180000000 1.0
C      1  0.5151410000000  0.4194510000000  0.5472700000000 1.0
C      1  0.5610240000000  0.4389570000000  0.4944660000000 1.0
C      1  0.4401030000000  0.4397550000000  0.4992460000000 1.0
C      1  0.5150790000000  0.4847240000000  0.5283140000000 1.0
C      1  0.4869680000000  0.4869970000000  0.5270160000000 1.0
C      1  0.4348170000000  0.5791410000000  0.4923400000000 1.0
C      1  0.5612080000000  0.5768810000000  0.4943680000000 1.0
C      1  0.4430970000000  0.5237120000000  0.4920610000000 1.0
C      1  0.5634840000000  0.5202550000000  0.4920830000000 1.0
C      1  0.4406440000000  0.5039990000000  0.4259930000000 1.0
C      1  0.5572200000000  0.5061860000000  0.4245480000000 1.0
C      1  0.5649840000000  0.4416300000000  0.5233620000000 1.0
C      1  0.4325010000000  0.4431450000000  0.5272520000000 1.0
C      1  0.4841400000000  0.5241870000000  0.4326790000000 1.0
C      1  0.5130330000000  0.5255770000000  0.4309930000000 1.0
C      1  0.5238510000000  0.4373500000000  0.5661570000000 1.0
C      1  0.4739210000000  0.4393230000000  0.5511730000000 1.0
C      1  0.5374650000000  0.4265740000000  0.4784720000000 1.0
C      1  0.4660660000000  0.4278950000000  0.4864230000000 1.0
C      1  0.4731510000000  0.5631520000000  0.5483440000000 1.0
C      1  0.5258420000000  0.5601490000000  0.5462190000000 1.0
C      1  0.4963220000000  0.5518800000000  0.5115100000000 1.0
END
