TITL C-3623285-6872-1379 -13616.5083218356 125000 -761.593029935486 0 0 128 (C1) n - 1
REM
REM in /home/nfs/bkarasulu/CARBON/AIRSS/Generating-Clusters/LCBOP/Higher-Symm/SD-CG/FIRE-CG
REM
REM
REM
REM
REM
REM ./C.cell (b20cbc046b6831c77cfcea5457e17084)
REM AIRSS Version 0.9.1 bugfix July 2018 build 013d7b7c2542+ Fri, 06 Jul 2018 19:26:36 +0100
REM compiler GCC version 9.2.1 20190827 (Red Hat 9.2.1-1)
REM options -cpp -mtune=generic -march=x86-64 -g -O0 -fpre-include=/usr/include/finclude/math-vector-fortran.h
REM seed 348875333 1062320431 -794835420 240910469 -1455495312 462286988 1797381962 763784836 -184086070 49069033 -2122216957 1828012418 1474030089 -474991989 -25854375 -933192726 214176183 493204420 -698087087 869251788 -377097868 1778123416 892179607 772682056 -363338366 -909785221 2011476231 -471958608 1754306512 2115005314 -1352539989 1432113619 -1810440539
REM
CELL 1.54180   50.00000   50.00000   50.00000   90.00000   90.00000   90.00000
LATT -1
SFAC C  
C      1  0.4376010000000  0.5713750000000  0.5323660000000 1.0
C      1  0.5603290000000  0.5705680000000  0.5403500000000 1.0
C      1  0.4900470000000  0.5847900000000  0.4335640000000 1.0
C      1  0.4417120000000  0.4161040000000  0.5423660000000 1.0
C      1  0.5584050000000  0.4147280000000  0.5262920000000 1.0
C      1  0.5009730000000  0.4284490000000  0.4312850000000 1.0
C      1  0.4995090000000  0.4380170000000  0.5208300000000 1.0
C      1  0.5245660000000  0.4377290000000  0.4855040000000 1.0
C      1  0.4759240000000  0.4566740000000  0.4887110000000 1.0
C      1  0.5034290000000  0.5658980000000  0.5233860000000 1.0
C      1  0.5249620000000  0.5616520000000  0.4854310000000 1.0
C      1  0.4801660000000  0.5742050000000  0.4875650000000 1.0
C      1  0.4256200000000  0.4888040000000  0.5970850000000 1.0
C      1  0.6196550000000  0.4835850000000  0.5181430000000 1.0
C      1  0.4547720000000  0.4807770000000  0.3886360000000 1.0
C      1  0.4277820000000  0.5177290000000  0.5937040000000 1.0
C      1  0.6188260000000  0.5124820000000  0.5169120000000 1.0
C      1  0.4553250000000  0.5096820000000  0.3855870000000 1.0
C      1  0.4467610000000  0.4717850000000  0.5471280000000 1.0
C      1  0.5621100000000  0.4735770000000  0.5273600000000 1.0
C      1  0.4849210000000  0.4798270000000  0.4429110000000 1.0
C      1  0.4650060000000  0.5245850000000  0.5426320000000 1.0
C      1  0.5590570000000  0.5225110000000  0.5228390000000 1.0
C      1  0.4911330000000  0.5298070000000  0.4276490000000 1.0
C      1  0.4989100000000  0.5592390000000  0.4719310000000 1.0
C      1  0.4793570000000  0.5575450000000  0.5114760000000 1.0
C      1  0.5245440000000  0.5538190000000  0.5115160000000 1.0
C      1  0.5000560000000  0.4491310000000  0.4747360000000 1.0
C      1  0.4788350000000  0.4555770000000  0.5160030000000 1.0
C      1  0.5241000000000  0.4467020000000  0.5114250000000 1.0
C      1  0.5103570000000  0.5114350000000  0.4147270000000 1.0
C      1  0.4348410000000  0.5174700000000  0.5359710000000 1.0
C      1  0.5638260000000  0.5182210000000  0.5508770000000 1.0
C      1  0.5045860000000  0.4824620000000  0.4190610000000 1.0
C      1  0.4288850000000  0.4887850000000  0.5325940000000 1.0
C      1  0.5643290000000  0.4881790000000  0.5536310000000 1.0
C      1  0.5301780000000  0.5267550000000  0.5171040000000 1.0
C      1  0.4960670000000  0.5327270000000  0.4578970000000 1.0
C      1  0.4740430000000  0.5290240000000  0.5132360000000 1.0
C      1  0.5332010000000  0.4742390000000  0.5163080000000 1.0
C      1  0.5070200000000  0.4759410000000  0.4646660000000 1.0
C      1  0.4724900000000  0.4727450000000  0.5360710000000 1.0
C      1  0.4337360000000  0.5700160000000  0.4820310000000 1.0
C      1  0.5166030000000  0.5777360000000  0.5658210000000 1.0
C      1  0.5417530000000  0.5727850000000  0.4469060000000 1.0
C      1  0.4383270000000  0.4302870000000  0.4907710000000 1.0
C      1  0.5206630000000  0.4286140000000  0.5623590000000 1.0
C      1  0.5460170000000  0.4253980000000  0.4498030000000 1.0
C      1  0.4603330000000  0.4273140000000  0.5620960000000 1.0
C      1  0.5674990000000  0.4302050000000  0.5031650000000 1.0
C      1  0.4727240000000  0.4316960000000  0.4420760000000 1.0
C      1  0.4590880000000  0.5721520000000  0.5546570000000 1.0
C      1  0.5689290000000  0.5651040000000  0.5059490000000 1.0
C      1  0.4647760000000  0.5693600000000  0.4341050000000 1.0
C      1  0.4968480000000  0.5943020000000  0.5268220000000 1.0
C      1  0.5094980000000  0.6076860000000  0.4730600000000 1.0
C      1  0.4925340000000  0.6008140000000  0.4966970000000 1.0
C      1  0.4909360000000  0.4124010000000  0.5246650000000 1.0
C      1  0.5058390000000  0.3974260000000  0.4701800000000 1.0
C      1  0.4840360000000  0.4042140000000  0.4892710000000 1.0
C      1  0.5411790000000  0.4532490000000  0.4391010000000 1.0
C      1  0.4316520000000  0.4598170000000  0.4902600000000 1.0
C      1  0.5288160000000  0.4573630000000  0.5655300000000 1.0
C      1  0.5392320000000  0.5432080000000  0.4377220000000 1.0
C      1  0.4320800000000  0.5429680000000  0.4937530000000 1.0
C      1  0.5261880000000  0.5487340000000  0.5665760000000 1.0
C      1  0.4887220000000  0.5906460000000  0.5558530000000 1.0
C      1  0.5497110000000  0.5711200000000  0.4761470000000 1.0
C      1  0.4447840000000  0.5734650000000  0.4553210000000 1.0
C      1  0.4888610000000  0.4158210000000  0.5571480000000 1.0
C      1  0.5506030000000  0.4278690000000  0.4784880000000 1.0
C      1  0.4613510000000  0.4190160000000  0.4731450000000 1.0
C      1  0.6345130000000  0.5282420000000  0.5328280000000 1.0
C      1  0.4627960000000  0.5214290000000  0.3619930000000 1.0
C      1  0.4054950000000  0.5336960000000  0.5944050000000 1.0
C      1  0.6361810000000  0.4701100000000  0.5352500000000 1.0
C      1  0.4619500000000  0.4639720000000  0.3682540000000 1.0
C      1  0.4016540000000  0.4770750000000  0.6034590000000 1.0
C      1  0.4505750000000  0.4547540000000  0.5708020000000 1.0
C      1  0.5791990000000  0.4563400000000  0.5109090000000 1.0
C      1  0.4655860000000  0.4578070000000  0.4315050000000 1.0
C      1  0.4599290000000  0.5450020000000  0.5656730000000 1.0
C      1  0.5778090000000  0.5379950000000  0.5072930000000 1.0
C      1  0.4667030000000  0.5433220000000  0.4204180000000 1.0
C      1  0.5531790000000  0.5261750000000  0.3922570000000 1.0
C      1  0.3634540000000  0.4832780000000  0.5013860000000 1.0
C      1  0.5742620000000  0.4657820000000  0.6239280000000 1.0
C      1  0.5700230000000  0.5250880000000  0.3724030000000 1.0
C      1  0.3888950000000  0.4792050000000  0.5052840000000 1.0
C      1  0.5641150000000  0.4683000000000  0.6000580000000 1.0
C      1  0.5560020000000  0.5457680000000  0.5603210000000 1.0
C      1  0.5353840000000  0.5269670000000  0.4135310000000 1.0
C      1  0.4264200000000  0.5432290000000  0.5233370000000 1.0
C      1  0.5531910000000  0.4711120000000  0.5747220000000 1.0
C      1  0.5169960000000  0.4540280000000  0.4208520000000 1.0
C      1  0.4163680000000  0.4758630000000  0.5093620000000 1.0
C      1  0.4743910000000  0.5135050000000  0.6021990000000 1.0
C      1  0.5994930000000  0.5093150000000  0.4733300000000 1.0
C      1  0.4264450000000  0.5136190000000  0.4233230000000 1.0
C      1  0.4726200000000  0.4861770000000  0.6035000000000 1.0
C      1  0.6004670000000  0.4820280000000  0.4744540000000 1.0
C      1  0.4253190000000  0.4863630000000  0.4256150000000 1.0
C      1  0.5141530000000  0.5280600000000  0.5512410000000 1.0
C      1  0.5271070000000  0.5257580000000  0.4594180000000 1.0
C      1  0.4552430000000  0.5267860000000  0.4901690000000 1.0
C      1  0.5186530000000  0.4759200000000  0.5454230000000 1.0
C      1  0.5371080000000  0.4736210000000  0.4599160000000 1.0
C      1  0.4545130000000  0.4728040000000  0.4784890000000 1.0
C      1  0.4460440000000  0.4702260000000  0.4141850000000 1.0
C      1  0.4495210000000  0.4722990000000  0.5939000000000 1.0
C      1  0.6019830000000  0.4695170000000  0.5000690000000 1.0
C      1  0.4473750000000  0.5259780000000  0.4083130000000 1.0
C      1  0.4540550000000  0.5295590000000  0.5898430000000 1.0
C      1  0.6004830000000  0.5240540000000  0.4977400000000 1.0
C      1  0.5414710000000  0.4139870000000  0.5478130000000 1.0
C      1  0.5189410000000  0.4108120000000  0.4471360000000 1.0
C      1  0.4342560000000  0.4175390000000  0.5163460000000 1.0
C      1  0.5409910000000  0.5902080000000  0.5520560000000 1.0
C      1  0.5153710000000  0.5917700000000  0.4474320000000 1.0
C      1  0.4348110000000  0.5866950000000  0.5067560000000 1.0
C      1  0.5463310000000  0.4878230000000  0.4827470000000 1.0
C      1  0.4645210000000  0.4925870000000  0.4605500000000 1.0
C      1  0.4933280000000  0.4861110000000  0.5485640000000 1.0
C      1  0.5388720000000  0.5143620000000  0.4819180000000 1.0
C      1  0.4696730000000  0.5187110000000  0.4678190000000 1.0
C      1  0.4909820000000  0.5132550000000  0.5528490000000 1.0
C      1  0.4984800000000  0.5123720000000  0.5071270000000 1.0
C      1  0.5053530000000  0.4909740000000  0.4963300000000 1.0
END
