TITL C-3623284-6838-1904 -5.13842498129688e-07 125000 -585.698071804604 0 0 98 (C1) n - 1
REM
REM in /home/nfs/bkarasulu/CARBON/AIRSS/Generating-Clusters/LCBOP/Higher-Symm/SD-CG/FIRE-CG
REM
REM
REM
REM
REM
REM ./C.cell (b20cbc046b6831c77cfcea5457e17084)
REM AIRSS Version 0.9.1 bugfix July 2018 build 013d7b7c2542+ Fri, 06 Jul 2018 19:26:36 +0100
REM compiler GCC version 9.2.1 20190827 (Red Hat 9.2.1-1)
REM options -cpp -mtune=generic -march=x86-64 -g -O0 -fpre-include=/usr/include/finclude/math-vector-fortran.h
REM seed 507405922 1368067865 1370243081 -1904082615 1526221498 -1744002588 -1690972901 -1334031597 -748082656 -1695102443 -1879818324 143158008 -1556572696 -1380213757 1672190737 -1357644526 1570291599 -1523107613 1821175546 -960202656 24983742 465695633 -169712525 -432616869 1897885591 -621431862 -1650828425 680470661 99512224 -642074998 -1871993459 -1268572398 1366804893
REM
CELL 1.54180   50.00000   50.00000   50.00000   90.00000   90.00000   90.00000
LATT -1
SFAC C  
C      1  0.3919400000000  0.5698830000000  0.4973960000000 1.0
C      1  0.3918210000000  0.4676880000000  0.5619900000000 1.0
C      1  0.3917620000000  0.4624770000000  0.4411250000000 1.0
C      1  0.6095760000000  0.5698310000000  0.4971950000000 1.0
C      1  0.6093580000000  0.4676480000000  0.5622690000000 1.0
C      1  0.6096210000000  0.4628440000000  0.4411560000000 1.0
C      1  0.4751570000000  0.5325080000000  0.4029460000000 1.0
C      1  0.4753280000000  0.5678960000000  0.5771260000000 1.0
C      1  0.4751210000000  0.3993980000000  0.5207240000000 1.0
C      1  0.5261080000000  0.5325570000000  0.4029690000000 1.0
C      1  0.5262830000000  0.5678700000000  0.5770740000000 1.0
C      1  0.5260850000000  0.3993450000000  0.5207760000000 1.0
C      1  0.5337530000000  0.5283340000000  0.4307600000000 1.0
C      1  0.5339550000000  0.5459880000000  0.5594540000000 1.0
C      1  0.5337820000000  0.4255080000000  0.5105500000000 1.0
C      1  0.4674550000000  0.5282140000000  0.4307000000000 1.0
C      1  0.4676390000000  0.5459960000000  0.5595290000000 1.0
C      1  0.4674970000000  0.4255670000000  0.5104460000000 1.0
C      1  0.4169190000000  0.4698180000000  0.4334490000000 1.0
C      1  0.4171150000000  0.5728530000000  0.5075510000000 1.0
C      1  0.4170000000000  0.4574070000000  0.5595410000000 1.0
C      1  0.5844030000000  0.4700390000000  0.4335410000000 1.0
C      1  0.5844360000000  0.5728070000000  0.5074320000000 1.0
C      1  0.5842050000000  0.4573140000000  0.5597590000000 1.0
C      1  0.4870060000000  0.3781520000000  0.5066340000000 1.0
C      1  0.4870260000000  0.5553740000000  0.3916620000000 1.0
C      1  0.4872410000000  0.5662030000000  0.6025490000000 1.0
C      1  0.5141850000000  0.3781280000000  0.5066560000000 1.0
C      1  0.5142050000000  0.5553960000000  0.3916640000000 1.0
C      1  0.5144190000000  0.5661850000000  0.6025200000000 1.0
C      1  0.5334920000000  0.5195860000000  0.4917700000000 1.0
C      1  0.5330050000000  0.4983150000000  0.5201310000000 1.0
C      1  0.5331820000000  0.4830060000000  0.4881410000000 1.0
C      1  0.4684020000000  0.5180410000000  0.4916820000000 1.0
C      1  0.4680480000000  0.4979970000000  0.5209090000000 1.0
C      1  0.4679480000000  0.4828210000000  0.4874280000000 1.0
C      1  0.4537430000000  0.5023790000000  0.4314690000000 1.0
C      1  0.4539400000000  0.5582270000000  0.5367380000000 1.0
C      1  0.4538280000000  0.4393080000000  0.5323720000000 1.0
C      1  0.5474480000000  0.5024850000000  0.4316410000000 1.0
C      1  0.5476670000000  0.5582510000000  0.5367010000000 1.0
C      1  0.5474540000000  0.4391930000000  0.5325100000000 1.0
C      1  0.4307310000000  0.4563280000000  0.4127520000000 1.0
C      1  0.4308880000000  0.5975440000000  0.5062750000000 1.0
C      1  0.4307810000000  0.4462970000000  0.5816220000000 1.0
C      1  0.5706550000000  0.4565160000000  0.4128270000000 1.0
C      1  0.5706100000000  0.5974670000000  0.5060920000000 1.0
C      1  0.5704140000000  0.4461320000000  0.5817980000000 1.0
C      1  0.4226620000000  0.4754830000000  0.5145040000000 1.0
C      1  0.4225090000000  0.4998240000000  0.4716450000000 1.0
C      1  0.4227540000000  0.5247760000000  0.5141780000000 1.0
C      1  0.5786060000000  0.4754280000000  0.5147260000000 1.0
C      1  0.5786630000000  0.4997930000000  0.4718670000000 1.0
C      1  0.5788850000000  0.5247330000000  0.5143780000000 1.0
C      1  0.4858950000000  0.4390560000000  0.4936180000000 1.0
C      1  0.4858240000000  0.5357560000000  0.4509230000000 1.0
C      1  0.4860130000000  0.5246820000000  0.5560900000000 1.0
C      1  0.5154350000000  0.4391040000000  0.4937560000000 1.0
C      1  0.5153610000000  0.5361190000000  0.4508800000000 1.0
C      1  0.5155540000000  0.5247290000000  0.5558640000000 1.0
C      1  0.4309670000000  0.4919740000000  0.4456780000000 1.0
C      1  0.4312110000000  0.5511490000000  0.5205230000000 1.0
C      1  0.4310940000000  0.4568880000000  0.5342620000000 1.0
C      1  0.5702310000000  0.4920720000000  0.4458560000000 1.0
C      1  0.5704230000000  0.5511470000000  0.5205550000000 1.0
C      1  0.5701540000000  0.4568100000000  0.5344550000000 1.0
C      1  0.5474520000000  0.4641700000000  0.4012850000000 1.0
C      1  0.5474660000000  0.6036320000000  0.5186070000000 1.0
C      1  0.5472770000000  0.4322030000000  0.5808870000000 1.0
C      1  0.4539050000000  0.4640430000000  0.4011880000000 1.0
C      1  0.4540490000000  0.6036850000000  0.5187640000000 1.0
C      1  0.4539300000000  0.4323860000000  0.5807600000000 1.0
C      1  0.5145340000000  0.4589530000000  0.4504700000000 1.0
C      1  0.5137480000000  0.5636280000000  0.4897730000000 1.0
C      1  0.5145950000000  0.4772730000000  0.5596600000000 1.0
C      1  0.4873030000000  0.4587450000000  0.4502440000000 1.0
C      1  0.4865260000000  0.5629500000000  0.4899910000000 1.0
C      1  0.4873690000000  0.4772160000000  0.5600610000000 1.0
C      1  0.5263100000000  0.4996360000000  0.5466230000000 1.0
C      1  0.5262820000000  0.4593340000000  0.4763360000000 1.0
C      1  0.5261320000000  0.5414230000000  0.4770720000000 1.0
C      1  0.4752020000000  0.4994710000000  0.5472560000000 1.0
C      1  0.4751390000000  0.4590930000000  0.4759260000000 1.0
C      1  0.4750150000000  0.5403160000000  0.4772470000000 1.0
C      1  0.4861700000000  0.4069120000000  0.5478270000000 1.0
C      1  0.4862360000000  0.5053030000000  0.3958450000000 1.0
C      1  0.4863790000000  0.5876680000000  0.5571240000000 1.0
C      1  0.5150060000000  0.4068570000000  0.5478650000000 1.0
C      1  0.5150730000000  0.5053310000000  0.3958880000000 1.0
C      1  0.5152170000000  0.5876590000000  0.5570930000000 1.0
C      1  0.4668860000000  0.4877480000000  0.4086730000000 1.0
C      1  0.4670360000000  0.5853210000000  0.5355120000000 1.0
C      1  0.4668920000000  0.4269070000000  0.5565040000000 1.0
C      1  0.5343940000000  0.4878210000000  0.4088050000000 1.0
C      1  0.5345360000000  0.5853150000000  0.5354490000000 1.0
C      1  0.5343370000000  0.4267730000000  0.5566080000000 1.0
C      1  0.5807220000000  0.4999680000000  0.5003250000000 1.0
C      1  0.4206380000000  0.5000400000000  0.5001150000000 1.0
END
