TITL C-3623283-6828-446 1.94032524042099e-05 125000 -970.868356362139 0 0 158 (C1) n - 1
REM
REM in /home/nfs/bkarasulu/CARBON/AIRSS/Generating-Clusters/LCBOP/Higher-Symm/SD-CG/FIRE-CG
REM
REM
REM
REM
REM
REM ./C.cell (b20cbc046b6831c77cfcea5457e17084)
REM AIRSS Version 0.9.1 bugfix July 2018 build 013d7b7c2542+ Fri, 06 Jul 2018 19:26:36 +0100
REM compiler GCC version 9.2.1 20190827 (Red Hat 9.2.1-1)
REM options -cpp -mtune=generic -march=x86-64 -g -O0 -fpre-include=/usr/include/finclude/math-vector-fortran.h
REM seed 1514094818 -781233866 -1025042048 727532413 -160616949 1352652347 -628986209 867843048 1945305306 829483530 863642425 -1786593256 436792850 826488943 1114706366 -65489797 604139911 1357090220 788345048 -1781300239 -1238985602 1707945815 121513025 1515117574 -1243479111 -1471508 -1768788743 309396168 180680089 1151121254 237352650 -195574220 -587828209
REM
CELL 1.54180   50.00000   50.00000   50.00000   90.00000   90.00000   90.00000
LATT -1
SFAC C  
C      1  0.4861780000000  0.4984210000000  0.5476130000000 1.0
C      1  0.5031510000000  0.4437080000000  0.5583570000000 1.0
C      1  0.5349060000000  0.4918370000000  0.5407450000000 1.0
C      1  0.5090720000000  0.4996200000000  0.5307440000000 1.0
C      1  0.4947880000000  0.5042640000000  0.4788110000000 1.0
C      1  0.5040300000000  0.5062210000000  0.5046030000000 1.0
C      1  0.5293210000000  0.5114410000000  0.4485800000000 1.0
C      1  0.5053430000000  0.5219670000000  0.4599300000000 1.0
C      1  0.4646380000000  0.5704690000000  0.5374850000000 1.0
C      1  0.4420320000000  0.4800530000000  0.5412140000000 1.0
C      1  0.5381170000000  0.4277620000000  0.5286820000000 1.0
C      1  0.5670140000000  0.5257270000000  0.5328640000000 1.0
C      1  0.4884420000000  0.5697630000000  0.4881680000000 1.0
C      1  0.4419270000000  0.4916740000000  0.4909080000000 1.0
C      1  0.5120600000000  0.4340700000000  0.4843820000000 1.0
C      1  0.5625540000000  0.5141520000000  0.4819530000000 1.0
C      1  0.6533640000000  0.4452400000000  0.4802460000000 1.0
C      1  0.5267150000000  0.6219870000000  0.5447080000000 1.0
C      1  0.3471540000000  0.5625060000000  0.4903050000000 1.0
C      1  0.4697870000000  0.3785160000000  0.5476260000000 1.0
C      1  0.6305950000000  0.4386900000000  0.4289850000000 1.0
C      1  0.5374360000000  0.6266060000000  0.4844450000000 1.0
C      1  0.3753170000000  0.5498930000000  0.4429860000000 1.0
C      1  0.4619150000000  0.3789630000000  0.4828470000000 1.0
C      1  0.4656350000000  0.6187750000000  0.5253100000000 1.0
C      1  0.3932930000000  0.4877430000000  0.5283130000000 1.0
C      1  0.5345670000000  0.3804440000000  0.5120900000000 1.0
C      1  0.6130410000000  0.5317000000000  0.5116590000000 1.0
C      1  0.4756850000000  0.6180760000000  0.5003160000000 1.0
C      1  0.3929690000000  0.4927520000000  0.5018180000000 1.0
C      1  0.5207360000000  0.3836200000000  0.4891870000000 1.0
C      1  0.6113460000000  0.5241260000000  0.4858220000000 1.0
C      1  0.5390440000000  0.4652450000000  0.4040580000000 1.0
C      1  0.5143520000000  0.5508320000000  0.4267210000000 1.0
C      1  0.4563290000000  0.5284010000000  0.4044000000000 1.0
C      1  0.4684660000000  0.4604380000000  0.4246790000000 1.0
C      1  0.6015840000000  0.4749160000000  0.5582850000000 1.0
C      1  0.4965730000000  0.5378830000000  0.5878450000000 1.0
C      1  0.4054500000000  0.5369590000000  0.5671050000000 1.0
C      1  0.4526790000000  0.4624840000000  0.5944870000000 1.0
C      1  0.4414650000000  0.4357500000000  0.5547750000000 1.0
C      1  0.5857220000000  0.4408500000000  0.5269040000000 1.0
C      1  0.5391590000000  0.5531700000000  0.5618230000000 1.0
C      1  0.4168470000000  0.5650360000000  0.5290700000000 1.0
C      1  0.4425760000000  0.4500070000000  0.4654470000000 1.0
C      1  0.5487540000000  0.4390310000000  0.4487990000000 1.0
C      1  0.5521210000000  0.5577510000000  0.4605540000000 1.0
C      1  0.4650850000000  0.5505540000000  0.4491610000000 1.0
C      1  0.3700040000000  0.5766660000000  0.4494970000000 1.0
C      1  0.4441150000000  0.3736030000000  0.5039190000000 1.0
C      1  0.6379710000000  0.4162150000000  0.4441140000000 1.0
C      1  0.5567300000000  0.6286770000000  0.5048590000000 1.0
C      1  0.3546180000000  0.5829760000000  0.4725240000000 1.0
C      1  0.4495270000000  0.3673340000000  0.5313490000000 1.0
C      1  0.6506960000000  0.4195050000000  0.4692920000000 1.0
C      1  0.5517080000000  0.6271580000000  0.5328420000000 1.0
C      1  0.4693500000000  0.4140180000000  0.5856590000000 1.0
C      1  0.6241340000000  0.4683680000000  0.5157420000000 1.0
C      1  0.5069000000000  0.5853220000000  0.5757920000000 1.0
C      1  0.3730040000000  0.5444170000000  0.5309690000000 1.0
C      1  0.4660480000000  0.4143260000000  0.4445450000000 1.0
C      1  0.5837480000000  0.4587970000000  0.4211320000000 1.0
C      1  0.5283280000000  0.5956170000000  0.4435670000000 1.0
C      1  0.4210770000000  0.5271330000000  0.4381310000000 1.0
C      1  0.5135760000000  0.5577000000000  0.5753950000000 1.0
C      1  0.3982520000000  0.5481580000000  0.5425320000000 1.0
C      1  0.4543910000000  0.4375370000000  0.5805270000000 1.0
C      1  0.6032650000000  0.4623320000000  0.5334450000000 1.0
C      1  0.5330130000000  0.5677920000000  0.4409240000000 1.0
C      1  0.4473790000000  0.5334060000000  0.4310760000000 1.0
C      1  0.4591470000000  0.4416920000000  0.4436810000000 1.0
C      1  0.5560640000000  0.4544590000000  0.4247180000000 1.0
C      1  0.5738310000000  0.6245410000000  0.5502530000000 1.0
C      1  0.3564010000000  0.6090130000000  0.4831530000000 1.0
C      1  0.4270380000000  0.3575300000000  0.5458460000000 1.0
C      1  0.6509910000000  0.3979430000000  0.4873860000000 1.0
C      1  0.5834870000000  0.6262240000000  0.4961070000000 1.0
C      1  0.3871350000000  0.5958700000000  0.4381160000000 1.0
C      1  0.4169830000000  0.3785180000000  0.4973630000000 1.0
C      1  0.6238480000000  0.3924310000000  0.4388890000000 1.0
C      1  0.6359080000000  0.3894520000000  0.5077630000000 1.0
C      1  0.5839340000000  0.6072250000000  0.5679410000000 1.0
C      1  0.3734200000000  0.6200590000000  0.5006650000000 1.0
C      1  0.4070050000000  0.3721270000000  0.5564630000000 1.0
C      1  0.5985590000000  0.3838360000000  0.4393570000000 1.0
C      1  0.5982330000000  0.6098660000000  0.4809730000000 1.0
C      1  0.4125760000000  0.6023860000000  0.4334930000000 1.0
C      1  0.4004280000000  0.3963090000000  0.4863970000000 1.0
C      1  0.3950950000000  0.5323110000000  0.4401280000000 1.0
C      1  0.4660070000000  0.3923790000000  0.4599740000000 1.0
C      1  0.6098090000000  0.4536620000000  0.4216920000000 1.0
C      1  0.5300910000000  0.6159090000000  0.4610120000000 1.0
C      1  0.3548480000000  0.5491500000000  0.5120740000000 1.0
C      1  0.4750820000000  0.3928040000000  0.5698350000000 1.0
C      1  0.6423950000000  0.4625040000000  0.4973230000000 1.0
C      1  0.5128180000000  0.6080920000000  0.5628780000000 1.0
C      1  0.5787790000000  0.5831480000000  0.5783050000000 1.0
C      1  0.3940660000000  0.6119140000000  0.5154910000000 1.0
C      1  0.4037540000000  0.3987440000000  0.5575700000000 1.0
C      1  0.6147370000000  0.3964160000000  0.5224000000000 1.0
C      1  0.5954570000000  0.5876860000000  0.4664050000000 1.0
C      1  0.4384190000000  0.5960140000000  0.4345960000000 1.0
C      1  0.4003730000000  0.4201790000000  0.4745230000000 1.0
C      1  0.5734190000000  0.3918190000000  0.4431300000000 1.0
C      1  0.5091950000000  0.4693390000000  0.4502650000000 1.0
C      1  0.5302000000000  0.4851550000000  0.4436220000000 1.0
C      1  0.4935210000000  0.5425030000000  0.4446330000000 1.0
C      1  0.4909620000000  0.4786130000000  0.4679170000000 1.0
C      1  0.5113330000000  0.4661970000000  0.5728700000000 1.0
C      1  0.5367170000000  0.4759060000000  0.5639090000000 1.0
C      1  0.5052740000000  0.5110020000000  0.5898500000000 1.0
C      1  0.4950320000000  0.4899540000000  0.5739060000000 1.0
C      1  0.5574620000000  0.4909790000000  0.4987800000000 1.0
C      1  0.5059160000000  0.5600100000000  0.5088730000000 1.0
C      1  0.4537420000000  0.5115870000000  0.5084580000000 1.0
C      1  0.4954500000000  0.4418430000000  0.5080100000000 1.0
C      1  0.5570370000000  0.4999630000000  0.5261070000000 1.0
C      1  0.4908150000000  0.5603550000000  0.5331050000000 1.0
C      1  0.4605360000000  0.5005420000000  0.5346780000000 1.0
C      1  0.5108930000000  0.4369980000000  0.5321940000000 1.0
C      1  0.4850930000000  0.5976820000000  0.4855390000000 1.0
C      1  0.4142790000000  0.4951110000000  0.4854670000000 1.0
C      1  0.5111570000000  0.4062480000000  0.4781780000000 1.0
C      1  0.5893460000000  0.5160650000000  0.4723640000000 1.0
C      1  0.4614950000000  0.5981730000000  0.5422670000000 1.0
C      1  0.4144150000000  0.4841780000000  0.5445830000000 1.0
C      1  0.5420200000000  0.3997510000000  0.5293350000000 1.0
C      1  0.5941740000000  0.5323080000000  0.5308240000000 1.0
C      1  0.4752320000000  0.5179380000000  0.3879080000000 1.0
C      1  0.4824200000000  0.4814400000000  0.4153340000000 1.0
C      1  0.5231710000000  0.4839540000000  0.3921420000000 1.0
C      1  0.5165630000000  0.5296340000000  0.4069680000000 1.0
C      1  0.4221180000000  0.5267490000000  0.5851030000000 1.0
C      1  0.4503910000000  0.4893140000000  0.5983970000000 1.0
C      1  0.6014290000000  0.4858230000000  0.5819550000000 1.0
C      1  0.4684560000000  0.5370410000000  0.5935660000000 1.0
C      1  0.4512110000000  0.4534440000000  0.5350420000000 1.0
C      1  0.5589590000000  0.4447430000000  0.5180430000000 1.0
C      1  0.5457190000000  0.5451340000000  0.5345530000000 1.0
C      1  0.4434540000000  0.5569650000000  0.5236050000000 1.0
C      1  0.4525320000000  0.4646340000000  0.4878890000000 1.0
C      1  0.5373710000000  0.4474490000000  0.4749990000000 1.0
C      1  0.5475160000000  0.5402530000000  0.4836840000000 1.0
C      1  0.4658430000000  0.5524410000000  0.4802010000000 1.0
C      1  0.4089610000000  0.5913940000000  0.5234650000000 1.0
C      1  0.4177080000000  0.4210720000000  0.5531460000000 1.0
C      1  0.5965290000000  0.4149370000000  0.5281500000000 1.0
C      1  0.5616000000000  0.5627990000000  0.5763760000000 1.0
C      1  0.4577740000000  0.5785520000000  0.4400490000000 1.0
C      1  0.4163790000000  0.4399370000000  0.4666290000000 1.0
C      1  0.5562560000000  0.4117230000000  0.4471850000000 1.0
C      1  0.5779960000000  0.5690430000000  0.4588850000000 1.0
C      1  0.4520830000000  0.5395290000000  0.5022340000000 1.0
C      1  0.5524640000000  0.4620750000000  0.4952810000000 1.0
C      1  0.5330430000000  0.5500830000000  0.5083220000000 1.0
C      1  0.4668570000000  0.4513480000000  0.5100130000000 1.0
C      1  0.4472020000000  0.5176100000000  0.5939150000000 1.0
C      1  0.4996140000000  0.5029890000000  0.3991700000000 1.0
END
