TITL C-3623287-7182-727 289405.808432439 125000 -1084.30850773273 0 0 177 (C1) n - 1
REM
REM in /home/nfs/bkarasulu/CARBON/AIRSS/Generating-Clusters/LCBOP/Higher-Symm/SD-CG/FIRE-CG
REM
REM
REM
REM
REM
REM ./C.cell (b20cbc046b6831c77cfcea5457e17084)
REM AIRSS Version 0.9.1 bugfix July 2018 build 013d7b7c2542+ Fri, 06 Jul 2018 19:26:36 +0100
REM compiler GCC version 9.2.1 20190827 (Red Hat 9.2.1-1)
REM options -cpp -mtune=generic -march=x86-64 -g -O0 -fpre-include=/usr/include/finclude/math-vector-fortran.h
REM seed 1636397210 547105008 1959153819 -650925925 -964618989 -1647782607 1554107418 1216910792 954751515 2025917290 1872611992 -31146444 1854987183 -1299706640 2009083334 -1527800255 -726757169 -912524932 -194724858 -1477022707 182518306 1580492551 233641168 -1448248719 2138122368 -955533446 -1073208708 1600612962 -123452962 -1264063988 671672732 -1142777867 782414191
REM
CELL 1.54180   50.00000   50.00000   50.00000   90.00000   90.00000   90.00000
LATT -1
SFAC C  
C      1  0.4414310000000  0.5471120000000  0.5292360000000 1.0
C      1  0.3757260000000  0.5093990000000  0.5804310000000 1.0
C      1  0.5846820000000  0.4482720000000  0.5196290000000 1.0
C      1  0.4012740000000  0.5546720000000  0.5788200000000 1.0
C      1  0.4952900000000  0.5198880000000  0.4286560000000 1.0
C      1  0.5277950000000  0.5989370000000  0.4522260000000 1.0
C      1  0.5272520000000  0.5529080000000  0.4454580000000 1.0
C      1  0.5248760000000  0.4689490000000  0.5511860000000 1.0
C      1  0.4775640000000  0.5024360000000  0.4421090000000 1.0
C      1  0.5055710000000  0.6077610000000  0.5336620000000 1.0
C      1  0.5635130000000  0.4891230000000  0.5815500000000 1.0
C      1  0.5517390000000  0.3948450000000  0.5529690000000 1.0
C      1  0.5360370000000  0.6009780000000  0.5740030000000 1.0
C      1  0.5644420000000  0.6023300000000  0.5158330000000 1.0
C      1  0.3916470000000  0.5206190000000  0.5117050000000 1.0
C      1  0.4959250000000  0.5249000000000  0.4008220000000 1.0
C      1  0.4190340000000  0.5834880000000  0.4809050000000 1.0
C      1  0.5168000000000  0.5910730000000  0.3595680000000 1.0
C      1  0.5550730000000  0.4454450000000  0.5243860000000 1.0
C      1  0.3996040000000  0.4422790000000  0.4579960000000 1.0
C      1  0.4077060000000  0.5925830000000  0.5067960000000 1.0
C      1  0.5532650000000  0.4771390000000  0.3952820000000 1.0
C      1  0.4217910000000  0.4943080000000  0.3786610000000 1.0
C      1  0.4164540000000  0.5489630000000  0.4211230000000 1.0
C      1  0.5093580000000  0.4667880000000  0.4193410000000 1.0
C      1  0.4785480000000  0.3958160000000  0.5389640000000 1.0
C      1  0.5168290000000  0.5171200000000  0.5781540000000 1.0
C      1  0.4737360000000  0.4461860000000  0.5811030000000 1.0
C      1  0.5449060000000  0.5826790000000  0.5101760000000 1.0
C      1  0.4599860000000  0.4379330000000  0.5227450000000 1.0
C      1  0.4089420000000  0.4551160000000  0.5465810000000 1.0
C      1  0.4534880000000  0.4544010000000  0.4997730000000 1.0
C      1  0.4023570000000  0.4263560000000  0.4793070000000 1.0
C      1  0.4359940000000  0.5056580000000  0.5567730000000 1.0
C      1  0.4975620000000  0.5643740000000  0.5163890000000 1.0
C      1  0.5314480000000  0.5746990000000  0.3735970000000 1.0
C      1  0.5797330000000  0.5051420000000  0.5975930000000 1.0
C      1  0.4803900000000  0.5257940000000  0.6062810000000 1.0
C      1  0.5020080000000  0.4517940000000  0.5114670000000 1.0
C      1  0.4634470000000  0.4816410000000  0.5013360000000 1.0
C      1  0.4230350000000  0.5700910000000  0.5702230000000 1.0
C      1  0.5397480000000  0.5770620000000  0.4381620000000 1.0
C      1  0.4774540000000  0.5987350000000  0.5368080000000 1.0
C      1  0.5645400000000  0.4880410000000  0.5523850000000 1.0
C      1  0.5365300000000  0.4846750000000  0.4605400000000 1.0
C      1  0.3754380000000  0.5038920000000  0.4653430000000 1.0
C      1  0.5674230000000  0.5204600000000  0.4104680000000 1.0
C      1  0.5716960000000  0.4918940000000  0.4139030000000 1.0
C      1  0.5238430000000  0.3987270000000  0.5588490000000 1.0
C      1  0.5774460000000  0.4128210000000  0.4836730000000 1.0
C      1  0.5441290000000  0.4710630000000  0.4850610000000 1.0
C      1  0.5054350000000  0.4787390000000  0.6444660000000 1.0
C      1  0.5507110000000  0.4639890000000  0.5453990000000 1.0
C      1  0.3995940000000  0.4899380000000  0.4644680000000 1.0
C      1  0.5055330000000  0.4830940000000  0.5660400000000 1.0
C      1  0.6101620000000  0.5089060000000  0.5228410000000 1.0
C      1  0.4602640000000  0.4268360000000  0.4328250000000 1.0
C      1  0.5199370000000  0.6143120000000  0.5570580000000 1.0
C      1  0.4642100000000  0.4519940000000  0.4477020000000 1.0
C      1  0.4277740000000  0.4586420000000  0.5685690000000 1.0
C      1  0.5564710000000  0.4326220000000  0.4085700000000 1.0
C      1  0.5185080000000  0.5270830000000  0.4432250000000 1.0
C      1  0.5000000000000  0.5082780000000  0.5384510000000 1.0
C      1  0.5836710000000  0.5195100000000  0.5193840000000 1.0
C      1  0.5574390000000  0.5684730000000  0.4168030000000 1.0
C      1  0.5543710000000  0.4449670000000  0.4340900000000 1.0
C      1  0.5650740000000  0.4426970000000  0.5880490000000 1.0
C      1  0.5806880000000  0.5922560000000  0.5606040000000 1.0
C      1  0.5441370000000  0.5292610000000  0.3929300000000 1.0
C      1  0.5129370000000  0.5007680000000  0.5122610000000 1.0
C      1  0.4951080000000  0.5349430000000  0.5842010000000 1.0
C      1  0.4896180000000  0.5738410000000  0.4695810000000 1.0
C      1  0.4228250000000  0.5546720000000  0.4868850000000 1.0
C      1  0.4507530000000  0.5233200000000  0.5411690000000 1.0
C      1  0.5927410000000  0.5186770000000  0.6156810000000 1.0
C      1  0.5280120000000  0.4347800000000  0.5171430000000 1.0
C      1  0.3913330000000  0.4958830000000  0.5221000000000 1.0
C      1  0.5397230000000  0.4420350000000  0.4765680000000 1.0
C      1  0.4992720000000  0.4358300000000  0.5904220000000 1.0
C      1  0.4850630000000  0.5476690000000  0.5602720000000 1.0
C      1  0.4769350000000  0.5436550000000  0.3917350000000 1.0
C      1  0.5437080000000  0.5585370000000  0.3924750000000 1.0
C      1  0.5498280000000  0.4145360000000  0.4783650000000 1.0
C      1  0.4591460000000  0.4088740000000  0.5217870000000 1.0
C      1  0.5241390000000  0.4845670000000  0.3967430000000 1.0
C      1  0.4931080000000  0.4800490000000  0.5046680000000 1.0
C      1  0.5408660000000  0.5311530000000  0.5756430000000 1.0
C      1  0.4503280000000  0.4989590000000  0.4832130000000 1.0
C      1  0.4808150000000  0.4745950000000  0.4357140000000 1.0
C      1  0.6171920000000  0.4689080000000  0.5510680000000 1.0
C      1  0.3851980000000  0.5340830000000  0.5838130000000 1.0
C      1  0.4231870000000  0.4976630000000  0.4772920000000 1.0
C      1  0.5758750000000  0.5457790000000  0.4224610000000 1.0
C      1  0.5788170000000  0.5418920000000  0.5025810000000 1.0
C      1  0.5075280000000  0.3950050000000  0.5340050000000 1.0
C      1  0.4947640000000  0.3976970000000  0.4502190000000 1.0
C      1  0.4471530000000  0.5509140000000  0.5015710000000 1.0
C      1  0.6210620000000  0.4981910000000  0.4993040000000 1.0
C      1  0.5847360000000  0.4378370000000  0.5694530000000 1.0
C      1  0.5873300000000  0.4776110000000  0.4368020000000 1.0
C      1  0.4764320000000  0.4282430000000  0.4089450000000 1.0
C      1  0.4809040000000  0.5559370000000  0.4926590000000 1.0
C      1  0.5821200000000  0.6036310000000  0.5361640000000 1.0
C      1  0.4853520000000  0.6179820000000  0.4788830000000 1.0
C      1  0.4830870000000  0.5696970000000  0.5419710000000 1.0
C      1  0.6386520000000  0.5304190000000  0.4397310000000 1.0
C      1  0.4684910000000  0.5129140000000  0.4671710000000 1.0
C      1  0.4402510000000  0.4030330000000  0.5003730000000 1.0
C      1  0.4487930000000  0.5814040000000  0.4431050000000 1.0
C      1  0.3767410000000  0.4867510000000  0.5662100000000 1.0
C      1  0.5033420000000  0.4358990000000  0.4161310000000 1.0
C      1  0.5292870000000  0.3961120000000  0.4873070000000 1.0
C      1  0.6069660000000  0.4890460000000  0.4541550000000 1.0
C      1  0.4572540000000  0.5605030000000  0.3995060000000 1.0
C      1  0.4820840000000  0.4639980000000  0.5595890000000 1.0
C      1  0.5042300000000  0.4097610000000  0.5788480000000 1.0
C      1  0.5336850000000  0.4659650000000  0.4389120000000 1.0
C      1  0.4506710000000  0.4890620000000  0.6001140000000 1.0
C      1  0.5888070000000  0.4373580000000  0.4719110000000 1.0
C      1  0.4754510000000  0.4980040000000  0.6107100000000 1.0
C      1  0.4657770000000  0.4029300000000  0.4503640000000 1.0
C      1  0.6187090000000  0.4953580000000  0.5460280000000 1.0
C      1  0.4061860000000  0.4753710000000  0.4200560000000 1.0
C      1  0.6494990000000  0.5540760000000  0.4380640000000 1.0
C      1  0.3518790000000  0.5145080000000  0.4618810000000 1.0
C      1  0.6246700000000  0.5084170000000  0.4445630000000 1.0
C      1  0.5090880000000  0.4217410000000  0.4414130000000 1.0
C      1  0.4351530000000  0.4856300000000  0.5763920000000 1.0
C      1  0.5490160000000  0.4661110000000  0.5932650000000 1.0
C      1  0.4292020000000  0.5940950000000  0.5261880000000 1.0
C      1  0.5962950000000  0.4559690000000  0.4927760000000 1.0
C      1  0.5148470000000  0.4663880000000  0.5970970000000 1.0
C      1  0.5423360000000  0.4902350000000  0.5088080000000 1.0
C      1  0.5176800000000  0.5861470000000  0.5165700000000 1.0
C      1  0.3978840000000  0.5458930000000  0.5014190000000 1.0
C      1  0.5201140000000  0.5128970000000  0.3909070000000 1.0
C      1  0.5257630000000  0.5102340000000  0.4642840000000 1.0
C      1  0.5531460000000  0.5549520000000  0.5767600000000 1.0
C      1  0.5210800000000  0.4065120000000  0.5124720000000 1.0
C      1  0.4408600000000  0.5959010000000  0.4678030000000 1.0
C      1  0.3905160000000  0.4772760000000  0.5433830000000 1.0
C      1  0.5554140000000  0.5571920000000  0.5047700000000 1.0
C      1  0.4553050000000  0.5965060000000  0.6042880000000 1.0
C      1  0.4012790000000  0.4678070000000  0.4465800000000 1.0
C      1  0.5627180000000  0.5021710000000  0.5270760000000 1.0
C      1  0.4552640000000  0.6047760000000  0.5178540000000 1.0
C      1  0.4666880000000  0.4460640000000  0.4755670000000 1.0
C      1  0.4831880000000  0.4487100000000  0.5351660000000 1.0
C      1  0.4786180000000  0.3976860000000  0.5682250000000 1.0
C      1  0.4747740000000  0.5705810000000  0.4462920000000 1.0
C      1  0.5137730000000  0.4373330000000  0.4651000000000 1.0
C      1  0.4983460000000  0.4813730000000  0.6180450000000 1.0
C      1  0.4153690000000  0.4187290000000  0.5032420000000 1.0
C      1  0.4934090000000  0.4396570000000  0.4839830000000 1.0
C      1  0.4501520000000  0.3967640000000  0.4738570000000 1.0
C      1  0.4787930000000  0.5239120000000  0.5442960000000 1.0
C      1  0.4379670000000  0.5671880000000  0.4199550000000 1.0
C      1  0.5104800000000  0.3839080000000  0.4696500000000 1.0
C      1  0.4865370000000  0.5290570000000  0.4823410000000 1.0
C      1  0.4093850000000  0.5239400000000  0.4145570000000 1.0
C      1  0.4308370000000  0.5702730000000  0.5430130000000 1.0
C      1  0.4095650000000  0.4336280000000  0.5274560000000 1.0
C      1  0.5822430000000  0.3992140000000  0.5088010000000 1.0
C      1  0.5707600000000  0.3937290000000  0.5331800000000 1.0
C      1  0.4379500000000  0.5846600000000  0.5888600000000 1.0
C      1  0.5794050000000  0.4506890000000  0.4467240000000 1.0
C      1  0.4461350000000  0.4400510000000  0.5799740000000 1.0
C      1  0.6087810000000  0.4800400000000  0.4818060000000 1.0
C      1  0.5587060000000  0.4502380000000  0.3879790000000 1.0
C      1  0.5115720000000  0.5178130000000  0.4879010000000 1.0
C      1  0.5042970000000  0.5989350000000  0.4688480000000 1.0
C      1  0.5984530000000  0.4482850000000  0.5460410000000 1.0
C      1  0.3878950000000  0.5714680000000  0.5116580000000 1.0
C      1  0.4121430000000  0.4978310000000  0.4040350000000 1.0
C      1  0.4591070000000  0.6096510000000  0.4879830000000 1.0
C      1  0.5973190000000  0.5493640000000  0.4837780000000 1.0
C      1  0.5574870000000  0.5825290000000  0.5735540000000 1.0
END
