TITL C-3623287-7182-912 -4.74978321951554e-07 125000 -268.167583831128 0 0 40 (Td) n - 1
REM
REM in /home/nfs/bkarasulu/CARBON/AIRSS/Generating-Clusters/LCBOP/Higher-Symm/SD-CG/FIRE-CG
REM
REM
REM
REM
REM
REM ./C.cell (b20cbc046b6831c77cfcea5457e17084)
REM AIRSS Version 0.9.1 bugfix July 2018 build 013d7b7c2542+ Fri, 06 Jul 2018 19:26:36 +0100
REM compiler GCC version 9.2.1 20190827 (Red Hat 9.2.1-1)
REM options -cpp -mtune=generic -march=x86-64 -g -O0 -fpre-include=/usr/include/finclude/math-vector-fortran.h
REM seed -286239059 1942372024 399165672 1814172046 -1415510351 -1609382444 -517427615 -478165771 -2051803940 292922096 1272214081 -380750229 -478361807 1286016568 -1019959388 -897021720 -746216365 -1161345818 -61319567 1084335305 -77127991 109363778 1305677942 -1358525828 1316704179 7179822 -140489425 275783161 688195366 -2057398181 -842695676 -1896713009 -1886269435
REM
CELL 1.54180   50.00000   50.00000   50.00000   90.00000   90.00000   90.00000
LATT -1
SFAC C  
C      1  0.4513990000000  0.5278120000000  0.5076370000000 1.0
C      1  0.5076780000000  0.4515340000000  0.5276360000000 1.0
C      1  0.5276770000000  0.5078120000000  0.4513580000000 1.0
C      1  0.4513990000000  0.4722710000000  0.4920940000000 1.0
C      1  0.5484140000000  0.4722710000000  0.5076370000000 1.0
C      1  0.5484140000000  0.5278120000000  0.4920940000000 1.0
C      1  0.5076780000000  0.5485480000000  0.4720950000000 1.0
C      1  0.4921350000000  0.5485480000000  0.5276360000000 1.0
C      1  0.4921350000000  0.4515340000000  0.4720950000000 1.0
C      1  0.5276770000000  0.4922700000000  0.5483730000000 1.0
C      1  0.4721360000000  0.4922700000000  0.4513580000000 1.0
C      1  0.4721360000000  0.5078120000000  0.5483730000000 1.0
C      1  0.4513990000000  0.5078120000000  0.5276360000000 1.0
C      1  0.5076780000000  0.5278120000000  0.4513580000000 1.0
C      1  0.5276770000000  0.4515340000000  0.5076370000000 1.0
C      1  0.4513990000000  0.4922700000000  0.4720950000000 1.0
C      1  0.5484140000000  0.5078120000000  0.4720950000000 1.0
C      1  0.5484140000000  0.4922700000000  0.5276360000000 1.0
C      1  0.5076780000000  0.4722710000000  0.5483730000000 1.0
C      1  0.4921350000000  0.5278120000000  0.5483730000000 1.0
C      1  0.4921350000000  0.4722710000000  0.4513580000000 1.0
C      1  0.5276770000000  0.5485480000000  0.4920940000000 1.0
C      1  0.4721360000000  0.4515340000000  0.4920940000000 1.0
C      1  0.4721360000000  0.5485480000000  0.5076370000000 1.0
C      1  0.4800900000000  0.4802240000000  0.5534690000000 1.0
C      1  0.4800900000000  0.5198580000000  0.4462620000000 1.0
C      1  0.5197240000000  0.4464380000000  0.4800490000000 1.0
C      1  0.4800900000000  0.5536450000000  0.4800490000000 1.0
C      1  0.5197240000000  0.4802240000000  0.4462620000000 1.0
C      1  0.5197240000000  0.5198580000000  0.5534690000000 1.0
C      1  0.5535100000000  0.5198580000000  0.5196820000000 1.0
C      1  0.5197240000000  0.5536450000000  0.5196820000000 1.0
C      1  0.5535100000000  0.4802240000000  0.4800490000000 1.0
C      1  0.4463030000000  0.4802240000000  0.5196820000000 1.0
C      1  0.4463030000000  0.5198580000000  0.4800490000000 1.0
C      1  0.4800900000000  0.4464380000000  0.5196820000000 1.0
C      1  0.5371180000000  0.4628300000000  0.4626540000000 1.0
C      1  0.4626950000000  0.5372530000000  0.4626540000000 1.0
C      1  0.4626950000000  0.4628300000000  0.5370770000000 1.0
C      1  0.5371180000000  0.5372530000000  0.5370770000000 1.0
END
