TITL C-3623283-6828-1835 -3.20170803150444e-07 125000 -539.799187363314 0 0 88 (C3) n - 1
REM
REM in /home/nfs/bkarasulu/CARBON/AIRSS/Generating-Clusters/LCBOP/Higher-Symm/SD-CG/FIRE-CG
REM
REM
REM
REM
REM
REM ./C.cell (b20cbc046b6831c77cfcea5457e17084)
REM AIRSS Version 0.9.1 bugfix July 2018 build 013d7b7c2542+ Fri, 06 Jul 2018 19:26:36 +0100
REM compiler GCC version 9.2.1 20190827 (Red Hat 9.2.1-1)
REM options -cpp -mtune=generic -march=x86-64 -g -O0 -fpre-include=/usr/include/finclude/math-vector-fortran.h
REM seed -224153791 604576463 158174536 -270219360 -289855836 -1134629150 -1233888946 -1275140369 -1380205169 1534176267 1430019989 -1648772606 -1245204183 -270944732 2091255870 -345155691 688236193 -1184059248 -689808605 -915451526 -2139201672 -1133438558 941899571 -1153551685 1503528645 -269798984 -335136520 -1379717847 -175103767 749816206 -1542943605 -2015989213 -259761064
REM
CELL 1.54180   50.00000   50.00000   50.00000   90.00000   90.00000   90.00000
LATT -1
SFAC C  
C      1  0.4681380000000  0.4422980000000  0.5701570000000 1.0
C      1  0.4417870000000  0.5705670000000  0.4681600000000 1.0
C      1  0.5700590000000  0.4685740000000  0.4418130000000 1.0
C      1  0.4689610000000  0.5540310000000  0.4330620000000 1.0
C      1  0.5298370000000  0.4439630000000  0.4289410000000 1.0
C      1  0.5315900000000  0.5581330000000  0.5701780000000 1.0
C      1  0.4435080000000  0.4293940000000  0.5299560000000 1.0
C      1  0.5576540000000  0.5706510000000  0.5315530000000 1.0
C      1  0.5535430000000  0.4334920000000  0.4690200000000 1.0
C      1  0.5701930000000  0.5320470000000  0.5576370000000 1.0
C      1  0.4330420000000  0.4694880000000  0.5536400000000 1.0
C      1  0.4288760000000  0.5303470000000  0.4435650000000 1.0
C      1  0.5498130000000  0.5668900000000  0.5049240000000 1.0
C      1  0.5664320000000  0.5054120000000  0.5498160000000 1.0
C      1  0.5049550000000  0.5503050000000  0.5664360000000 1.0
C      1  0.5440100000000  0.4401460000000  0.4944620000000 1.0
C      1  0.4519410000000  0.5657970000000  0.4939090000000 1.0
C      1  0.4495010000000  0.4335210000000  0.5027750000000 1.0
C      1  0.5652900000000  0.4943290000000  0.4519520000000 1.0
C      1  0.4330120000000  0.5031700000000  0.4495750000000 1.0
C      1  0.4396870000000  0.4949240000000  0.5440860000000 1.0
C      1  0.5026610000000  0.4499710000000  0.4330860000000 1.0
C      1  0.4944020000000  0.5444850000000  0.4397010000000 1.0
C      1  0.4938890000000  0.4524380000000  0.5653680000000 1.0
C      1  0.4667140000000  0.5053830000000  0.5484620000000 1.0
C      1  0.5048740000000  0.5488820000000  0.4667190000000 1.0
C      1  0.5484070000000  0.4671720000000  0.5049130000000 1.0
C      1  0.4590800000000  0.4919040000000  0.4437480000000 1.0
C      1  0.5388880000000  0.5045190000000  0.4466540000000 1.0
C      1  0.5401110000000  0.4939210000000  0.5541140000000 1.0
C      1  0.5040650000000  0.4471240000000  0.5389640000000 1.0
C      1  0.4934490000000  0.5545820000000  0.5401180000000 1.0
C      1  0.4914100000000  0.4441600000000  0.4591650000000 1.0
C      1  0.5540890000000  0.5405650000000  0.4934340000000 1.0
C      1  0.4436800000000  0.4595910000000  0.4915080000000 1.0
C      1  0.4466360000000  0.5394000000000  0.5041070000000 1.0
C      1  0.4866240000000  0.6032580000000  0.4996700000000 1.0
C      1  0.6027680000000  0.5001210000000  0.4866120000000 1.0
C      1  0.4996940000000  0.4871250000000  0.6028180000000 1.0
C      1  0.4859360000000  0.3986600000000  0.4985010000000 1.0
C      1  0.5138130000000  0.6036600000000  0.5001720000000 1.0
C      1  0.5128620000000  0.4006510000000  0.5009010000000 1.0
C      1  0.6031850000000  0.5006420000000  0.5138000000000 1.0
C      1  0.4001750000000  0.5013350000000  0.5129540000000 1.0
C      1  0.3981700000000  0.4989160000000  0.4860310000000 1.0
C      1  0.5007980000000  0.5133280000000  0.4002070000000 1.0
C      1  0.4983820000000  0.4864020000000  0.3982210000000 1.0
C      1  0.5002100000000  0.5143130000000  0.6032160000000 1.0
C      1  0.5713990000000  0.4676990000000  0.5217940000000 1.0
C      1  0.4672490000000  0.5222800000000  0.5714420000000 1.0
C      1  0.5217670000000  0.5718650000000  0.4672300000000 1.0
C      1  0.5744480000000  0.5354090000000  0.4749740000000 1.0
C      1  0.4232830000000  0.4616260000000  0.4718400000000 1.0
C      1  0.4280110000000  0.5373340000000  0.5253740000000 1.0
C      1  0.4611080000000  0.4722220000000  0.4233640000000 1.0
C      1  0.5368100000000  0.5257720000000  0.4280150000000 1.0
C      1  0.5349690000000  0.4754730000000  0.5744880000000 1.0
C      1  0.5253210000000  0.4284870000000  0.5368870000000 1.0
C      1  0.4749950000000  0.5749500000000  0.5349710000000 1.0
C      1  0.4717320000000  0.4237740000000  0.4612160000000 1.0
C      1  0.5091000000000  0.4686010000000  0.5835860000000 1.0
C      1  0.4681080000000  0.5840290000000  0.5091000000000 1.0
C      1  0.5835280000000  0.5095340000000  0.4680990000000 1.0
C      1  0.5105400000000  0.5318870000000  0.4193770000000 1.0
C      1  0.4873650000000  0.4657910000000  0.4143940000000 1.0
C      1  0.4906750000000  0.5322530000000  0.5835630000000 1.0
C      1  0.4653160000000  0.4148210000000  0.4874830000000 1.0
C      1  0.5317510000000  0.5840040000000  0.4906420000000 1.0
C      1  0.5314240000000  0.4198320000000  0.5106210000000 1.0
C      1  0.5835390000000  0.4911200000000  0.5317550000000 1.0
C      1  0.4193640000000  0.5110710000000  0.5314990000000 1.0
C      1  0.4143220000000  0.4878860000000  0.4654100000000 1.0
C      1  0.5199940000000  0.4958790000000  0.5333540000000 1.0
C      1  0.4954010000000  0.5338090000000  0.5200150000000 1.0
C      1  0.5333200000000  0.5204590000000  0.4954110000000 1.0
C      1  0.5126530000000  0.4960420000000  0.4557260000000 1.0
C      1  0.4852000000000  0.4975510000000  0.4552410000000 1.0
C      1  0.4925770000000  0.5073870000000  0.5331000000000 1.0
C      1  0.4970680000000  0.4556720000000  0.4852740000000 1.0
C      1  0.5068950000000  0.5335380000000  0.4925910000000 1.0
C      1  0.4955740000000  0.4561760000000  0.5127260000000 1.0
C      1  0.5330600000000  0.4930440000000  0.5069240000000 1.0
C      1  0.4556880000000  0.5131580000000  0.4956290000000 1.0
C      1  0.4551900000000  0.4857060000000  0.4971420000000 1.0
C      1  0.4438100000000  0.5541300000000  0.4453890000000 1.0
C      1  0.5536280000000  0.4458010000000  0.4438610000000 1.0
C      1  0.4453560000000  0.4443300000000  0.5537360000000 1.0
C      1  0.5554910000000  0.5559550000000  0.5554650000000 1.0
END
