TITL C-3623283-6828-1345 4615.4544980578 125000 -707.306097027183 0 0 120 (C1) n - 1
REM
REM in /home/nfs/bkarasulu/CARBON/AIRSS/Generating-Clusters/LCBOP/Higher-Symm/SD-CG/FIRE-CG
REM
REM
REM
REM
REM
REM ./C.cell (b20cbc046b6831c77cfcea5457e17084)
REM AIRSS Version 0.9.1 bugfix July 2018 build 013d7b7c2542+ Fri, 06 Jul 2018 19:26:36 +0100
REM compiler GCC version 9.2.1 20190827 (Red Hat 9.2.1-1)
REM options -cpp -mtune=generic -march=x86-64 -g -O0 -fpre-include=/usr/include/finclude/math-vector-fortran.h
REM seed 1983855948 -421366976 1895610791 -421077636 -531738498 1631745078 2120689302 634393237 649573316 -1547128211 -1239885093 -1429555887 959770463 -361783638 1354385895 -1332257927 975973377 -804006577 133848529 1995070478 -739570603 -718730569 -501233401 -1647097021 -2100816025 -1474401391 1001230329 -373263092 -1123529987 -1871558303 206038824 -1681565341 1293397999
REM
CELL 1.54180   50.00000   50.00000   50.00000   90.00000   90.00000   90.00000
LATT -1
SFAC C  
C      1  0.4689320000000  0.4620540000000  0.5115990000000 1.0
C      1  0.5097540000000  0.4617620000000  0.5312300000000 1.0
C      1  0.5296260000000  0.4619350000000  0.4871590000000 1.0
C      1  0.4888420000000  0.4627390000000  0.4675860000000 1.0
C      1  0.4681830000000  0.5371290000000  0.5108530000000 1.0
C      1  0.5121430000000  0.5367760000000  0.5310680000000 1.0
C      1  0.5315820000000  0.5371350000000  0.4901970000000 1.0
C      1  0.4875360000000  0.5379310000000  0.4699910000000 1.0
C      1  0.4879050000000  0.4212250000000  0.4277480000000 1.0
C      1  0.4324450000000  0.4161580000000  0.5062260000000 1.0
C      1  0.5110830000000  0.4194090000000  0.5683870000000 1.0
C      1  0.5698760000000  0.4193770000000  0.4923630000000 1.0
C      1  0.4927960000000  0.5813390000000  0.4319320000000 1.0
C      1  0.4301460000000  0.5812120000000  0.5119080000000 1.0
C      1  0.5075330000000  0.5790830000000  0.5714480000000 1.0
C      1  0.5690860000000  0.5797570000000  0.4898210000000 1.0
C      1  0.5719540000000  0.5366990000000  0.4425190000000 1.0
C      1  0.4417740000000  0.5449460000000  0.4281290000000 1.0
C      1  0.4274160000000  0.5377190000000  0.5584150000000 1.0
C      1  0.5573980000000  0.5407150000000  0.5736920000000 1.0
C      1  0.5720500000000  0.4565800000000  0.4419890000000 1.0
C      1  0.4413400000000  0.4649760000000  0.4272480000000 1.0
C      1  0.4261400000000  0.4547060000000  0.5560560000000 1.0
C      1  0.5593170000000  0.4604170000000  0.5710970000000 1.0
C      1  0.3970200000000  0.5149840000000  0.5286820000000 1.0
C      1  0.5303080000000  0.5146280000000  0.6066600000000 1.0
C      1  0.6052560000000  0.5140640000000  0.4717760000000 1.0
C      1  0.4701130000000  0.5148720000000  0.4026040000000 1.0
C      1  0.3935280000000  0.4778340000000  0.5275300000000 1.0
C      1  0.5296010000000  0.4878380000000  0.5974330000000 1.0
C      1  0.5969960000000  0.4869660000000  0.4706140000000 1.0
C      1  0.4700080000000  0.4879830000000  0.3936450000000 1.0
C      1  0.4549290000000  0.5901500000000  0.5233770000000 1.0
C      1  0.5207400000000  0.5920630000000  0.5496590000000 1.0
C      1  0.5450200000000  0.5899860000000  0.4778000000000 1.0
C      1  0.4801790000000  0.5936820000000  0.4545080000000 1.0
C      1  0.4548200000000  0.4049560000000  0.5200510000000 1.0
C      1  0.5227110000000  0.4089540000000  0.5441990000000 1.0
C      1  0.5471870000000  0.4069240000000  0.4800690000000 1.0
C      1  0.4762830000000  0.4105920000000  0.4518020000000 1.0
C      1  0.5310190000000  0.5094560000000  0.4985980000000 1.0
C      1  0.4808550000000  0.5103670000000  0.4752600000000 1.0
C      1  0.4683250000000  0.5098350000000  0.5014120000000 1.0
C      1  0.5184740000000  0.5093830000000  0.5247470000000 1.0
C      1  0.5240760000000  0.4895880000000  0.4810650000000 1.0
C      1  0.4979900000000  0.4901660000000  0.4683440000000 1.0
C      1  0.4749820000000  0.4894150000000  0.5183410000000 1.0
C      1  0.5010440000000  0.4892950000000  0.5310910000000 1.0
C      1  0.5285280000000  0.5386700000000  0.4424470000000 1.0
C      1  0.4411260000000  0.5494110000000  0.4713700000000 1.0
C      1  0.4708680000000  0.5371710000000  0.5584240000000 1.0
C      1  0.5586170000000  0.5473780000000  0.5307090000000 1.0
C      1  0.5289070000000  0.4512690000000  0.4407070000000 1.0
C      1  0.4411570000000  0.4618960000000  0.4706230000000 1.0
C      1  0.4694210000000  0.4509670000000  0.5579020000000 1.0
C      1  0.5576450000000  0.4604330000000  0.5276830000000 1.0
C      1  0.5624070000000  0.5158360000000  0.5493540000000 1.0
C      1  0.5494440000000  0.5092660000000  0.4385490000000 1.0
C      1  0.4363790000000  0.5187970000000  0.4514680000000 1.0
C      1  0.4492930000000  0.5086510000000  0.5612230000000 1.0
C      1  0.5623890000000  0.4888860000000  0.5481690000000 1.0
C      1  0.5483450000000  0.4823060000000  0.4366470000000 1.0
C      1  0.4377060000000  0.4918230000000  0.4501630000000 1.0
C      1  0.4487570000000  0.4815230000000  0.5610910000000 1.0
C      1  0.4108230000000  0.5378180000000  0.5356450000000 1.0
C      1  0.5344970000000  0.5376360000000  0.5900580000000 1.0
C      1  0.5885860000000  0.5365180000000  0.4653790000000 1.0
C      1  0.4652310000000  0.5407770000000  0.4128250000000 1.0
C      1  0.4102390000000  0.4562580000000  0.5327230000000 1.0
C      1  0.5360130000000  0.4624060000000  0.5868790000000 1.0
C      1  0.5874740000000  0.4608630000000  0.4653330000000 1.0
C      1  0.4638010000000  0.4653090000000  0.4100800000000 1.0
C      1  0.5523760000000  0.4345800000000  0.4392170000000 1.0
C      1  0.4381070000000  0.4440040000000  0.4479670000000 1.0
C      1  0.4465960000000  0.4335210000000  0.5597780000000 1.0
C      1  0.5615130000000  0.4410510000000  0.5495500000000 1.0
C      1  0.5507920000000  0.5571380000000  0.4394100000000 1.0
C      1  0.4393190000000  0.5665620000000  0.4482370000000 1.0
C      1  0.4492970000000  0.5567240000000  0.5617720000000 1.0
C      1  0.5605730000000  0.5633480000000  0.5546340000000 1.0
C      1  0.5268820000000  0.5189800000000  0.6341530000000 1.0
C      1  0.6316860000000  0.5192780000000  0.4795460000000 1.0
C      1  0.4823530000000  0.4783940000000  0.3418560000000 1.0
C      1  0.3645410000000  0.5084390000000  0.5170860000000 1.0
C      1  0.5235050000000  0.5233850000000  0.6596160000000 1.0
C      1  0.6560410000000  0.5244950000000  0.4872140000000 1.0
C      1  0.4762020000000  0.4832180000000  0.3667170000000 1.0
C      1  0.3664940000000  0.4801290000000  0.5179400000000 1.0
C      1  0.4896750000000  0.4024820000000  0.4753120000000 1.0
C      1  0.4808420000000  0.4013570000000  0.5093550000000 1.0
C      1  0.5097650000000  0.4022420000000  0.5193150000000 1.0
C      1  0.5220480000000  0.4022570000000  0.4922280000000 1.0
C      1  0.4916970000000  0.5975030000000  0.4803690000000 1.0
C      1  0.4791210000000  0.5970620000000  0.5095570000000 1.0
C      1  0.5096560000000  0.5975670000000  0.5245310000000 1.0
C      1  0.5203220000000  0.5969730000000  0.4904210000000 1.0
C      1  0.5507650000000  0.4154330000000  0.5449110000000 1.0
C      1  0.5496360000000  0.4095370000000  0.4516550000000 1.0
C      1  0.4484840000000  0.4180600000000  0.4516160000000 1.0
C      1  0.4506620000000  0.4081780000000  0.5482560000000 1.0
C      1  0.5489990000000  0.5888270000000  0.5527180000000 1.0
C      1  0.5463680000000  0.5829470000000  0.4498480000000 1.0
C      1  0.4517790000000  0.5915410000000  0.4513950000000 1.0
C      1  0.4546700000000  0.5823280000000  0.5511280000000 1.0
C      1  0.5853840000000  0.5589660000000  0.4829850000000 1.0
C      1  0.4850330000000  0.5612030000000  0.4153140000000 1.0
C      1  0.4134780000000  0.5607230000000  0.5186750000000 1.0
C      1  0.5147630000000  0.5581140000000  0.5871530000000 1.0
C      1  0.5859080000000  0.4400190000000  0.4847620000000 1.0
C      1  0.4811860000000  0.4426150000000  0.4122500000000 1.0
C      1  0.4149900000000  0.4357140000000  0.5134000000000 1.0
C      1  0.5180170000000  0.4402080000000  0.5847130000000 1.0
C      1  0.5145470000000  0.4493790000000  0.4649940000000 1.0
C      1  0.4655510000000  0.4584590000000  0.4839440000000 1.0
C      1  0.4837590000000  0.4488610000000  0.5335720000000 1.0
C      1  0.5329260000000  0.4575390000000  0.5147050000000 1.0
C      1  0.5152290000000  0.5416950000000  0.4669280000000 1.0
C      1  0.4656830000000  0.5507790000000  0.4853400000000 1.0
C      1  0.4845230000000  0.5407150000000  0.5342130000000 1.0
C      1  0.5342860000000  0.5498380000000  0.5163640000000 1.0
END
