TITL C-3623285-6872-319 -4.42380886609149e-07 125000 -678.459059357369 0 0 108 (D3) n - 1
REM
REM in /home/nfs/bkarasulu/CARBON/AIRSS/Generating-Clusters/LCBOP/Higher-Symm/SD-CG/FIRE-CG
REM
REM
REM
REM
REM
REM ./C.cell (b20cbc046b6831c77cfcea5457e17084)
REM AIRSS Version 0.9.1 bugfix July 2018 build 013d7b7c2542+ Fri, 06 Jul 2018 19:26:36 +0100
REM compiler GCC version 9.2.1 20190827 (Red Hat 9.2.1-1)
REM options -cpp -mtune=generic -march=x86-64 -g -O0 -fpre-include=/usr/include/finclude/math-vector-fortran.h
REM seed -169124213 360703685 -1056864191 1786677359 2017629963 168432273 82399916 1068951375 -1018301357 -878041776 407514263 -177021767 73499829 -1999200879 358398063 1268919216 -1622699099 100558143 925873515 -1177802579 967636712 563952407 -59714674 -2132279113 293496486 -3111833 514147509 1469735912 1976178704 741104661 1942173197 720521742 1764563531
REM
CELL 1.54180   50.00000   50.00000   50.00000   90.00000   90.00000   90.00000
LATT -1
SFAC C  
C      1  0.5386740000000  0.4865560000000  0.4882750000000 1.0
C      1  0.5392240000000  0.5146960000000  0.4876500000000 1.0
C      1  0.4923060000000  0.5402150000000  0.4882780000000 1.0
C      1  0.4676610000000  0.5266220000000  0.4876520000000 1.0
C      1  0.4690200000000  0.4732300000000  0.4882760000000 1.0
C      1  0.4931140000000  0.4586830000000  0.4876480000000 1.0
C      1  0.4613260000000  0.4865570000000  0.5117240000000 1.0
C      1  0.4607760000000  0.5146970000000  0.5123510000000 1.0
C      1  0.5076960000000  0.5402140000000  0.5117250000000 1.0
C      1  0.5323400000000  0.5266200000000  0.5123500000000 1.0
C      1  0.5309790000000  0.4732280000000  0.5117220000000 1.0
C      1  0.5068840000000  0.4586820000000  0.5123480000000 1.0
C      1  0.4856690000000  0.4175120000000  0.5535190000000 1.0
C      1  0.5594240000000  0.4457050000000  0.5495920000000 1.0
C      1  0.5786020000000  0.5288280000000  0.5535230000000 1.0
C      1  0.5173090000000  0.5786060000000  0.5495990000000 1.0
C      1  0.4357330000000  0.5536520000000  0.5535270000000 1.0
C      1  0.4232710000000  0.4756830000000  0.5495960000000 1.0
C      1  0.5143280000000  0.4175170000000  0.4464730000000 1.0
C      1  0.4405740000000  0.4457110000000  0.4504030000000 1.0
C      1  0.4213990000000  0.5288360000000  0.4464800000000 1.0
C      1  0.4826940000000  0.5786110000000  0.4504080000000 1.0
C      1  0.5642690000000  0.5536550000000  0.4464780000000 1.0
C      1  0.5767280000000  0.4756850000000  0.4504010000000 1.0
C      1  0.5403000000000  0.4848460000000  0.5346660000000 1.0
C      1  0.5410300000000  0.5127670000000  0.5349450000000 1.0
C      1  0.4929740000000  0.5424750000000  0.5346690000000 1.0
C      1  0.4684280000000  0.5291470000000  0.5349470000000 1.0
C      1  0.4667290000000  0.4726750000000  0.5346670000000 1.0
C      1  0.4905440000000  0.4580820000000  0.5349430000000 1.0
C      1  0.4597000000000  0.4848500000000  0.4653330000000 1.0
C      1  0.4589700000000  0.5127710000000  0.4650560000000 1.0
C      1  0.5070280000000  0.5424780000000  0.4653350000000 1.0
C      1  0.5315730000000  0.5291490000000  0.4650560000000 1.0
C      1  0.5332700000000  0.4726770000000  0.4653310000000 1.0
C      1  0.5094550000000  0.4580850000000  0.4650530000000 1.0
C      1  0.4757720000000  0.4819790000000  0.4225640000000 1.0
C      1  0.5029670000000  0.4695170000000  0.4216870000000 1.0
C      1  0.5277210000000  0.4880350000000  0.4225630000000 1.0
C      1  0.5249160000000  0.5178180000000  0.4216890000000 1.0
C      1  0.4965020000000  0.5299970000000  0.4225660000000 1.0
C      1  0.4721120000000  0.5126760000000  0.4216900000000 1.0
C      1  0.5242280000000  0.4819710000000  0.5774340000000 1.0
C      1  0.4970320000000  0.4695100000000  0.5783100000000 1.0
C      1  0.4722780000000  0.4880290000000  0.5774360000000 1.0
C      1  0.4750840000000  0.5178120000000  0.5783130000000 1.0
C      1  0.5034990000000  0.5299890000000  0.5774370000000 1.0
C      1  0.5278890000000  0.5126680000000  0.5783120000000 1.0
C      1  0.5968550000000  0.5534560000000  0.4866660000000 1.0
C      1  0.5013210000000  0.6099640000000  0.4865860000000 1.0
C      1  0.4052790000000  0.5571520000000  0.4866700000000 1.0
C      1  0.4041080000000  0.4461630000000  0.4865800000000 1.0
C      1  0.4978660000000  0.3893940000000  0.4866600000000 1.0
C      1  0.5945700000000  0.4438750000000  0.4865760000000 1.0
C      1  0.4031470000000  0.5534580000000  0.5133390000000 1.0
C      1  0.4986840000000  0.6099620000000  0.5134240000000 1.0
C      1  0.5947230000000  0.5571470000000  0.5133350000000 1.0
C      1  0.5958900000000  0.4461580000000  0.5134150000000 1.0
C      1  0.5021300000000  0.3893930000000  0.5133290000000 1.0
C      1  0.4054280000000  0.4438770000000  0.5134180000000 1.0
C      1  0.5433240000000  0.4686930000000  0.5582500000000 1.0
C      1  0.5505600000000  0.5225100000000  0.5603970000000 1.0
C      1  0.5054500000000  0.5531680000000  0.5582540000000 1.0
C      1  0.4552250000000  0.5325260000000  0.5603990000000 1.0
C      1  0.4512290000000  0.4781310000000  0.5582520000000 1.0
C      1  0.4942190000000  0.4449560000000  0.5603940000000 1.0
C      1  0.4566740000000  0.4687000000000  0.4417470000000 1.0
C      1  0.4494410000000  0.5225180000000  0.4396050000000 1.0
C      1  0.4945520000000  0.5531740000000  0.4417510000000 1.0
C      1  0.5447760000000  0.5325300000000  0.4396040000000 1.0
C      1  0.5487700000000  0.4781340000000  0.4417460000000 1.0
C      1  0.5057790000000  0.4449610000000  0.4396010000000 1.0
C      1  0.5988700000000  0.5008130000000  0.4898980000000 1.0
C      1  0.5508890000000  0.5867890000000  0.4832730000000 1.0
C      1  0.4498610000000  0.5852190000000  0.4899050000000 1.0
C      1  0.3993940000000  0.5006780000000  0.4832720000000 1.0
C      1  0.4512680000000  0.4139700000000  0.4898970000000 1.0
C      1  0.5497160000000  0.4125350000000  0.4832650000000 1.0
C      1  0.4011300000000  0.5008150000000  0.5101020000000 1.0
C      1  0.4491140000000  0.5867900000000  0.5167350000000 1.0
C      1  0.5501420000000  0.5852160000000  0.5101030000000 1.0
C      1  0.6006060000000  0.5006730000000  0.5167280000000 1.0
C      1  0.5487290000000  0.4139670000000  0.5100950000000 1.0
C      1  0.4502810000000  0.4125350000000  0.5167270000000 1.0
C      1  0.5021180000000  0.3991560000000  0.5387010000000 1.0
C      1  0.5855510000000  0.4499220000000  0.5382330000000 1.0
C      1  0.5862750000000  0.5522530000000  0.5387060000000 1.0
C      1  0.5005930000000  0.5991250000000  0.5382420000000 1.0
C      1  0.4116100000000  0.5485860000000  0.5387100000000 1.0
C      1  0.4138590000000  0.4509480000000  0.5382370000000 1.0
C      1  0.4978790000000  0.3991590000000  0.4612900000000 1.0
C      1  0.4144470000000  0.4499290000000  0.4617620000000 1.0
C      1  0.4137270000000  0.5522590000000  0.4612990000000 1.0
C      1  0.4994110000000  0.5991280000000  0.4617670000000 1.0
C      1  0.5883920000000  0.5485870000000  0.4612950000000 1.0
C      1  0.5861400000000  0.4509480000000  0.4617580000000 1.0
C      1  0.5420610000000  0.5792800000000  0.5352300000000 1.0
C      1  0.4469880000000  0.5777610000000  0.5421900000000 1.0
C      1  0.4103100000000  0.4967820000000  0.5352290000000 1.0
C      1  0.4591630000000  0.4152070000000  0.5421820000000 1.0
C      1  0.5476310000000  0.4239320000000  0.5352230000000 1.0
C      1  0.5938510000000  0.5070270000000  0.5421840000000 1.0
C      1  0.4579420000000  0.5792850000000  0.4647770000000 1.0
C      1  0.5530140000000  0.5777630000000  0.4578170000000 1.0
C      1  0.5896890000000  0.4967820000000  0.4647710000000 1.0
C      1  0.5408340000000  0.4152090000000  0.4578100000000 1.0
C      1  0.4523660000000  0.4239370000000  0.4647700000000 1.0
C      1  0.4061490000000  0.5070340000000  0.4578170000000 1.0
END
