TITL C-3623284-6838-777 0.121697525334175 125000 -525.320156672062 0 0 86 (D3) n - 1
REM
REM in /home/nfs/bkarasulu/CARBON/AIRSS/Generating-Clusters/LCBOP/Higher-Symm/SD-CG/FIRE-CG
REM
REM
REM
REM
REM
REM ./C.cell (b20cbc046b6831c77cfcea5457e17084)
REM AIRSS Version 0.9.1 bugfix July 2018 build 013d7b7c2542+ Fri, 06 Jul 2018 19:26:36 +0100
REM compiler GCC version 9.2.1 20190827 (Red Hat 9.2.1-1)
REM options -cpp -mtune=generic -march=x86-64 -g -O0 -fpre-include=/usr/include/finclude/math-vector-fortran.h
REM seed -853464869 -655250595 1981333098 1024808794 1349060077 -1279341963 30992124 496146812 -2053729346 -692908248 -1597483730 1877718705 -560512004 -630394497 49229765 -800140397 -24296929 1684504298 230417695 -1317195119 509751699 -2134343186 -1812467872 -1248078546 1626812002 -377021295 1033517638 -1188581824 -1141538836 683289239 -613928724 302067468 544682643
REM
CELL 1.54180   50.00000   50.00000   50.00000   90.00000   90.00000   90.00000
LATT -1
SFAC C  
C      1  0.4189540000000  0.4543030000000  0.5299890000000 1.0
C      1  0.5007270000000  0.5929030000000  0.5299890000000 1.0
C      1  0.5798710000000  0.4527850000000  0.5299900000000 1.0
C      1  0.4189320000000  0.5457270000000  0.4717880000000 1.0
C      1  0.5007070000000  0.4070540000000  0.4717880000000 1.0
C      1  0.5799130000000  0.5472100000000  0.4717880000000 1.0
C      1  0.5594220000000  0.4687070000000  0.4710010000000 1.0
C      1  0.4429670000000  0.4640510000000  0.4710010000000 1.0
C      1  0.4971630000000  0.5672320000000  0.4710010000000 1.0
C      1  0.5593760000000  0.5313670000000  0.5307280000000 1.0
C      1  0.4429210000000  0.5358620000000  0.5307280000000 1.0
C      1  0.4972550000000  0.4327610000000  0.5307280000000 1.0
C      1  0.4443210000000  0.5738600000000  0.4457830000000 1.0
C      1  0.5915830000000  0.5111560000000  0.4457830000000 1.0
C      1  0.4636490000000  0.4149750000000  0.4457830000000 1.0
C      1  0.4444040000000  0.4262570000000  0.5560310000000 1.0
C      1  0.5914340000000  0.4888480000000  0.5560310000000 1.0
C      1  0.4637140000000  0.5848850000000  0.5560310000000 1.0
C      1  0.4467460000000  0.5865090000000  0.5771770000000 1.0
C      1  0.6013240000000  0.5027310000000  0.5771770000000 1.0
C      1  0.4514810000000  0.4107510000000  0.5771770000000 1.0
C      1  0.4466570000000  0.4132620000000  0.4246640000000 1.0
C      1  0.6015620000000  0.4972970000000  0.4246640000000 1.0
C      1  0.4513340000000  0.5894310000000  0.4246640000000 1.0
C      1  0.4646710000000  0.5180650000000  0.5305970000000 1.0
C      1  0.5330880000000  0.5214290000000  0.5305970000000 1.0
C      1  0.5017930000000  0.4604960000000  0.5305970000000 1.0
C      1  0.4647420000000  0.4818250000000  0.4710890000000 1.0
C      1  0.5331420000000  0.4786770000000  0.4710890000000 1.0
C      1  0.5016680000000  0.5394880000000  0.4710890000000 1.0
C      1  0.4998190000000  0.5270590000000  0.4962900000000 1.0
C      1  0.5233030000000  0.4864930000000  0.4962900000000 1.0
C      1  0.4764300000000  0.4864380000000  0.4962900000000 1.0
C      1  0.4999130000000  0.4729320000000  0.5054040000000 1.0
C      1  0.5232580000000  0.5135830000000  0.5054040000000 1.0
C      1  0.4763810000000  0.5134750000000  0.5054040000000 1.0
C      1  0.4791550000000  0.5893080000000  0.5110930000000 1.0
C      1  0.5875440000000  0.4732640000000  0.5110930000000 1.0
C      1  0.4328530000000  0.4374180000000  0.5110930000000 1.0
C      1  0.4791530000000  0.4106380000000  0.4907080000000 1.0
C      1  0.5875860000000  0.5267510000000  0.4907080000000 1.0
C      1  0.4328130000000  0.5626010000000  0.4907080000000 1.0
C      1  0.4771100000000  0.4937410000000  0.4494960000000 1.0
C      1  0.5058040000000  0.5228190000000  0.4494960000000 1.0
C      1  0.5166380000000  0.4834310000000  0.4494960000000 1.0
C      1  0.4771270000000  0.5061480000000  0.5522350000000 1.0
C      1  0.5058850000000  0.4772410000000  0.5522350000000 1.0
C      1  0.5165400000000  0.5166010000000  0.5522350000000 1.0
C      1  0.4509660000000  0.4214640000000  0.5283420000000 1.0
C      1  0.4562810000000  0.5815980000000  0.5283420000000 1.0
C      1  0.5923040000000  0.4969280000000  0.5283420000000 1.0
C      1  0.4509010000000  0.5786030000000  0.4734770000000 1.0
C      1  0.4562500000000  0.4183020000000  0.4734770000000 1.0
C      1  0.5924010000000  0.5030850000000  0.4734770000000 1.0
C      1  0.5148110000000  0.4503390000000  0.4149350000000 1.0
C      1  0.4493660000000  0.5118700000000  0.4149350000000 1.0
C      1  0.5353760000000  0.5377820000000  0.4149350000000 1.0
C      1  0.5149660000000  0.5496780000000  0.5868840000000 1.0
C      1  0.4492670000000  0.4882460000000  0.5868840000000 1.0
C      1  0.5353180000000  0.4620660000000  0.5868840000000 1.0
C      1  0.5077140000000  0.5734430000000  0.5768080000000 1.0
C      1  0.5595250000000  0.4564640000000  0.5768090000000 1.0
C      1  0.4323130000000  0.4700830000000  0.5768080000000 1.0
C      1  0.5075970000000  0.4265500000000  0.4249780000000 1.0
C      1  0.5595840000000  0.5434280000000  0.4249780000000 1.0
C      1  0.4323710000000  0.5300120000000  0.4249770000000 1.0
C      1  0.4927960000000  0.4132510000000  0.4445100000000 1.0
C      1  0.4282540000000  0.5494790000000  0.4445100000000 1.0
C      1  0.5785020000000  0.5372600000000  0.4445100000000 1.0
C      1  0.4928590000000  0.5866780000000  0.5572730000000 1.0
C      1  0.4282790000000  0.4506010000000  0.5572730000000 1.0
C      1  0.5784140000000  0.4627120000000  0.5572740000000 1.0
C      1  0.4395450000000  0.5609070000000  0.5181460000000 1.0
C      1  0.5827530000000  0.5217680000000  0.5181460000000 1.0
C      1  0.4772540000000  0.4173150000000  0.5181460000000 1.0
C      1  0.4395540000000  0.4390410000000  0.4836440000000 1.0
C      1  0.5827880000000  0.4782570000000  0.4836440000000 1.0
C      1  0.4772100000000  0.5826930000000  0.4836440000000 1.0
C      1  0.5120990000000  0.5241970000000  0.4222560000000 1.0
C      1  0.5146850000000  0.4772890000000  0.4222560000000 1.0
C      1  0.4727690000000  0.4985040000000  0.4222560000000 1.0
C      1  0.5120700000000  0.4757030000000  0.5795880000000 1.0
C      1  0.5147790000000  0.5227260000000  0.5795880000000 1.0
C      1  0.4727020000000  0.5015610000000  0.5795880000000 1.0
C      1  0.4998500000000  0.4999970000000  0.5909240000000 1.0
C      1  0.4998510000000  0.4999970000000  0.4108200000000 1.0
END
