TITL C-3623289-7120-1769 -3.40815243571424e-07 125000 -756.139964913892 0 0 120 (C1) n - 1
REM
REM in /home/nfs/bkarasulu/CARBON/AIRSS/Generating-Clusters/LCBOP/Higher-Symm/SD-CG/FIRE-CG
REM
REM
REM
REM
REM
REM ./C.cell (b20cbc046b6831c77cfcea5457e17084)
REM AIRSS Version 0.9.1 bugfix July 2018 build 013d7b7c2542+ Fri, 06 Jul 2018 19:26:36 +0100
REM compiler GCC version 9.2.1 20190827 (Red Hat 9.2.1-1)
REM options -cpp -mtune=generic -march=x86-64 -g -O0 -fpre-include=/usr/include/finclude/math-vector-fortran.h
REM seed -41893600 -2125608130 -868858629 -1465712722 -1881399863 1536645055 -775994245 997955699 -1556017344 -955938584 633469464 1166706065 -1235069414 -1286168578 197095408 -1230432368 2085648028 756232870 -1165261740 357115314 -817875955 -264912461 480971965 -1608013254 2121224927 -593466119 -1618728786 -1630344648 1675869274 1762985130 -1497758333 -1341224088 -23963316
REM
CELL 1.54180   50.00000   50.00000   50.00000   90.00000   90.00000   90.00000
LATT -1
SFAC C  
C      1  0.4973470000000  0.5240230000000  0.4410510000000 1.0
C      1  0.4743770000000  0.5064440000000  0.4475820000000 1.0
C      1  0.4863450000000  0.4794650000000  0.4413440000000 1.0
C      1  0.5150080000000  0.4791180000000  0.4493860000000 1.0
C      1  0.5231670000000  0.5093120000000  0.4479210000000 1.0
C      1  0.5010850000000  0.4753500000000  0.5968740000000 1.0
C      1  0.5238180000000  0.4930650000000  0.5965070000000 1.0
C      1  0.5139910000000  0.5202230000000  0.5972050000000 1.0
C      1  0.4851170000000  0.5193010000000  0.5973630000000 1.0
C      1  0.4771410000000  0.4915010000000  0.5973920000000 1.0
C      1  0.4319390000000  0.5158610000000  0.4309320000000 1.0
C      1  0.4643450000000  0.4407830000000  0.4301300000000 1.0
C      1  0.5456680000000  0.4474890000000  0.4315890000000 1.0
C      1  0.5641960000000  0.5266240000000  0.4319650000000 1.0
C      1  0.4942030000000  0.5684580000000  0.4302220000000 1.0
C      1  0.4441390000000  0.5656500000000  0.4480670000000 1.0
C      1  0.4200950000000  0.4669150000000  0.4478860000000 1.0
C      1  0.5066650000000  0.4139130000000  0.4480490000000 1.0
C      1  0.5846730000000  0.4792680000000  0.4482910000000 1.0
C      1  0.5452790000000  0.5735430000000  0.4482030000000 1.0
C      1  0.5325530000000  0.6016170000000  0.4895560000000 1.0
C      1  0.4141220000000  0.5632180000000  0.4895510000000 1.0
C      1  0.4132680000000  0.4373190000000  0.4894040000000 1.0
C      1  0.5328680000000  0.3978500000000  0.4892910000000 1.0
C      1  0.6071140000000  0.4999290000000  0.4892760000000 1.0
C      1  0.5691590000000  0.5300150000000  0.5024050000000 1.0
C      1  0.4930560000000  0.5740100000000  0.5030980000000 1.0
C      1  0.4271210000000  0.5164520000000  0.5021600000000 1.0
C      1  0.4614730000000  0.4365660000000  0.5028180000000 1.0
C      1  0.5491150000000  0.4434680000000  0.5018630000000 1.0
C      1  0.5358760000000  0.4075220000000  0.5362020000000 1.0
C      1  0.5990660000000  0.5059230000000  0.5360340000000 1.0
C      1  0.5251870000000  0.5958510000000  0.5366730000000 1.0
C      1  0.4167610000000  0.5531050000000  0.5364610000000 1.0
C      1  0.4229650000000  0.4377820000000  0.5364940000000 1.0
C      1  0.4372170000000  0.4492290000000  0.4333820000000 1.0
C      1  0.5292540000000  0.4240770000000  0.4335690000000 1.0
C      1  0.5814480000000  0.5039180000000  0.4340920000000 1.0
C      1  0.5211350000000  0.5774140000000  0.4334860000000 1.0
C      1  0.4317080000000  0.5443010000000  0.4336810000000 1.0
C      1  0.4646300000000  0.4674690000000  0.5016060000000 1.0
C      1  0.5204350000000  0.4543320000000  0.4986330000000 1.0
C      1  0.5475890000000  0.5078770000000  0.4971690000000 1.0
C      1  0.5085210000000  0.5476090000000  0.5020950000000 1.0
C      1  0.4575710000000  0.5227010000000  0.4986620000000 1.0
C      1  0.5284560000000  0.5141900000000  0.4767700000000 1.0
C      1  0.5035800000000  0.5259500000000  0.4853680000000 1.0
C      1  0.4766150000000  0.5096350000000  0.4788300000000 1.0
C      1  0.4836830000000  0.4808610000000  0.4859980000000 1.0
C      1  0.5098980000000  0.4702040000000  0.4781120000000 1.0
C      1  0.4369320000000  0.5558480000000  0.5559080000000 1.0
C      1  0.4269680000000  0.4576960000000  0.5559970000000 1.0
C      1  0.5178670000000  0.4175640000000  0.5553660000000 1.0
C      1  0.5834460000000  0.4917640000000  0.5544990000000 1.0
C      1  0.5340080000000  0.5774630000000  0.5561150000000 1.0
C      1  0.4153760000000  0.5436120000000  0.5099040000000 1.0
C      1  0.4320280000000  0.4331320000000  0.5101630000000 1.0
C      1  0.5433320000000  0.4143820000000  0.5098480000000 1.0
C      1  0.5944620000000  0.5147720000000  0.5097330000000 1.0
C      1  0.5148860000000  0.5942040000000  0.5104230000000 1.0
C      1  0.4067410000000  0.4532070000000  0.4688800000000 1.0
C      1  0.5151230000000  0.3969310000000  0.4692250000000 1.0
C      1  0.6033790000000  0.4823540000000  0.4694350000000 1.0
C      1  0.5474610000000  0.5924810000000  0.4692850000000 1.0
C      1  0.4274930000000  0.5745270000000  0.4693040000000 1.0
C      1  0.4832340000000  0.5630000000000  0.5695840000000 1.0
C      1  0.4348580000000  0.5036190000000  0.5703840000000 1.0
C      1  0.4764520000000  0.4392280000000  0.5695160000000 1.0
C      1  0.5503180000000  0.4590630000000  0.5680460000000 1.0
C      1  0.5548330000000  0.5354620000000  0.5699470000000 1.0
C      1  0.5567740000000  0.5578840000000  0.5506190000000 1.0
C      1  0.4624920000000  0.5710850000000  0.5500010000000 1.0
C      1  0.4202740000000  0.4869910000000  0.5506240000000 1.0
C      1  0.4880630000000  0.4202900000000  0.5499010000000 1.0
C      1  0.5713070000000  0.4647540000000  0.5480110000000 1.0
C      1  0.4161060000000  0.5063230000000  0.4762500000000 1.0
C      1  0.4678150000000  0.4242710000000  0.4761030000000 1.0
C      1  0.5642690000000  0.4448340000000  0.4761820000000 1.0
C      1  0.5727830000000  0.5451290000000  0.4765860000000 1.0
C      1  0.4812420000000  0.5801310000000  0.4761820000000 1.0
C      1  0.4836050000000  0.4308960000000  0.5232910000000 1.0
C      1  0.5595560000000  0.4645010000000  0.5215640000000 1.0
C      1  0.5540530000000  0.5463700000000  0.5239570000000 1.0
C      1  0.4717870000000  0.5651750000000  0.5232340000000 1.0
C      1  0.4291540000000  0.4947360000000  0.5239450000000 1.0
C      1  0.4577510000000  0.5085310000000  0.4214020000000 1.0
C      1  0.4792680000000  0.4621370000000  0.4197870000000 1.0
C      1  0.5288160000000  0.4688370000000  0.4241870000000 1.0
C      1  0.5389420000000  0.5173050000000  0.4235400000000 1.0
C      1  0.4943780000000  0.5425010000000  0.4195700000000 1.0
C      1  0.4750900000000  0.4902670000000  0.5462630000000 1.0
C      1  0.5016360000000  0.4735360000000  0.5453360000000 1.0
C      1  0.5253030000000  0.4939300000000  0.5445970000000 1.0
C      1  0.5142200000000  0.5227390000000  0.5461900000000 1.0
C      1  0.4828950000000  0.5203850000000  0.5458610000000 1.0
C      1  0.5123620000000  0.5642320000000  0.5710780000000 1.0
C      1  0.4428690000000  0.5315610000000  0.5713060000000 1.0
C      1  0.4522180000000  0.4554130000000  0.5710040000000 1.0
C      1  0.5276690000000  0.4409600000000  0.5701630000000 1.0
C      1  0.5646100000000  0.5080570000000  0.5699870000000 1.0
C      1  0.4697620000000  0.5353690000000  0.5218030000000 1.0
C      1  0.4560000000000  0.4828790000000  0.5235150000000 1.0
C      1  0.5035830000000  0.4529300000000  0.5220260000000 1.0
C      1  0.5436650000000  0.4895660000000  0.5194570000000 1.0
C      1  0.5251840000000  0.5403410000000  0.5236730000000 1.0
C      1  0.4976940000000  0.5248450000000  0.3969870000000 1.0
C      1  0.4755900000000  0.5045140000000  0.3978250000000 1.0
C      1  0.4885750000000  0.4774580000000  0.3973140000000 1.0
C      1  0.5180500000000  0.4813430000000  0.4000750000000 1.0
C      1  0.5238460000000  0.5102150000000  0.3996610000000 1.0
C      1  0.5411360000000  0.4882880000000  0.5728730000000 1.0
C      1  0.5240860000000  0.5358770000000  0.5742690000000 1.0
C      1  0.4735160000000  0.5338770000000  0.5742560000000 1.0
C      1  0.4595290000000  0.4851900000000  0.5744650000000 1.0
C      1  0.5015650000000  0.4570190000000  0.5736830000000 1.0
C      1  0.5627400000000  0.5498120000000  0.4501140000000 1.0
C      1  0.4725800000000  0.5733610000000  0.4496890000000 1.0
C      1  0.4204490000000  0.4963530000000  0.4497470000000 1.0
C      1  0.4789770000000  0.4242480000000  0.4496510000000 1.0
C      1  0.5669260000000  0.4557460000000  0.4499290000000 1.0
END
