TITL C-3623285-6872-690 0.120795168557495 125000 -867.567590597353 0 0 143 (C1) n - 1
REM
REM in /home/nfs/bkarasulu/CARBON/AIRSS/Generating-Clusters/LCBOP/Higher-Symm/SD-CG/FIRE-CG
REM
REM
REM
REM
REM
REM ./C.cell (b20cbc046b6831c77cfcea5457e17084)
REM AIRSS Version 0.9.1 bugfix July 2018 build 013d7b7c2542+ Fri, 06 Jul 2018 19:26:36 +0100
REM compiler GCC version 9.2.1 20190827 (Red Hat 9.2.1-1)
REM options -cpp -mtune=generic -march=x86-64 -g -O0 -fpre-include=/usr/include/finclude/math-vector-fortran.h
REM seed -2144776261 1258892267 -956383617 -1318877329 -1735945443 796715053 -1491260954 -486493142 886216150 -855179853 482259130 118810808 -1789510172 -1997083612 -668579189 1917760906 633324583 -1675999799 1094320406 -822640721 -273718139 -1038060197 792039085 509609400 -1986835770 1009758146 -1627041408 1300360094 501147006 -2118889037 1674790776 -1617664527 1868593496
REM
CELL 1.54180   50.00000   50.00000   50.00000   90.00000   90.00000   90.00000
LATT -1
SFAC C  
C      1  0.3950010000000  0.5479070000000  0.4821340000000 1.0
C      1  0.4684070000000  0.6024110000000  0.4740710000000 1.0
C      1  0.3847990000000  0.4585860000000  0.5145480000000 1.0
C      1  0.5401350000000  0.4852280000000  0.4982210000000 1.0
C      1  0.4996150000000  0.4729000000000  0.4306960000000 1.0
C      1  0.4900380000000  0.4312680000000  0.5075840000000 1.0
C      1  0.4215670000000  0.4552820000000  0.4562050000000 1.0
C      1  0.4766660000000  0.4617880000000  0.5925250000000 1.0
C      1  0.5874550000000  0.5155080000000  0.5160630000000 1.0
C      1  0.5453190000000  0.5621570000000  0.5575610000000 1.0
C      1  0.5888690000000  0.5437480000000  0.5088120000000 1.0
C      1  0.4950380000000  0.6138730000000  0.3963730000000 1.0
C      1  0.4477510000000  0.4659380000000  0.5202280000000 1.0
C      1  0.6016880000000  0.5296030000000  0.4213270000000 1.0
C      1  0.4442390000000  0.3962780000000  0.4954890000000 1.0
C      1  0.5464830000000  0.5768610000000  0.4345550000000 1.0
C      1  0.5643780000000  0.4121510000000  0.5083810000000 1.0
C      1  0.4291300000000  0.4792870000000  0.5020950000000 1.0
C      1  0.4545400000000  0.5864180000000  0.4569430000000 1.0
C      1  0.4740330000000  0.5148740000000  0.4705950000000 1.0
C      1  0.4207190000000  0.5602220000000  0.4757150000000 1.0
C      1  0.4969770000000  0.5042870000000  0.5781790000000 1.0
C      1  0.5696720000000  0.5011990000000  0.5327510000000 1.0
C      1  0.5587010000000  0.4836650000000  0.4402410000000 1.0
C      1  0.5828860000000  0.5628610000000  0.4579050000000 1.0
C      1  0.5347050000000  0.3906660000000  0.4658040000000 1.0
C      1  0.4154910000000  0.5061290000000  0.5425610000000 1.0
C      1  0.4639930000000  0.4716260000000  0.4697190000000 1.0
C      1  0.6085510000000  0.4770500000000  0.4392470000000 1.0
C      1  0.5319000000000  0.5306840000000  0.5231670000000 1.0
C      1  0.5003710000000  0.4959660000000  0.4145690000000 1.0
C      1  0.4973220000000  0.5788230000000  0.4355200000000 1.0
C      1  0.4627030000000  0.5483210000000  0.5864990000000 1.0
C      1  0.4856920000000  0.6107740000000  0.4931890000000 1.0
C      1  0.5111150000000  0.6123860000000  0.5062840000000 1.0
C      1  0.4391800000000  0.5154430000000  0.4221560000000 1.0
C      1  0.3756340000000  0.4753960000000  0.4956190000000 1.0
C      1  0.4771700000000  0.4902030000000  0.4873250000000 1.0
C      1  0.4607020000000  0.3986180000000  0.5185940000000 1.0
C      1  0.5285740000000  0.5854260000000  0.5511720000000 1.0
C      1  0.5335910000000  0.6145550000000  0.4883330000000 1.0
C      1  0.5241620000000  0.4452220000000  0.5896410000000 1.0
C      1  0.3852270000000  0.5226160000000  0.4744410000000 1.0
C      1  0.4356810000000  0.4696510000000  0.4760370000000 1.0
C      1  0.4324620000000  0.4441430000000  0.5381840000000 1.0
C      1  0.3964890000000  0.5673740000000  0.5288140000000 1.0
C      1  0.4748410000000  0.4300500000000  0.5532180000000 1.0
C      1  0.5514190000000  0.4344550000000  0.4442470000000 1.0
C      1  0.5887470000000  0.5614860000000  0.5304950000000 1.0
C      1  0.6050130000000  0.4542990000000  0.4537930000000 1.0
C      1  0.5356670000000  0.4662190000000  0.4771520000000 1.0
C      1  0.4739680000000  0.4798100000000  0.5150010000000 1.0
C      1  0.3767670000000  0.4980530000000  0.4812580000000 1.0
C      1  0.4417890000000  0.5243280000000  0.5050440000000 1.0
C      1  0.4930800000000  0.4315590000000  0.4795530000000 1.0
C      1  0.4704140000000  0.4902800000000  0.5870940000000 1.0
C      1  0.4240840000000  0.5050330000000  0.5150950000000 1.0
C      1  0.6002960000000  0.4837710000000  0.6402350000000 1.0
C      1  0.5014350000000  0.4523680000000  0.6019990000000 1.0
C      1  0.4057610000000  0.4806330000000  0.5535850000000 1.0
C      1  0.4532290000000  0.4940300000000  0.4065170000000 1.0
C      1  0.4315480000000  0.5189860000000  0.5639670000000 1.0
C      1  0.4796710000000  0.4663670000000  0.4473040000000 1.0
C      1  0.4936290000000  0.4709300000000  0.5334850000000 1.0
C      1  0.4430330000000  0.4970840000000  0.5803700000000 1.0
C      1  0.5535880000000  0.4808900000000  0.5737550000000 1.0
C      1  0.4367930000000  0.4502850000000  0.5687820000000 1.0
C      1  0.4732210000000  0.5670080000000  0.5465100000000 1.0
C      1  0.5620430000000  0.5839130000000  0.4579940000000 1.0
C      1  0.5289950000000  0.5575240000000  0.5136970000000 1.0
C      1  0.4786970000000  0.4215920000000  0.4567700000000 1.0
C      1  0.6148040000000  0.4867170000000  0.4885700000000 1.0
C      1  0.5764100000000  0.5173150000000  0.4708390000000 1.0
C      1  0.4194510000000  0.4712730000000  0.4324160000000 1.0
C      1  0.5222430000000  0.5071440000000  0.6278670000000 1.0
C      1  0.4804420000000  0.4510550000000  0.3720560000000 1.0
C      1  0.4162590000000  0.5004510000000  0.4328360000000 1.0
C      1  0.5820370000000  0.5477900000000  0.4318720000000 1.0
C      1  0.5443700000000  0.4090240000000  0.4488810000000 1.0
C      1  0.6174860000000  0.5388920000000  0.4007620000000 1.0
C      1  0.5490040000000  0.5732600000000  0.5024890000000 1.0
C      1  0.5508070000000  0.5929230000000  0.4823290000000 1.0
C      1  0.5413180000000  0.4537510000000  0.5688330000000 1.0
C      1  0.4941640000000  0.5577730000000  0.4533090000000 1.0
C      1  0.5966400000000  0.4365290000000  0.4726190000000 1.0
C      1  0.4521390000000  0.5385340000000  0.4352030000000 1.0
C      1  0.4397220000000  0.5614050000000  0.4524950000000 1.0
C      1  0.5853460000000  0.4829010000000  0.6183740000000 1.0
C      1  0.4858940000000  0.5530590000000  0.5696520000000 1.0
C      1  0.4311600000000  0.4277830000000  0.4548600000000 1.0
C      1  0.4558600000000  0.4263140000000  0.4393730000000 1.0
C      1  0.5048740000000  0.5505930000000  0.4780850000000 1.0
C      1  0.4430260000000  0.5662840000000  0.5488870000000 1.0
C      1  0.4924070000000  0.4423510000000  0.5338800000000 1.0
C      1  0.4632970000000  0.4435460000000  0.5757330000000 1.0
C      1  0.5404100000000  0.4129770000000  0.5268010000000 1.0
C      1  0.3835210000000  0.5582590000000  0.5065570000000 1.0
C      1  0.4822280000000  0.5314800000000  0.4444730000000 1.0
C      1  0.4838850000000  0.4779210000000  0.3725880000000 1.0
C      1  0.5697580000000  0.4822750000000  0.5969730000000 1.0
C      1  0.6298000000000  0.4855780000000  0.6837150000000 1.0
C      1  0.4301190000000  0.4087950000000  0.4760590000000 1.0
C      1  0.4388710000000  0.5456790000000  0.5698660000000 1.0
C      1  0.5078350000000  0.5195490000000  0.4289170000000 1.0
C      1  0.5056790000000  0.5320140000000  0.5676260000000 1.0
C      1  0.4693440000000  0.4347180000000  0.3905340000000 1.0
C      1  0.4318160000000  0.5733510000000  0.4998190000000 1.0
C      1  0.5254360000000  0.3846490000000  0.4902290000000 1.0
C      1  0.5129900000000  0.5031290000000  0.6038360000000 1.0
C      1  0.5343100000000  0.5311400000000  0.5539810000000 1.0
C      1  0.5589700000000  0.4788940000000  0.5182850000000 1.0
C      1  0.5922230000000  0.5018060000000  0.4902780000000 1.0
C      1  0.5181090000000  0.3951070000000  0.5161570000000 1.0
C      1  0.4472030000000  0.5227420000000  0.4777980000000 1.0
C      1  0.5372640000000  0.5268480000000  0.4339460000000 1.0
C      1  0.5290800000000  0.5115800000000  0.5013480000000 1.0
C      1  0.6064540000000  0.5026070000000  0.4301920000000 1.0
C      1  0.4892460000000  0.3904450000000  0.5217700000000 1.0
C      1  0.5180240000000  0.5250170000000  0.4791360000000 1.0
C      1  0.5827520000000  0.4220540000000  0.4909330000000 1.0
C      1  0.4031460000000  0.4568120000000  0.5357650000000 1.0
C      1  0.5129440000000  0.4507570000000  0.4759350000000 1.0
C      1  0.5567830000000  0.5102170000000  0.4496160000000 1.0
C      1  0.4417220000000  0.4671090000000  0.4136260000000 1.0
C      1  0.5630630000000  0.4537210000000  0.5283580000000 1.0
C      1  0.4550340000000  0.4410120000000  0.4140500000000 1.0
C      1  0.4795060000000  0.4949160000000  0.3948760000000 1.0
C      1  0.4640630000000  0.5343620000000  0.5180360000000 1.0
C      1  0.5729530000000  0.5653190000000  0.5520040000000 1.0
C      1  0.5539090000000  0.5056070000000  0.5571970000000 1.0
C      1  0.5023710000000  0.5613210000000  0.5039850000000 1.0
C      1  0.5525060000000  0.5500280000000  0.4250620000000 1.0
C      1  0.4963420000000  0.5963740000000  0.4156490000000 1.0
C      1  0.6151710000000  0.4846820000000  0.6621550000000 1.0
C      1  0.4246650000000  0.5720980000000  0.5277610000000 1.0
C      1  0.5514360000000  0.4608870000000  0.4540100000000 1.0
C      1  0.5457510000000  0.4372690000000  0.5444230000000 1.0
C      1  0.5833460000000  0.5449830000000  0.4798880000000 1.0
C      1  0.5032330000000  0.4871180000000  0.5538630000000 1.0
C      1  0.4245680000000  0.4747930000000  0.5756180000000 1.0
C      1  0.5172740000000  0.6030570000000  0.5332710000000 1.0
C      1  0.4521660000000  0.4193030000000  0.5366010000000 1.0
C      1  0.4810050000000  0.5566460000000  0.5212190000000 1.0
END
