TITL C-3623289-7120-1496 -7640.98040192752 125000 -841.022648943478 0 0 138 (C1) n - 1
REM
REM in /home/nfs/bkarasulu/CARBON/AIRSS/Generating-Clusters/LCBOP/Higher-Symm/SD-CG/FIRE-CG
REM
REM
REM
REM
REM
REM ./C.cell (b20cbc046b6831c77cfcea5457e17084)
REM AIRSS Version 0.9.1 bugfix July 2018 build 013d7b7c2542+ Fri, 06 Jul 2018 19:26:36 +0100
REM compiler GCC version 9.2.1 20190827 (Red Hat 9.2.1-1)
REM options -cpp -mtune=generic -march=x86-64 -g -O0 -fpre-include=/usr/include/finclude/math-vector-fortran.h
REM seed -78619171 -894437987 -816998725 -338922265 49001793 -1084838682 1154855876 198466984 1615803614 -435653955 -2056115022 222932248 -329821693 2058414603 1767476801 -1266508625 1453942450 -1999392371 -523666259 -561157767 97518888 440105287 826406909 -1964797739 -2081596209 506421684 635174304 -397723974 875005610 -132263995 -1608144402 -295583149 -705606426
REM
CELL 1.54180   50.00000   50.00000   50.00000   90.00000   90.00000   90.00000
LATT -1
SFAC C  
C      1  0.4741310000000  0.5287540000000  0.5569520000000 1.0
C      1  0.5303750000000  0.5507330000000  0.4788900000000 1.0
C      1  0.5510620000000  0.4715530000000  0.5315750000000 1.0
C      1  0.5342820000000  0.4722160000000  0.5565220000000 1.0
C      1  0.4749090000000  0.4796790000000  0.4436200000000 1.0
C      1  0.5198210000000  0.5441890000000  0.4519710000000 1.0
C      1  0.4667550000000  0.4541070000000  0.4804300000000 1.0
C      1  0.5397160000000  0.4489330000000  0.5165220000000 1.0
C      1  0.4543120000000  0.5616550000000  0.5257190000000 1.0
C      1  0.4486920000000  0.5283250000000  0.5405970000000 1.0
C      1  0.5604770000000  0.5311790000000  0.4800600000000 1.0
C      1  0.4547050000000  0.4777770000000  0.4663520000000 1.0
C      1  0.4723920000000  0.5320640000000  0.4434250000000 1.0
C      1  0.5204040000000  0.5537920000000  0.5269230000000 1.0
C      1  0.5604580000000  0.4784320000000  0.4724140000000 1.0
C      1  0.5227170000000  0.4670490000000  0.4461510000000 1.0
C      1  0.4852300000000  0.4604070000000  0.5555490000000 1.0
C      1  0.5251900000000  0.5320990000000  0.5465890000000 1.0
C      1  0.4692400000000  0.4530980000000  0.5310540000000 1.0
C      1  0.5383020000000  0.4580370000000  0.4692040000000 1.0
C      1  0.4535950000000  0.5589310000000  0.4761400000000 1.0
C      1  0.4491520000000  0.5316080000000  0.4624990000000 1.0
C      1  0.5501920000000  0.5184220000000  0.5360460000000 1.0
C      1  0.4490750000000  0.4759780000000  0.5327480000000 1.0
C      1  0.4674500000000  0.4222880000000  0.5282260000000 1.0
C      1  0.4205830000000  0.5233240000000  0.4561320000000 1.0
C      1  0.5316150000000  0.4690880000000  0.4192040000000 1.0
C      1  0.5269390000000  0.5808270000000  0.5310530000000 1.0
C      1  0.4611180000000  0.5859020000000  0.4684370000000 1.0
C      1  0.5457640000000  0.4285180000000  0.4660080000000 1.0
C      1  0.5867890000000  0.4683240000000  0.4737900000000 1.0
C      1  0.4235080000000  0.4653860000000  0.5375050000000 1.0
C      1  0.5778950000000  0.5168250000000  0.5444990000000 1.0
C      1  0.4669490000000  0.5294170000000  0.4159710000000 1.0
C      1  0.5325160000000  0.5368550000000  0.5758010000000 1.0
C      1  0.4722400000000  0.4664770000000  0.5805350000000 1.0
C      1  0.4694550000000  0.4306750000000  0.4639350000000 1.0
C      1  0.4181010000000  0.5271580000000  0.5367170000000 1.0
C      1  0.5336770000000  0.4639370000000  0.5841650000000 1.0
C      1  0.5363310000000  0.5799400000000  0.4757520000000 1.0
C      1  0.4587620000000  0.5893970000000  0.5297370000000 1.0
C      1  0.5365270000000  0.4241460000000  0.5306220000000 1.0
C      1  0.5788960000000  0.4617700000000  0.5362340000000 1.0
C      1  0.4263570000000  0.4672200000000  0.4654950000000 1.0
C      1  0.5889650000000  0.5294640000000  0.4763070000000 1.0
C      1  0.4777550000000  0.5350520000000  0.5842840000000 1.0
C      1  0.5374100000000  0.5403400000000  0.4301490000000 1.0
C      1  0.4752070000000  0.4719360000000  0.4161100000000 1.0
C      1  0.5525880000000  0.5795400000000  0.5438010000000 1.0
C      1  0.5845660000000  0.5060020000000  0.5700670000000 1.0
C      1  0.5428610000000  0.5648700000000  0.5749730000000 1.0
C      1  0.4429920000000  0.4159710000000  0.5426810000000 1.0
C      1  0.5713760000000  0.4294760000000  0.4495260000000 1.0
C      1  0.4402930000000  0.6047190000000  0.4655010000000 1.0
C      1  0.4345850000000  0.4386520000000  0.5594590000000 1.0
C      1  0.5881640000000  0.4545560000000  0.4483630000000 1.0
C      1  0.4199280000000  0.5155520000000  0.4277330000000 1.0
C      1  0.4550570000000  0.4425670000000  0.5826150000000 1.0
C      1  0.5317500000000  0.4456100000000  0.4036130000000 1.0
C      1  0.4387390000000  0.5289590000000  0.4096010000000 1.0
C      1  0.5644510000000  0.5774730000000  0.4685260000000 1.0
C      1  0.5894360000000  0.5310640000000  0.4465840000000 1.0
C      1  0.5677230000000  0.5529080000000  0.4419290000000 1.0
C      1  0.4532730000000  0.4350360000000  0.4387290000000 1.0
C      1  0.5484730000000  0.4267170000000  0.5580410000000 1.0
C      1  0.4366830000000  0.6069640000000  0.5299390000000 1.0
C      1  0.4271750000000  0.4499920000000  0.4419620000000 1.0
C      1  0.5751100000000  0.4425950000000  0.5586700000000 1.0
C      1  0.4013530000000  0.5416410000000  0.5536510000000 1.0
C      1  0.4686520000000  0.4435880000000  0.4151320000000 1.0
C      1  0.5296720000000  0.4344120000000  0.5809590000000 1.0
C      1  0.4811250000000  0.5614750000000  0.5934910000000 1.0
C      1  0.4165430000000  0.3692940000000  0.5389810000000 1.0
C      1  0.4136550000000  0.4635080000000  0.4207940000000 1.0
C      1  0.4860180000000  0.4269890000000  0.4005730000000 1.0
C      1  0.5780120000000  0.5802170000000  0.4953200000000 1.0
C      1  0.4228880000000  0.6185630000000  0.5099200000000 1.0
C      1  0.5857640000000  0.3857250000000  0.4211680000000 1.0
C      1  0.5933900000000  0.5056030000000  0.4325050000000 1.0
C      1  0.3868190000000  0.5548880000000  0.5713990000000 1.0
C      1  0.5859370000000  0.4560470000000  0.5817350000000 1.0
C      1  0.4205140000000  0.5530740000000  0.3648830000000 1.0
C      1  0.5008200000000  0.5795230000000  0.5969830000000 1.0
C      1  0.5039450000000  0.4225500000000  0.5876280000000 1.0
C      1  0.4292570000000  0.3919620000000  0.5408670000000 1.0
C      1  0.3726510000000  0.5672840000000  0.5894340000000 1.0
C      1  0.4761250000000  0.4222500000000  0.5892690000000 1.0
C      1  0.5733940000000  0.5802700000000  0.5230280000000 1.0
C      1  0.4246010000000  0.6177250000000  0.4830830000000 1.0
C      1  0.5793350000000  0.4067390000000  0.4351730000000 1.0
C      1  0.5887960000000  0.4831200000000  0.5839170000000 1.0
C      1  0.4099250000000  0.4903710000000  0.4190750000000 1.0
C      1  0.5930030000000  0.4777400000000  0.4302330000000 1.0
C      1  0.5270960000000  0.5820720000000  0.5910400000000 1.0
C      1  0.4292550000000  0.5415220000000  0.3865450000000 1.0
C      1  0.5125570000000  0.4282560000000  0.3962220000000 1.0
C      1  0.6016090000000  0.5155410000000  0.4972080000000 1.0
C      1  0.5262310000000  0.4866900000000  0.5989840000000 1.0
C      1  0.4831710000000  0.5995140000000  0.5183730000000 1.0
C      1  0.4097810000000  0.4763140000000  0.4859430000000 1.0
C      1  0.5983270000000  0.4742850000000  0.5210090000000 1.0
C      1  0.4078770000000  0.5102030000000  0.5155670000000 1.0
C      1  0.4915960000000  0.5141750000000  0.5972010000000 1.0
C      1  0.5260950000000  0.5210840000000  0.4110000000000 1.0
C      1  0.4896660000000  0.4905810000000  0.3999890000000 1.0
C      1  0.5191820000000  0.4089500000000  0.5131370000000 1.0
C      1  0.4892340000000  0.4135480000000  0.4748040000000 1.0
C      1  0.5141940000000  0.5956080000000  0.4855880000000 1.0
C      1  0.5965590000000  0.5129810000000  0.5238060000000 1.0
C      1  0.5276640000000  0.4939950000000  0.4077500000000 1.0
C      1  0.4865870000000  0.5952840000000  0.4780170000000 1.0
C      1  0.4080380000000  0.4791080000000  0.5158260000000 1.0
C      1  0.6025120000000  0.4770870000000  0.4944110000000 1.0
C      1  0.4075810000000  0.5127940000000  0.4799270000000 1.0
C      1  0.4883210000000  0.5178250000000  0.4018220000000 1.0
C      1  0.5214050000000  0.5148470000000  0.5942280000000 1.0
C      1  0.4854180000000  0.4864580000000  0.5965940000000 1.0
C      1  0.5237240000000  0.4124200000000  0.4805840000000 1.0
C      1  0.4882840000000  0.4106080000000  0.5113260000000 1.0
C      1  0.5112050000000  0.5981130000000  0.5153580000000 1.0
C      1  0.4555070000000  0.5027550000000  0.5249690000000 1.0
C      1  0.4977700000000  0.5276320000000  0.4553450000000 1.0
C      1  0.5241590000000  0.4591640000000  0.4956910000000 1.0
C      1  0.5520460000000  0.5049200000000  0.4749860000000 1.0
C      1  0.5075020000000  0.4747430000000  0.5496090000000 1.0
C      1  0.4641390000000  0.5537290000000  0.5016410000000 1.0
C      1  0.5427820000000  0.4977270000000  0.5176820000000 1.0
C      1  0.4568570000000  0.5051830000000  0.4779650000000 1.0
C      1  0.4789730000000  0.4589710000000  0.5042350000000 1.0
C      1  0.5114700000000  0.5450760000000  0.5015960000000 1.0
C      1  0.5009760000000  0.4823620000000  0.4543050000000 1.0
C      1  0.4984010000000  0.5175440000000  0.5433300000000 1.0
C      1  0.5063980000000  0.5045880000000  0.4709870000000 1.0
C      1  0.5018490000000  0.4736620000000  0.5057370000000 1.0
C      1  0.5018250000000  0.4925320000000  0.5286150000000 1.0
C      1  0.4849990000000  0.5347230000000  0.5016300000000 1.0
C      1  0.4700790000000  0.5099920000000  0.5017800000000 1.0
C      1  0.5287940000000  0.5037750000000  0.4914300000000 1.0
END
