TITL C-3623285-6872-1327 -57470.591385087 125000 -993.142159759076 0 0 161 (C1) n - 1
REM
REM in /home/nfs/bkarasulu/CARBON/AIRSS/Generating-Clusters/LCBOP/Higher-Symm/SD-CG/FIRE-CG
REM
REM
REM
REM
REM
REM ./C.cell (b20cbc046b6831c77cfcea5457e17084)
REM AIRSS Version 0.9.1 bugfix July 2018 build 013d7b7c2542+ Fri, 06 Jul 2018 19:26:36 +0100
REM compiler GCC version 9.2.1 20190827 (Red Hat 9.2.1-1)
REM options -cpp -mtune=generic -march=x86-64 -g -O0 -fpre-include=/usr/include/finclude/math-vector-fortran.h
REM seed 1276788682 1730778047 2028159798 -1707430986 -488611382 -432280757 -1209100772 -581388247 438273768 -843748781 -430248481 -808908534 1907802085 924174337 -1915374822 2081636213 -1590181746 -1551685175 1902474122 -2142626660 -1807734941 -1515604923 352107100 -853915451 1897777522 -1401664369 -1895927558 -442650700 -140898375 -801177379 764224632 -295399316 1071464716
REM
CELL 1.54180   50.00000   50.00000   50.00000   90.00000   90.00000   90.00000
LATT -1
SFAC C  
C      1  0.4847710000000  0.4995310000000  0.4498160000000 1.0
C      1  0.4945880000000  0.4633410000000  0.4770770000000 1.0
C      1  0.4516820000000  0.4860220000000  0.4957420000000 1.0
C      1  0.5107350000000  0.4856040000000  0.5498100000000 1.0
C      1  0.5111020000000  0.5066150000000  0.4632590000000 1.0
C      1  0.4841230000000  0.4962210000000  0.5451640000000 1.0
C      1  0.5077560000000  0.4478550000000  0.5305190000000 1.0
C      1  0.5097340000000  0.5592830000000  0.4869540000000 1.0
C      1  0.5057650000000  0.5554390000000  0.5139040000000 1.0
C      1  0.5283940000000  0.4841450000000  0.5050860000000 1.0
C      1  0.5473530000000  0.5331000000000  0.4939590000000 1.0
C      1  0.4573130000000  0.5115080000000  0.5027670000000 1.0
C      1  0.5127750000000  0.6044080000000  0.5084790000000 1.0
C      1  0.5999760000000  0.5124150000000  0.5115930000000 1.0
C      1  0.5059750000000  0.5230110000000  0.5826130000000 1.0
C      1  0.4900590000000  0.6036090000000  0.4868730000000 1.0
C      1  0.4870470000000  0.3972550000000  0.5104670000000 1.0
C      1  0.5092660000000  0.3997120000000  0.4889700000000 1.0
C      1  0.4011330000000  0.5092810000000  0.4898240000000 1.0
C      1  0.4021560000000  0.4876980000000  0.5100420000000 1.0
C      1  0.5983900000000  0.4898510000000  0.4907570000000 1.0
C      1  0.4876630000000  0.5137570000000  0.4002470000000 1.0
C      1  0.4872070000000  0.4728050000000  0.5966740000000 1.0
C      1  0.5080050000000  0.4919940000000  0.4018030000000 1.0
C      1  0.4837000000000  0.5471720000000  0.5258430000000 1.0
C      1  0.5574420000000  0.5153490000000  0.4746040000000 1.0
C      1  0.5071240000000  0.4769580000000  0.5764360000000 1.0
C      1  0.5367090000000  0.5550500000000  0.4815860000000 1.0
C      1  0.5322570000000  0.4449130000000  0.5406610000000 1.0
C      1  0.4724340000000  0.4481660000000  0.4864050000000 1.0
C      1  0.4521180000000  0.5175870000000  0.5285820000000 1.0
C      1  0.4442830000000  0.4778520000000  0.4721360000000 1.0
C      1  0.5307730000000  0.4932800000000  0.5314460000000 1.0
C      1  0.4822880000000  0.4727640000000  0.4518570000000 1.0
C      1  0.4856980000000  0.5203240000000  0.5599950000000 1.0
C      1  0.5135640000000  0.5340740000000  0.4517450000000 1.0
C      1  0.4021740000000  0.4694780000000  0.5559290000000 1.0
C      1  0.4732660000000  0.5605650000000  0.4014570000000 1.0
C      1  0.5568420000000  0.4048150000000  0.4743140000000 1.0
C      1  0.5873200000000  0.4665130000000  0.4436250000000 1.0
C      1  0.5914540000000  0.5358820000000  0.5593960000000 1.0
C      1  0.4029530000000  0.5287020000000  0.4434330000000 1.0
C      1  0.5275550000000  0.5642320000000  0.5963220000000 1.0
C      1  0.5253240000000  0.4451970000000  0.4051910000000 1.0
C      1  0.4746140000000  0.4265040000000  0.6021530000000 1.0
C      1  0.4387660000000  0.4056600000000  0.5303390000000 1.0
C      1  0.4437170000000  0.5885330000000  0.4686560000000 1.0
C      1  0.5621720000000  0.6025730000000  0.5208020000000 1.0
C      1  0.4201110000000  0.5415320000000  0.5452490000000 1.0
C      1  0.5437900000000  0.5462220000000  0.4153070000000 1.0
C      1  0.5409970000000  0.3899750000000  0.5429580000000 1.0
C      1  0.5732270000000  0.5350060000000  0.4567310000000 1.0
C      1  0.5776060000000  0.4614350000000  0.5486840000000 1.0
C      1  0.4125660000000  0.4548620000000  0.4538480000000 1.0
C      1  0.4574380000000  0.5411920000000  0.5853600000000 1.0
C      1  0.4555680000000  0.4606880000000  0.4196590000000 1.0
C      1  0.5427330000000  0.4570000000000  0.5869340000000 1.0
C      1  0.4566050000000  0.4189800000000  0.4583790000000 1.0
C      1  0.4600930000000  0.5802640000000  0.5409360000000 1.0
C      1  0.5434850000000  0.5863050000000  0.4511860000000 1.0
C      1  0.4816240000000  0.4209970000000  0.4183430000000 1.0
C      1  0.4152980000000  0.4159490000000  0.4814610000000 1.0
C      1  0.4157840000000  0.4856300000000  0.4175830000000 1.0
C      1  0.5212670000000  0.4122620000000  0.5810390000000 1.0
C      1  0.5170710000000  0.5862480000000  0.4126250000000 1.0
C      1  0.4798330000000  0.5863170000000  0.5820700000000 1.0
C      1  0.5751180000000  0.4206000000000  0.5229380000000 1.0
C      1  0.5825410000000  0.5807640000000  0.4760120000000 1.0
C      1  0.4198690000000  0.5799310000000  0.5168530000000 1.0
C      1  0.5780400000000  0.4900710000000  0.5862940000000 1.0
C      1  0.5813100000000  0.5153350000000  0.4139410000000 1.0
C      1  0.4195260000000  0.5120570000000  0.5821870000000 1.0
C      1  0.5240610000000  0.4309540000000  0.4523560000000 1.0
C      1  0.4330990000000  0.4484360000000  0.5164540000000 1.0
C      1  0.4497920000000  0.5273320000000  0.4309520000000 1.0
C      1  0.4761670000000  0.4214630000000  0.5514030000000 1.0
C      1  0.4831250000000  0.5743220000000  0.4489750000000 1.0
C      1  0.5298260000000  0.5773590000000  0.5498160000000 1.0
C      1  0.5676300000000  0.4541970000000  0.4833780000000 1.0
C      1  0.5776380000000  0.5540070000000  0.5215030000000 1.0
C      1  0.4333010000000  0.5448250000000  0.4813960000000 1.0
C      1  0.5488940000000  0.5224010000000  0.5662190000000 1.0
C      1  0.5449250000000  0.4846510000000  0.4337060000000 1.0
C      1  0.4485290000000  0.4687960000000  0.5690960000000 1.0
C      1  0.5567870000000  0.5942350000000  0.4743680000000 1.0
C      1  0.5878730000000  0.4861490000000  0.5590140000000 1.0
C      1  0.4779580000000  0.5599350000000  0.5934910000000 1.0
C      1  0.4472690000000  0.5885730000000  0.5175280000000 1.0
C      1  0.4429530000000  0.4074030000000  0.4804270000000 1.0
C      1  0.5528710000000  0.4019490000000  0.5206400000000 1.0
C      1  0.4051900000000  0.4802750000000  0.4439010000000 1.0
C      1  0.4104890000000  0.5170220000000  0.5553380000000 1.0
C      1  0.5898320000000  0.5153260000000  0.4414970000000 1.0
C      1  0.5201940000000  0.5582190000000  0.4042070000000 1.0
C      1  0.5219580000000  0.4375440000000  0.5956430000000 1.0
C      1  0.4782050000000  0.4481450000000  0.4091970000000 1.0
C      1  0.5049080000000  0.4097180000000  0.4604390000000 1.0
C      1  0.4108170000000  0.4599830000000  0.5021500000000 1.0
C      1  0.4586530000000  0.5093620000000  0.4091940000000 1.0
C      1  0.4937130000000  0.4014250000000  0.5397150000000 1.0
C      1  0.4972710000000  0.5985780000000  0.4576230000000 1.0
C      1  0.5081590000000  0.5963450000000  0.5397910000000 1.0
C      1  0.5876800000000  0.4640460000000  0.5009060000000 1.0
C      1  0.5949410000000  0.5404810000000  0.5024210000000 1.0
C      1  0.4113460000000  0.5361840000000  0.4976710000000 1.0
C      1  0.5328540000000  0.5093660000000  0.5861630000000 1.0
C      1  0.5353430000000  0.4988690000000  0.4108780000000 1.0
C      1  0.4599430000000  0.4855170000000  0.5914840000000 1.0
C      1  0.5024020000000  0.4624750000000  0.4019250000000 1.0
C      1  0.4562230000000  0.3996860000000  0.5059360000000 1.0
C      1  0.3997450000000  0.5046620000000  0.4598250000000 1.0
C      1  0.4949340000000  0.4460140000000  0.6057340000000 1.0
C      1  0.4955370000000  0.5427120000000  0.3981960000000 1.0
C      1  0.5038900000000  0.5481990000000  0.5965280000000 1.0
C      1  0.5386480000000  0.3990010000000  0.4955300000000 1.0
C      1  0.5428460000000  0.6035920000000  0.4992990000000 1.0
C      1  0.4604090000000  0.5961080000000  0.4922370000000 1.0
C      1  0.5963610000000  0.5100740000000  0.5431820000000 1.0
C      1  0.5964670000000  0.4910800000000  0.4582730000000 1.0
C      1  0.4020750000000  0.4933860000000  0.5396380000000 1.0
C      1  0.4434600000000  0.4843260000000  0.4104230000000 1.0
C      1  0.4802160000000  0.4112500000000  0.4453130000000 1.0
C      1  0.4063110000000  0.4432660000000  0.4784900000000 1.0
C      1  0.5498620000000  0.4852460000000  0.5935960000000 1.0
C      1  0.5537350000000  0.5208950000000  0.4064210000000 1.0
C      1  0.4471310000000  0.5135780000000  0.5913940000000 1.0
C      1  0.5175250000000  0.3977470000000  0.5562570000000 1.0
C      1  0.5206790000000  0.5971850000000  0.4394280000000 1.0
C      1  0.4820700000000  0.5921360000000  0.5539790000000 1.0
C      1  0.5855660000000  0.4479990000000  0.5250430000000 1.0
C      1  0.5896960000000  0.5525880000000  0.4760250000000 1.0
C      1  0.4112210000000  0.5529550000000  0.5213400000000 1.0
C      1  0.5211160000000  0.4514650000000  0.4718770000000 1.0
C      1  0.4609080000000  0.4474150000000  0.5102930000000 1.0
C      1  0.4645120000000  0.5192020000000  0.4544070000000 1.0
C      1  0.4781010000000  0.4473470000000  0.5350120000000 1.0
C      1  0.4965260000000  0.5531940000000  0.4622580000000 1.0
C      1  0.5290640000000  0.5570990000000  0.5296570000000 1.0
C      1  0.5429200000000  0.4701050000000  0.4818260000000 1.0
C      1  0.5513110000000  0.5386320000000  0.5222380000000 1.0
C      1  0.4558780000000  0.5281870000000  0.4804320000000 1.0
C      1  0.5464360000000  0.5151830000000  0.5391900000000 1.0
C      1  0.5402300000000  0.4944450000000  0.4611670000000 1.0
C      1  0.4678670000000  0.4725410000000  0.5480520000000 1.0
C      1  0.4692180000000  0.5739670000000  0.4245790000000 1.0
C      1  0.5700550000000  0.4282680000000  0.4723360000000 1.0
C      1  0.4250920000000  0.4529900000000  0.5610200000000 1.0
C      1  0.5448050000000  0.5681370000000  0.5735340000000 1.0
C      1  0.5401550000000  0.4396130000000  0.4291060000000 1.0
C      1  0.4666710000000  0.4181110000000  0.5777340000000 1.0
C      1  0.4285080000000  0.4319250000000  0.5400760000000 1.0
C      1  0.4321730000000  0.5635620000000  0.4599220000000 1.0
C      1  0.5778710000000  0.5815880000000  0.5278310000000 1.0
C      1  0.5608140000000  0.4605720000000  0.4333370000000 1.0
C      1  0.5653060000000  0.5460290000000  0.5699740000000 1.0
C      1  0.4267120000000  0.5443670000000  0.4376810000000 1.0
C      1  0.5466320000000  0.5509900000000  0.4451890000000 1.0
C      1  0.5523150000000  0.4518540000000  0.5595280000000 1.0
C      1  0.4574770000000  0.5442020000000  0.5495800000000 1.0
C      1  0.4503790000000  0.4531680000000  0.4540030000000 1.0
C      1  0.5039380000000  0.4908640000000  0.4902610000000 1.0
END
