TITL C-3623285-6872-1648 -1.32227917681961e-06 125000 -857.150798322231 0 0 144 (C2) n - 1
REM
REM in /home/nfs/bkarasulu/CARBON/AIRSS/Generating-Clusters/LCBOP/Higher-Symm/SD-CG/FIRE-CG
REM
REM
REM
REM
REM
REM ./C.cell (b20cbc046b6831c77cfcea5457e17084)
REM AIRSS Version 0.9.1 bugfix July 2018 build 013d7b7c2542+ Fri, 06 Jul 2018 19:26:36 +0100
REM compiler GCC version 9.2.1 20190827 (Red Hat 9.2.1-1)
REM options -cpp -mtune=generic -march=x86-64 -g -O0 -fpre-include=/usr/include/finclude/math-vector-fortran.h
REM seed 566980052 -894388535 -104969755 11076026 792222344 1590162384 75525973 -689421946 -1297527993 -648973495 324071190 410765214 -213958111 868783570 -1110726508 -209939614 -804358281 -705374428 1487835224 869892445 622355310 699397692 -1872027845 -114619310 -1215599064 -1100042984 851983412 719208411 447595115 174254887 2074480584 399698404 -811044126
REM
CELL 1.54180   50.00000   50.00000   50.00000   90.00000   90.00000   90.00000
LATT -1
SFAC C  
C      1  0.5985030000000  0.4527460000000  0.4354310000000 1.0
C      1  0.4014900000000  0.5472770000000  0.4354580000000 1.0
C      1  0.6083790000000  0.5482720000000  0.5372190000000 1.0
C      1  0.3916250000000  0.4517150000000  0.5372140000000 1.0
C      1  0.4385230000000  0.5945260000000  0.4931810000000 1.0
C      1  0.5614760000000  0.4054770000000  0.4931410000000 1.0
C      1  0.4421910000000  0.4125890000000  0.5169740000000 1.0
C      1  0.5578110000000  0.5874050000000  0.5169990000000 1.0
C      1  0.5760910000000  0.4659320000000  0.4376340000000 1.0
C      1  0.4239020000000  0.5340900000000  0.4376540000000 1.0
C      1  0.5851840000000  0.5371180000000  0.5415250000000 1.0
C      1  0.4148210000000  0.4628680000000  0.5415210000000 1.0
C      1  0.4527540000000  0.5563110000000  0.5320760000000 1.0
C      1  0.5472490000000  0.4436780000000  0.5320510000000 1.0
C      1  0.4548330000000  0.4470400000000  0.4736500000000 1.0
C      1  0.5451640000000  0.5529690000000  0.4736640000000 1.0
C      1  0.5018190000000  0.4624950000000  0.6098140000000 1.0
C      1  0.4981920000000  0.5374650000000  0.6098270000000 1.0
C      1  0.4970070000000  0.5466130000000  0.3858100000000 1.0
C      1  0.5029810000000  0.4534280000000  0.3857930000000 1.0
C      1  0.4814980000000  0.3748450000000  0.5262500000000 1.0
C      1  0.5185050000000  0.6251460000000  0.5262930000000 1.0
C      1  0.4874920000000  0.6291040000000  0.4894680000000 1.0
C      1  0.5125070000000  0.3708990000000  0.4894210000000 1.0
C      1  0.5452680000000  0.5684310000000  0.5605370000000 1.0
C      1  0.4547380000000  0.4315480000000  0.5605180000000 1.0
C      1  0.5531220000000  0.4203150000000  0.4473580000000 1.0
C      1  0.4468730000000  0.5797040000000  0.4473920000000 1.0
C      1  0.5233740000000  0.4977290000000  0.5578030000000 1.0
C      1  0.4766320000000  0.5022500000000  0.5578070000000 1.0
C      1  0.5071060000000  0.5109040000000  0.4311680000000 1.0
C      1  0.4928870000000  0.4891200000000  0.4311650000000 1.0
C      1  0.4811510000000  0.5999190000000  0.5615560000000 1.0
C      1  0.5188550000000  0.4000600000000  0.5615190000000 1.0
C      1  0.4840580000000  0.3957190000000  0.4472000000000 1.0
C      1  0.5159360000000  0.6042990000000  0.4472360000000 1.0
C      1  0.4581360000000  0.5122480000000  0.3907650000000 1.0
C      1  0.5418520000000  0.4877910000000  0.3907560000000 1.0
C      1  0.4532160000000  0.4767330000000  0.5949030000000 1.0
C      1  0.5467940000000  0.5232330000000  0.5949060000000 1.0
C      1  0.5303130000000  0.5781850000000  0.5111580000000 1.0
C      1  0.4696880000000  0.4218110000000  0.5111330000000 1.0
C      1  0.5340060000000  0.4147290000000  0.4965260000000 1.0
C      1  0.4659930000000  0.5852730000000  0.4965600000000 1.0
C      1  0.5649260000000  0.4006290000000  0.5426840000000 1.0
C      1  0.4350780000000  0.5993560000000  0.5427270000000 1.0
C      1  0.5614910000000  0.5980560000000  0.4683030000000 1.0
C      1  0.4385050000000  0.4019550000000  0.4682740000000 1.0
C      1  0.5521850000000  0.4651950000000  0.5926650000000 1.0
C      1  0.4478250000000  0.5347710000000  0.5926830000000 1.0
C      1  0.5431360000000  0.5482650000000  0.4064610000000 1.0
C      1  0.4568540000000  0.4517680000000  0.4064490000000 1.0
C      1  0.4822020000000  0.5336620000000  0.4998600000000 1.0
C      1  0.5177980000000  0.4663380000000  0.4998460000000 1.0
C      1  0.4864800000000  0.4731140000000  0.5010200000000 1.0
C      1  0.5135210000000  0.5268850000000  0.5010280000000 1.0
C      1  0.5855650000000  0.4828640000000  0.5262730000000 1.0
C      1  0.4144380000000  0.5171260000000  0.5262880000000 1.0
C      1  0.5801020000000  0.5184130000000  0.4625100000000 1.0
C      1  0.4198940000000  0.4816010000000  0.4625110000000 1.0
C      1  0.5035560000000  0.5381200000000  0.4314500000000 1.0
C      1  0.4964360000000  0.4619050000000  0.4314360000000 1.0
C      1  0.5141970000000  0.4732970000000  0.5662790000000 1.0
C      1  0.4858100000000  0.5266800000000  0.5662900000000 1.0
C      1  0.5650230000000  0.5184220000000  0.5467520000000 1.0
C      1  0.4349820000000  0.4815610000000  0.5467520000000 1.0
C      1  0.5582390000000  0.4874290000000  0.4367950000000 1.0
C      1  0.4417540000000  0.5125940000000  0.4368060000000 1.0
C      1  0.4966320000000  0.3600450000000  0.5079530000000 1.0
C      1  0.5033690000000  0.6399520000000  0.5080020000000 1.0
C      1  0.5357300000000  0.6371510000000  0.5437420000000 1.0
C      1  0.4642750000000  0.3628330000000  0.5436970000000 1.0
C      1  0.4567370000000  0.6106610000000  0.5570460000000 1.0
C      1  0.5432690000000  0.3893180000000  0.5570020000000 1.0
C      1  0.4590970000000  0.3883170000000  0.4544880000000 1.0
C      1  0.5408990000000  0.6117000000000  0.4545240000000 1.0
C      1  0.5617230000000  0.5705390000000  0.4618540000000 1.0
C      1  0.4382730000000  0.4294750000000  0.4618350000000 1.0
C      1  0.5651610000000  0.4288090000000  0.5455880000000 1.0
C      1  0.4348440000000  0.5711750000000  0.5456200000000 1.0
C      1  0.4452550000000  0.4987710000000  0.4118650000000 1.0
C      1  0.5547350000000  0.5012610000000  0.4118600000000 1.0
C      1  0.4400600000000  0.4906650000000  0.5736550000000 1.0
C      1  0.5599480000000  0.5093090000000  0.5736520000000 1.0
C      1  0.4853610000000  0.4502150000000  0.4078590000000 1.0
C      1  0.5146290000000  0.5498180000000  0.4078750000000 1.0
C      1  0.4765280000000  0.5357110000000  0.5915080000000 1.0
C      1  0.5234820000000  0.4642560000000  0.5914930000000 1.0
C      1  0.4694430000000  0.5596620000000  0.5091830000000 1.0
C      1  0.5305580000000  0.4403340000000  0.5091590000000 1.0
C      1  0.4712840000000  0.4470900000000  0.4967690000000 1.0
C      1  0.5287160000000  0.5529110000000  0.4967840000000 1.0
C      1  0.5137450000000  0.5967970000000  0.5261430000000 1.0
C      1  0.4862580000000  0.4031930000000  0.5261100000000 1.0
C      1  0.5162310000000  0.3976810000000  0.4823980000000 1.0
C      1  0.4837670000000  0.6023250000000  0.4824370000000 1.0
C      1  0.5696750000000  0.4099390000000  0.4664290000000 1.0
C      1  0.4303210000000  0.5900730000000  0.4664690000000 1.0
C      1  0.5630530000000  0.5815300000000  0.5443210000000 1.0
C      1  0.4369520000000  0.4184540000000  0.5442980000000 1.0
C      1  0.5222580000000  0.4745350000000  0.4712980000000 1.0
C      1  0.4777390000000  0.5254750000000  0.4713090000000 1.0
C      1  0.5136990000000  0.5095140000000  0.5269810000000 1.0
C      1  0.4863040000000  0.4904760000000  0.5269790000000 1.0
C      1  0.4454910000000  0.4954000000000  0.4606460000000 1.0
C      1  0.5545040000000  0.5046140000000  0.4606420000000 1.0
C      1  0.4396260000000  0.5026660000000  0.5264320000000 1.0
C      1  0.5603770000000  0.4973250000000  0.5264240000000 1.0
C      1  0.4744230000000  0.5723450000000  0.4478500000000 1.0
C      1  0.5255720000000  0.4276730000000  0.4478210000000 1.0
C      1  0.4825800000000  0.4375010000000  0.5571570000000 1.0
C      1  0.5174260000000  0.5624780000000  0.5571770000000 1.0
C      1  0.3993310000000  0.5094220000000  0.5034220000000 1.0
C      1  0.6006690000000  0.4905760000000  0.5034080000000 1.0
C      1  0.4024160000000  0.4924790000000  0.4821690000000 1.0
C      1  0.5975820000000  0.5075270000000  0.4821610000000 1.0
C      1  0.4838380000000  0.5455760000000  0.4504320000000 1.0
C      1  0.5161570000000  0.4544410000000  0.4504140000000 1.0
C      1  0.4936430000000  0.4625360000000  0.5511660000000 1.0
C      1  0.5063620000000  0.5374450000000  0.5511790000000 1.0
C      1  0.4752550000000  0.4681910000000  0.6081140000000 1.0
C      1  0.5247570000000  0.5317700000000  0.6081230000000 1.0
C      1  0.4757280000000  0.5304280000000  0.3816080000000 1.0
C      1  0.5242590000000  0.4696140000000  0.3815940000000 1.0
C      1  0.4705260000000  0.4962590000000  0.4751350000000 1.0
C      1  0.5294710000000  0.5037500000000  0.4751330000000 1.0
C      1  0.4650280000000  0.5115930000000  0.5163140000000 1.0
C      1  0.5349740000000  0.4884010000000  0.5163060000000 1.0
C      1  0.4374130000000  0.4709100000000  0.4148210000000 1.0
C      1  0.5625780000000  0.5291200000000  0.4148250000000 1.0
C      1  0.4301230000000  0.5183590000000  0.5768090000000 1.0
C      1  0.5698850000000  0.4816130000000  0.5767950000000 1.0
C      1  0.5878710000000  0.4740050000000  0.5544960000000 1.0
C      1  0.4121350000000  0.5259760000000  0.5545140000000 1.0
C      1  0.5818800000000  0.5325830000000  0.4367500000000 1.0
C      1  0.4181130000000  0.4674390000000  0.4367470000000 1.0
C      1  0.4310900000000  0.3976770000000  0.4955440000000 1.0
C      1  0.5689090000000  0.6023240000000  0.4955730000000 1.0
C      1  0.4278230000000  0.6070350000000  0.5162350000000 1.0
C      1  0.5721790000000  0.3929590000000  0.5161890000000 1.0
C      1  0.5078720000000  0.4069790000000  0.4569750000000 1.0
C      1  0.4921240000000  0.5930360000000  0.4570090000000 1.0
C      1  0.5023310000000  0.5857670000000  0.5497810000000 1.0
C      1  0.4976740000000  0.4142150000000  0.5497510000000 1.0
END
