TITL C-3623284-6838-1608 0.479533941034121 125000 -544.029983704803 0 0 89 (C1) n - 1
REM
REM in /home/nfs/bkarasulu/CARBON/AIRSS/Generating-Clusters/LCBOP/Higher-Symm/SD-CG/FIRE-CG
REM
REM
REM
REM
REM
REM ./C.cell (b20cbc046b6831c77cfcea5457e17084)
REM AIRSS Version 0.9.1 bugfix July 2018 build 013d7b7c2542+ Fri, 06 Jul 2018 19:26:36 +0100
REM compiler GCC version 9.2.1 20190827 (Red Hat 9.2.1-1)
REM options -cpp -mtune=generic -march=x86-64 -g -O0 -fpre-include=/usr/include/finclude/math-vector-fortran.h
REM seed 593977496 963039372 1031060511 188328174 1113255420 982744609 -1390386193 -2111611222 1754557021 51557346 953043583 -98899715 1600156177 -289331197 542747139 -819043278 -518560769 -728516858 -2141025778 -2134596089 1009525104 -502612764 278014363 -1848735328 -1667051346 -433750517 -1954352354 660340318 368720567 -1895695597 566438951 -831312362 -1175058130
REM
CELL 1.54180   50.00000   50.00000   50.00000   90.00000   90.00000   90.00000
LATT -1
SFAC C  
C      1  0.4294150000000  0.4104800000000  0.5690850000000 1.0
C      1  0.4695460000000  0.5438910000000  0.4837800000000 1.0
C      1  0.5127310000000  0.5236320000000  0.4868370000000 1.0
C      1  0.5943280000000  0.6802630000000  0.5911730000000 1.0
C      1  0.4300440000000  0.5658850000000  0.4998660000000 1.0
C      1  0.4375310000000  0.5039680000000  0.5302970000000 1.0
C      1  0.4829350000000  0.4465150000000  0.4925300000000 1.0
C      1  0.5111750000000  0.4891020000000  0.5508090000000 1.0
C      1  0.5449270000000  0.5866730000000  0.5312460000000 1.0
C      1  0.3951160000000  0.4713530000000  0.5398690000000 1.0
C      1  0.6101330000000  0.6124180000000  0.4899010000000 1.0
C      1  0.4558500000000  0.3985530000000  0.5014720000000 1.0
C      1  0.4371660000000  0.5316380000000  0.5372070000000 1.0
C      1  0.4885710000000  0.5192750000000  0.5847770000000 1.0
C      1  0.4618830000000  0.5178270000000  0.4726710000000 1.0
C      1  0.4648470000000  0.5301000000000  0.5789010000000 1.0
C      1  0.6094590000000  0.5975020000000  0.4679680000000 1.0
C      1  0.5469740000000  0.5038200000000  0.4225430000000 1.0
C      1  0.5572550000000  0.5507560000000  0.4350250000000 1.0
C      1  0.4857170000000  0.5743450000000  0.5320990000000 1.0
C      1  0.5000490000000  0.4983030000000  0.4894870000000 1.0
C      1  0.4628880000000  0.3894790000000  0.4775040000000 1.0
C      1  0.5548320000000  0.5234370000000  0.4413850000000 1.0
C      1  0.5286270000000  0.4304210000000  0.5513990000000 1.0
C      1  0.5557760000000  0.4363950000000  0.5098700000000 1.0
C      1  0.5411570000000  0.5211580000000  0.4895820000000 1.0
C      1  0.4596080000000  0.4900480000000  0.5184730000000 1.0
C      1  0.4409010000000  0.5404060000000  0.4347450000000 1.0
C      1  0.5350080000000  0.5645930000000  0.4252640000000 1.0
C      1  0.4985060000000  0.4163800000000  0.4222610000000 1.0
C      1  0.4705230000000  0.4663180000000  0.5326650000000 1.0
C      1  0.5459120000000  0.5381620000000  0.5327440000000 1.0
C      1  0.3780790000000  0.4515450000000  0.5442820000000 1.0
C      1  0.5833030000000  0.6244020000000  0.5343400000000 1.0
C      1  0.4930930000000  0.4665880000000  0.5505280000000 1.0
C      1  0.5345100000000  0.4376690000000  0.4903380000000 1.0
C      1  0.3632080000000  0.4302140000000  0.5493860000000 1.0
C      1  0.5486010000000  0.5121550000000  0.5183900000000 1.0
C      1  0.5520580000000  0.4667390000000  0.4525710000000 1.0
C      1  0.5148860000000  0.4792700000000  0.5041490000000 1.0
C      1  0.5078580000000  0.4408970000000  0.4183200000000 1.0
C      1  0.5052630000000  0.5621190000000  0.5160370000000 1.0
C      1  0.5792220000000  0.4500790000000  0.5002820000000 1.0
C      1  0.5321470000000  0.5622480000000  0.5265120000000 1.0
C      1  0.4868040000000  0.3917620000000  0.4287280000000 1.0
C      1  0.4737360000000  0.3885360000000  0.4532960000000 1.0
C      1  0.4275240000000  0.5397300000000  0.4109950000000 1.0
C      1  0.4551590000000  0.4178430000000  0.5218430000000 1.0
C      1  0.4682070000000  0.4655630000000  0.4762030000000 1.0
C      1  0.4700910000000  0.4937610000000  0.4887020000000 1.0
C      1  0.4415640000000  0.4131870000000  0.5456990000000 1.0
C      1  0.4401320000000  0.5629410000000  0.4520560000000 1.0
C      1  0.4881310000000  0.3708980000000  0.4110700000000 1.0
C      1  0.4665360000000  0.5675570000000  0.5493670000000 1.0
C      1  0.5696470000000  0.4565850000000  0.5512140000000 1.0
C      1  0.5786910000000  0.4809120000000  0.5432470000000 1.0
C      1  0.5052730000000  0.4420850000000  0.5578910000000 1.0
C      1  0.4964570000000  0.5459650000000  0.4939230000000 1.0
C      1  0.5907600000000  0.6621630000000  0.5727530000000 1.0
C      1  0.5108780000000  0.4520870000000  0.4964360000000 1.0
C      1  0.5778180000000  0.4780820000000  0.4948070000000 1.0
C      1  0.4686890000000  0.4420030000000  0.5170790000000 1.0
C      1  0.4236650000000  0.5499560000000  0.5204950000000 1.0
C      1  0.5130080000000  0.4682160000000  0.4214250000000 1.0
C      1  0.5385340000000  0.4777050000000  0.4296760000000 1.0
C      1  0.5991810000000  0.5803890000000  0.4504950000000 1.0
C      1  0.4170810000000  0.4083840000000  0.5919560000000 1.0
C      1  0.4718520000000  0.5024100000000  0.4272360000000 1.0
C      1  0.4486640000000  0.5629190000000  0.4790850000000 1.0
C      1  0.4508200000000  0.4580500000000  0.4559320000000 1.0
C      1  0.4539260000000  0.5434950000000  0.5569410000000 1.0
C      1  0.5812970000000  0.5642510000000  0.4394280000000 1.0
C      1  0.3375720000000  0.3859270000000  0.5614370000000 1.0
C      1  0.5122720000000  0.5752830000000  0.4183280000000 1.0
C      1  0.3500490000000  0.4079860000000  0.5553280000000 1.0
C      1  0.5571980000000  0.5129410000000  0.4677470000000 1.0
C      1  0.4565520000000  0.5183380000000  0.4444460000000 1.0
C      1  0.4916660000000  0.4864100000000  0.4195840000000 1.0
C      1  0.5524620000000  0.4376610000000  0.5384090000000 1.0
C      1  0.5266320000000  0.4919680000000  0.5270800000000 1.0
C      1  0.5661360000000  0.4856660000000  0.4698200000000 1.0
C      1  0.5438820000000  0.4420480000000  0.4637580000000 1.0
C      1  0.4143570000000  0.4890140000000  0.5354670000000 1.0
C      1  0.4337980000000  0.4484540000000  0.4386880000000 1.0
C      1  0.6011100000000  0.6220660000000  0.5129060000000 1.0
C      1  0.5085500000000  0.5067440000000  0.5722220000000 1.0
C      1  0.5733320000000  0.4944220000000  0.5186280000000 1.0
C      1  0.5871330000000  0.6437680000000  0.5540330000000 1.0
C      1  0.5615520000000  0.6068500000000  0.5355680000000 1.0
END
