TITL C-3623289-7120-1970 1.96761774178592e-07 125000 -234.771380797301 0 0 40 (C1) n - 1
REM
REM in /home/nfs/bkarasulu/CARBON/AIRSS/Generating-Clusters/LCBOP/Higher-Symm/SD-CG/FIRE-CG
REM
REM
REM
REM
REM
REM ./C.cell (b20cbc046b6831c77cfcea5457e17084)
REM AIRSS Version 0.9.1 bugfix July 2018 build 013d7b7c2542+ Fri, 06 Jul 2018 19:26:36 +0100
REM compiler GCC version 9.2.1 20190827 (Red Hat 9.2.1-1)
REM options -cpp -mtune=generic -march=x86-64 -g -O0 -fpre-include=/usr/include/finclude/math-vector-fortran.h
REM seed 150063882 41167783 -188207283 -313851068 478053866 412524904 128229334 218627089 -1004435017 -440066012 663669559 -324943049 461600224 1649929192 90192992 1900674407 1854472285 600100486 1731758726 439697553 -623778630 2008102091 -1930603178 224096918 -579111769 1174346701 -1146767972 1139231560 1283175294 -482585976 1781764026 -1072246796 1047554576
REM
CELL 1.54180   50.00000   50.00000   50.00000   90.00000   90.00000   90.00000
LATT -1
SFAC C  
C      1  0.4400310000000  0.4647270000000  0.4598250000000 1.0
C      1  0.4323760000000  0.5168470000000  0.5409110000000 1.0
C      1  0.4634910000000  0.5597430000000  0.4594460000000 1.0
C      1  0.5171280000000  0.5678340000000  0.5406270000000 1.0
C      1  0.5598770000000  0.5353000000000  0.4592810000000 1.0
C      1  0.5677590000000  0.4832350000000  0.5394800000000 1.0
C      1  0.5372170000000  0.4390930000000  0.4622190000000 1.0
C      1  0.4827280000000  0.4315630000000  0.5384930000000 1.0
C      1  0.5105060000000  0.5419390000000  0.5331170000000 1.0
C      1  0.5362370000000  0.5226680000000  0.4665800000000 1.0
C      1  0.5417400000000  0.4900540000000  0.5325750000000 1.0
C      1  0.5226800000000  0.4622550000000  0.4673030000000 1.0
C      1  0.4893720000000  0.4578760000000  0.5325040000000 1.0
C      1  0.4628410000000  0.4788380000000  0.4670210000000 1.0
C      1  0.4584340000000  0.5108080000000  0.5334510000000 1.0
C      1  0.4776050000000  0.5370970000000  0.4670960000000 1.0
C      1  0.4888730000000  0.5188890000000  0.4487490000000 1.0
C      1  0.5054930000000  0.5212650000000  0.5516780000000 1.0
C      1  0.5175130000000  0.5132820000000  0.4480700000000 1.0
C      1  0.5216690000000  0.4954030000000  0.5515470000000 1.0
C      1  0.5123470000000  0.4782560000000  0.4471870000000 1.0
C      1  0.4944540000000  0.4771210000000  0.5520470000000 1.0
C      1  0.4804420000000  0.4902130000000  0.4483380000000 1.0
C      1  0.4790480000000  0.5060680000000  0.5519980000000 1.0
C      1  0.4664840000000  0.5088990000000  0.5061480000000 1.0
C      1  0.4819990000000  0.5301550000000  0.4944400000000 1.0
C      1  0.5081890000000  0.5339500000000  0.5058210000000 1.0
C      1  0.5291790000000  0.5182310000000  0.4938770000000 1.0
C      1  0.5331700000000  0.4921920000000  0.5054350000000 1.0
C      1  0.5175090000000  0.4709870000000  0.4939470000000 1.0
C      1  0.4914860000000  0.4671310000000  0.5055930000000 1.0
C      1  0.4703110000000  0.4829550000000  0.4942600000000 1.0
C      1  0.4185700000000  0.4513980000000  0.4534290000000 1.0
C      1  0.4078310000000  0.5225070000000  0.5475920000000 1.0
C      1  0.4501690000000  0.5810500000000  0.4525440000000 1.0
C      1  0.5233670000000  0.5922200000000  0.5473770000000 1.0
C      1  0.5821910000000  0.5470920000000  0.4527890000000 1.0
C      1  0.5922610000000  0.4767520000000  0.5455440000000 1.0
C      1  0.5509230000000  0.4173250000000  0.4580410000000 1.0
C      1  0.4764980000000  0.4067830000000  0.5436190000000 1.0
END
