TITL C-3623286-7563-1010 -1294.71743568919 125000 -666.176942031097 0 0 111 (C1) n - 1
REM
REM in /home/nfs/bkarasulu/CARBON/AIRSS/Generating-Clusters/LCBOP/Higher-Symm/SD-CG/FIRE-CG
REM
REM
REM
REM
REM
REM ./C.cell (b20cbc046b6831c77cfcea5457e17084)
REM AIRSS Version 0.9.1 bugfix July 2018 build 013d7b7c2542+ Fri, 06 Jul 2018 19:26:36 +0100
REM compiler GCC version 9.2.1 20190827 (Red Hat 9.2.1-1)
REM options -cpp -mtune=generic -march=x86-64 -g -O0 -fpre-include=/usr/include/finclude/math-vector-fortran.h
REM seed -528335723 -321409427 -1399064865 -9347828 -414174186 -390748077 -1247096413 -1158681254 -739389252 -1056514054 -51658410 -820682234 -492571437 -1453181531 141021078 1363813459 -390620781 1922091340 1630121166 -1745496412 -18514264 -1639678658 -1268532618 1160980746 400647448 2134941654 2100052736 -192483804 1796605139 -134613662 1025817241 -147354418 -196241039
REM
CELL 1.54180   50.00000   50.00000   50.00000   90.00000   90.00000   90.00000
LATT -1
SFAC C  
C      1  0.5059860000000  0.4633980000000  0.5362150000000 1.0
C      1  0.5088930000000  0.4796840000000  0.4514630000000 1.0
C      1  0.5070740000000  0.5577620000000  0.5126080000000 1.0
C      1  0.5183900000000  0.4976910000000  0.4288840000000 1.0
C      1  0.5163900000000  0.5725440000000  0.5369540000000 1.0
C      1  0.5140100000000  0.4339300000000  0.5380940000000 1.0
C      1  0.4617480000000  0.4622500000000  0.5653610000000 1.0
C      1  0.4634390000000  0.4611920000000  0.4323590000000 1.0
C      1  0.4602180000000  0.5779120000000  0.5026770000000 1.0
C      1  0.5338770000000  0.5710950000000  0.4660560000000 1.0
C      1  0.5422070000000  0.4950030000000  0.5619820000000 1.0
C      1  0.5435710000000  0.4383870000000  0.4565000000000 1.0
C      1  0.4566180000000  0.4211090000000  0.5108060000000 1.0
C      1  0.4632860000000  0.5294340000000  0.4302500000000 1.0
C      1  0.4616310000000  0.5491370000000  0.5638670000000 1.0
C      1  0.4569520000000  0.4226730000000  0.4583030000000 1.0
C      1  0.4559420000000  0.5736920000000  0.4564720000000 1.0
C      1  0.4574060000000  0.5034650000000  0.5868650000000 1.0
C      1  0.5791850000000  0.5252390000000  0.4292040000000 1.0
C      1  0.5765300000000  0.5582260000000  0.5525560000000 1.0
C      1  0.5782970000000  0.4100420000000  0.5223190000000 1.0
C      1  0.4023130000000  0.4294360000000  0.4669610000000 1.0
C      1  0.4031720000000  0.5562210000000  0.4558010000000 1.0
C      1  0.4035290000000  0.5115130000000  0.5755420000000 1.0
C      1  0.4796970000000  0.4127020000000  0.5786580000000 1.0
C      1  0.4857900000000  0.4761060000000  0.3862370000000 1.0
C      1  0.4792620000000  0.6147360000000  0.5383640000000 1.0
C      1  0.5185130000000  0.6195870000000  0.5096260000000 1.0
C      1  0.5207730000000  0.4334080000000  0.5947680000000 1.0
C      1  0.5257740000000  0.4514270000000  0.3979410000000 1.0
C      1  0.5756050000000  0.4704250000000  0.4733670000000 1.0
C      1  0.5739770000000  0.5501950000000  0.4812060000000 1.0
C      1  0.5754980000000  0.4802490000000  0.5309960000000 1.0
C      1  0.5059730000000  0.4069380000000  0.5395510000000 1.0
C      1  0.5124500000000  0.5109390000000  0.4046470000000 1.0
C      1  0.5091040000000  0.5855960000000  0.5607770000000 1.0
C      1  0.5495480000000  0.5753050000000  0.5905170000000 1.0
C      1  0.5429500000000  0.3766530000000  0.5180170000000 1.0
C      1  0.5508700000000  0.5449350000000  0.3947950000000 1.0
C      1  0.5700860000000  0.5635440000000  0.5779680000000 1.0
C      1  0.5676710000000  0.3865500000000  0.5150480000000 1.0
C      1  0.5727910000000  0.5429450000000  0.4101110000000 1.0
C      1  0.4928290000000  0.4350110000000  0.5911760000000 1.0
C      1  0.4974460000000  0.4529060000000  0.3988290000000 1.0
C      1  0.4905650000000  0.6152420000000  0.5118560000000 1.0
C      1  0.5677670000000  0.5635280000000  0.5265120000000 1.0
C      1  0.5691290000000  0.4329740000000  0.5355610000000 1.0
C      1  0.5685640000000  0.5011190000000  0.4386570000000 1.0
C      1  0.4709130000000  0.5321670000000  0.4921740000000 1.0
C      1  0.4711160000000  0.4942880000000  0.5315860000000 1.0
C      1  0.4664460000000  0.4743230000000  0.4769500000000 1.0
C      1  0.4631530000000  0.5772310000000  0.5684670000000 1.0
C      1  0.4591380000000  0.4034050000000  0.5329430000000 1.0
C      1  0.4660520000000  0.5197670000000  0.4035330000000 1.0
C      1  0.4435230000000  0.4861180000000  0.4860720000000 1.0
C      1  0.4456810000000  0.5211770000000  0.4939000000000 1.0
C      1  0.4460300000000  0.4988160000000  0.5208380000000 1.0
C      1  0.5668540000000  0.4958990000000  0.5511940000000 1.0
C      1  0.5679470000000  0.4455890000000  0.4656230000000 1.0
C      1  0.5597720000000  0.5643650000000  0.4630330000000 1.0
C      1  0.4140940000000  0.4870900000000  0.5697780000000 1.0
C      1  0.4143310000000  0.4460190000000  0.4490360000000 1.0
C      1  0.4129190000000  0.5657950000000  0.4793550000000 1.0
C      1  0.4870920000000  0.5035000000000  0.3936530000000 1.0
C      1  0.4825370000000  0.5959600000000  0.5595500000000 1.0
C      1  0.4803650000000  0.4033860000000  0.5518400000000 1.0
C      1  0.4829230000000  0.4590910000000  0.4942550000000 1.0
C      1  0.4884380000000  0.5189640000000  0.4747620000000 1.0
C      1  0.4901700000000  0.5163480000000  0.5341170000000 1.0
C      1  0.5106550000000  0.4694900000000  0.5039840000000 1.0
C      1  0.5133200000000  0.4952270000000  0.4793610000000 1.0
C      1  0.5157300000000  0.5278490000000  0.5197000000000 1.0
C      1  0.4765020000000  0.6003730000000  0.4921470000000 1.0
C      1  0.4798350000000  0.4600140000000  0.5885990000000 1.0
C      1  0.4819100000000  0.4416660000000  0.4199500000000 1.0
C      1  0.4749730000000  0.5123530000000  0.4497870000000 1.0
C      1  0.4733110000000  0.5405110000000  0.5395440000000 1.0
C      1  0.4678010000000  0.4467270000000  0.5156130000000 1.0
C      1  0.5606010000000  0.5903300000000  0.5196960000000 1.0
C      1  0.5620570000000  0.4315230000000  0.5629440000000 1.0
C      1  0.5635920000000  0.4806010000000  0.4192480000000 1.0
C      1  0.5631960000000  0.4951800000000  0.4664030000000 1.0
C      1  0.5636070000000  0.5431730000000  0.5068530000000 1.0
C      1  0.5629910000000  0.4568290000000  0.5210860000000 1.0
C      1  0.5399690000000  0.4594020000000  0.5040310000000 1.0
C      1  0.5414300000000  0.5058210000000  0.4832400000000 1.0
C      1  0.5421910000000  0.5233990000000  0.5063580000000 1.0
C      1  0.5204870000000  0.4810900000000  0.5548330000000 1.0
C      1  0.5212230000000  0.4526540000000  0.4520660000000 1.0
C      1  0.5167810000000  0.5673760000000  0.4863030000000 1.0
C      1  0.5451000000000  0.4317940000000  0.5836530000000 1.0
C      1  0.5490460000000  0.4631500000000  0.4048160000000 1.0
C      1  0.5433720000000  0.6100070000000  0.5134440000000 1.0
C      1  0.5280530000000  0.5311220000000  0.3934680000000 1.0
C      1  0.5257100000000  0.5849710000000  0.5831440000000 1.0
C      1  0.5200470000000  0.3857430000000  0.5282510000000 1.0
C      1  0.4457180000000  0.4153780000000  0.4845300000000 1.0
C      1  0.4484180000000  0.5529740000000  0.4374810000000 1.0
C      1  0.4482500000000  0.5303220000000  0.5808690000000 1.0
C      1  0.4422550000000  0.4460170000000  0.4453710000000 1.0
C      1  0.4402250000000  0.5719970000000  0.4824130000000 1.0
C      1  0.4417150000000  0.4821130000000  0.5721330000000 1.0
C      1  0.4198680000000  0.5508830000000  0.4349270000000 1.0
C      1  0.4196630000000  0.5324710000000  0.5821310000000 1.0
C      1  0.4170690000000  0.4134990000000  0.4834190000000 1.0
C      1  0.4782720000000  0.4872220000000  0.5995280000000 1.0
C      1  0.4786940000000  0.4188210000000  0.4386150000000 1.0
C      1  0.4748620000000  0.5951390000000  0.4631780000000 1.0
C      1  0.4752360000000  0.4651530000000  0.5389150000000 1.0
C      1  0.4772270000000  0.4816010000000  0.4495530000000 1.0
C      1  0.4762500000000  0.5546850000000  0.5124660000000 1.0
END
