TITL C-3623285-6872-605 4553.12134540416 125000 -918.444146356809 0 0 144 (C1) n - 1
REM
REM in /home/nfs/bkarasulu/CARBON/AIRSS/Generating-Clusters/LCBOP/Higher-Symm/SD-CG/FIRE-CG
REM
REM
REM
REM
REM
REM ./C.cell (b20cbc046b6831c77cfcea5457e17084)
REM AIRSS Version 0.9.1 bugfix July 2018 build 013d7b7c2542+ Fri, 06 Jul 2018 19:26:36 +0100
REM compiler GCC version 9.2.1 20190827 (Red Hat 9.2.1-1)
REM options -cpp -mtune=generic -march=x86-64 -g -O0 -fpre-include=/usr/include/finclude/math-vector-fortran.h
REM seed 187839759 130098795 822089853 -199718400 -1288559639 -2130686935 -355748961 999929101 -1155546343 2112740300 1045408580 -1502442675 1706718796 1317469933 -589165351 -1923097329 -623242387 -688487905 -310187115 -1177106281 1966805750 1983044889 -1427635850 -1939740240 1971196044 1585684470 -1643365567 610719277 -1831635127 283497466 920493169 792856762 -676453254
REM
CELL 1.54180   50.00000   50.00000   50.00000   90.00000   90.00000   90.00000
LATT -1
SFAC C  
C      1  0.4710360000000  0.5850510000000  0.4568190000000 1.0
C      1  0.4553590000000  0.4695760000000  0.5868290000000 1.0
C      1  0.5870980000000  0.4555830000000  0.4690270000000 1.0
C      1  0.4712550000000  0.4136940000000  0.5418070000000 1.0
C      1  0.5261980000000  0.4144910000000  0.4556740000000 1.0
C      1  0.5273000000000  0.5860220000000  0.5433780000000 1.0
C      1  0.4569480000000  0.5281120000000  0.4136860000000 1.0
C      1  0.5439330000000  0.5285180000000  0.5868540000000 1.0
C      1  0.5418740000000  0.4722290000000  0.4134420000000 1.0
C      1  0.5864430000000  0.5440510000000  0.5281930000000 1.0
C      1  0.4138760000000  0.5448800000000  0.4717170000000 1.0
C      1  0.4135050000000  0.4563590000000  0.5264840000000 1.0
C      1  0.5271510000000  0.5865940000000  0.4569780000000 1.0
C      1  0.5437060000000  0.4717750000000  0.5856790000000 1.0
C      1  0.4123940000000  0.4564130000000  0.4705110000000 1.0
C      1  0.5267860000000  0.4152160000000  0.5412160000000 1.0
C      1  0.4696010000000  0.4125350000000  0.4546320000000 1.0
C      1  0.4710500000000  0.5863810000000  0.5445830000000 1.0
C      1  0.5421910000000  0.5275720000000  0.4144950000000 1.0
C      1  0.4572590000000  0.5266120000000  0.5855480000000 1.0
C      1  0.4554210000000  0.4719570000000  0.4125640000000 1.0
C      1  0.4142990000000  0.5425570000000  0.5276000000000 1.0
C      1  0.5858370000000  0.5439550000000  0.4714270000000 1.0
C      1  0.5850450000000  0.4580770000000  0.5260110000000 1.0
C      1  0.6086020000000  0.5330700000000  0.5138940000000 1.0
C      1  0.5133720000000  0.6084850000000  0.5326600000000 1.0
C      1  0.5327660000000  0.5140450000000  0.6088190000000 1.0
C      1  0.6087220000000  0.4673860000000  0.4835670000000 1.0
C      1  0.3909540000000  0.4676740000000  0.5132700000000 1.0
C      1  0.3913350000000  0.5336500000000  0.4852500000000 1.0
C      1  0.5128940000000  0.3915910000000  0.4661370000000 1.0
C      1  0.4852070000000  0.3913330000000  0.5310190000000 1.0
C      1  0.4837060000000  0.6083690000000  0.4672710000000 1.0
C      1  0.5315200000000  0.4860620000000  0.3908160000000 1.0
C      1  0.4669520000000  0.4839190000000  0.6086910000000 1.0
C      1  0.4670130000000  0.5144750000000  0.3908010000000 1.0
C      1  0.3914630000000  0.5326500000000  0.5138930000000 1.0
C      1  0.4847380000000  0.6085300000000  0.5329970000000 1.0
C      1  0.4673580000000  0.5126330000000  0.6082700000000 1.0
C      1  0.3905010000000  0.4679570000000  0.4846400000000 1.0
C      1  0.6080000000000  0.4679280000000  0.5122690000000 1.0
C      1  0.6084480000000  0.5332440000000  0.4851920000000 1.0
C      1  0.4842040000000  0.3907480000000  0.4659520000000 1.0
C      1  0.5137960000000  0.3921100000000  0.5308020000000 1.0
C      1  0.5125740000000  0.6088360000000  0.4675230000000 1.0
C      1  0.4666170000000  0.4858720000000  0.3903790000000 1.0
C      1  0.5328820000000  0.4853330000000  0.6083780000000 1.0
C      1  0.5316350000000  0.5146520000000  0.3914200000000 1.0
C      1  0.6244890000000  0.4866350000000  0.5255040000000 1.0
C      1  0.5252950000000  0.6252550000000  0.4866250000000 1.0
C      1  0.4862530000000  0.5256950000000  0.6246920000000 1.0
C      1  0.6244320000000  0.5141110000000  0.4719130000000 1.0
C      1  0.3750870000000  0.5135930000000  0.5266850000000 1.0
C      1  0.3748970000000  0.4877350000000  0.4719170000000 1.0
C      1  0.5271130000000  0.3759820000000  0.5118900000000 1.0
C      1  0.4717090000000  0.3745360000000  0.4853880000000 1.0
C      1  0.4713420000000  0.6241120000000  0.5136220000000 1.0
C      1  0.4857720000000  0.4729260000000  0.3741900000000 1.0
C      1  0.5136870000000  0.4719690000000  0.6242100000000 1.0
C      1  0.5129150000000  0.5280800000000  0.3751550000000 1.0
C      1  0.3750750000000  0.4867120000000  0.5267100000000 1.0
C      1  0.4704430000000  0.6238660000000  0.4867460000000 1.0
C      1  0.5131230000000  0.5265000000000  0.6248150000000 1.0
C      1  0.3753200000000  0.5146190000000  0.4718920000000 1.0
C      1  0.6246190000000  0.5135030000000  0.5264420000000 1.0
C      1  0.6244250000000  0.4872360000000  0.4710000000000 1.0
C      1  0.4722450000000  0.3747340000000  0.5122680000000 1.0
C      1  0.5264500000000  0.3755840000000  0.4850130000000 1.0
C      1  0.5260560000000  0.6248280000000  0.5134890000000 1.0
C      1  0.5126650000000  0.4731840000000  0.3742600000000 1.0
C      1  0.4868070000000  0.4712340000000  0.6242990000000 1.0
C      1  0.4860260000000  0.5276470000000  0.3746070000000 1.0
C      1  0.4470530000000  0.5781580000000  0.5319260000000 1.0
C      1  0.5299140000000  0.4484940000000  0.5766610000000 1.0
C      1  0.5771570000000  0.5301530000000  0.4481460000000 1.0
C      1  0.4454300000000  0.4203210000000  0.4673850000000 1.0
C      1  0.5496140000000  0.4247370000000  0.5276900000000 1.0
C      1  0.5514140000000  0.5789040000000  0.4696510000000 1.0
C      1  0.5294630000000  0.5509670000000  0.4236230000000 1.0
C      1  0.4693630000000  0.5513500000000  0.5786180000000 1.0
C      1  0.4675200000000  0.4475310000000  0.4203180000000 1.0
C      1  0.5778000000000  0.4703730000000  0.5505710000000 1.0
C      1  0.4213770000000  0.4700450000000  0.4474080000000 1.0
C      1  0.4240440000000  0.5282320000000  0.5498400000000 1.0
C      1  0.5508010000000  0.5773900000000  0.5301870000000 1.0
C      1  0.4676530000000  0.4450580000000  0.5791290000000 1.0
C      1  0.4230280000000  0.5310330000000  0.4486370000000 1.0
C      1  0.5501320000000  0.4231830000000  0.4680980000000 1.0
C      1  0.4479020000000  0.4220800000000  0.5282400000000 1.0
C      1  0.4568760000000  0.5680410000000  0.4749150000000 1.0
C      1  0.4698810000000  0.5520170000000  0.4212130000000 1.0
C      1  0.5307160000000  0.5523720000000  0.5786440000000 1.0
C      1  0.5276840000000  0.4495210000000  0.4222310000000 1.0
C      1  0.4229010000000  0.4688240000000  0.5500650000000 1.0
C      1  0.5793820000000  0.4680370000000  0.4445550000000 1.0
C      1  0.5787850000000  0.5314660000000  0.5525800000000 1.0
C      1  0.4365860000000  0.4858270000000  0.4296040000000 1.0
C      1  0.4278310000000  0.4356460000000  0.4834920000000 1.0
C      1  0.4831410000000  0.4294750000000  0.4354480000000 1.0
C      1  0.4387880000000  0.5128450000000  0.5682560000000 1.0
C      1  0.5622290000000  0.5140600000000  0.4302370000000 1.0
C      1  0.5636460000000  0.4857200000000  0.5698320000000 1.0
C      1  0.4294390000000  0.5635820000000  0.5152670000000 1.0
C      1  0.5696310000000  0.5636220000000  0.4851670000000 1.0
C      1  0.5681520000000  0.4392480000000  0.5122440000000 1.0
C      1  0.4849150000000  0.5701830000000  0.5641480000000 1.0
C      1  0.5140010000000  0.5698230000000  0.4375930000000 1.0
C      1  0.5135840000000  0.4305880000000  0.5617880000000 1.0
C      1  0.5627650000000  0.4848540000000  0.4288450000000 1.0
C      1  0.5690920000000  0.4378150000000  0.4831710000000 1.0
C      1  0.5122490000000  0.4306910000000  0.4363640000000 1.0
C      1  0.5638740000000  0.5152140000000  0.5705520000000 1.0
C      1  0.4375950000000  0.5149350000000  0.4304810000000 1.0
C      1  0.4377220000000  0.4838040000000  0.5688620000000 1.0
C      1  0.5694870000000  0.5631070000000  0.5144900000000 1.0
C      1  0.4307800000000  0.5637370000000  0.4859220000000 1.0
C      1  0.4289460000000  0.4361930000000  0.5127470000000 1.0
C      1  0.5143050000000  0.5701830000000  0.5637400000000 1.0
C      1  0.4850870000000  0.5704560000000  0.4360710000000 1.0
C      1  0.4842650000000  0.4290980000000  0.5625590000000 1.0
C      1  0.5276800000000  0.4801830000000  0.4729670000000 1.0
C      1  0.4695400000000  0.5200280000000  0.4826400000000 1.0
C      1  0.4864740000000  0.4705480000000  0.5308400000000 1.0
C      1  0.4998640000000  0.5258380000000  0.5472880000000 1.0
C      1  0.4853960000000  0.5040510000000  0.4653950000000 1.0
C      1  0.4911000000000  0.4812180000000  0.5569070000000 1.0
C      1  0.4669000000000  0.4823740000000  0.5140970000000 1.0
C      1  0.5542000000000  0.4881520000000  0.4797680000000 1.0
C      1  0.5489910000000  0.5056450000000  0.5224960000000 1.0
C      1  0.4738660000000  0.5480900000000  0.4842820000000 1.0
C      1  0.5191670000000  0.5482900000000  0.4961270000000 1.0
C      1  0.5139850000000  0.4626850000000  0.4906820000000 1.0
C      1  0.4752180000000  0.4790140000000  0.4609740000000 1.0
C      1  0.5522210000000  0.5117270000000  0.4955680000000 1.0
C      1  0.5134180000000  0.4699380000000  0.5181760000000 1.0
C      1  0.4843110000000  0.5308960000000  0.5248170000000 1.0
C      1  0.5135790000000  0.5060420000000  0.4683850000000 1.0
C      1  0.5110840000000  0.5013100000000  0.5538460000000 1.0
C      1  0.5284070000000  0.4901970000000  0.5331570000000 1.0
C      1  0.4610600000000  0.4675640000000  0.4918030000000 1.0
C      1  0.4685050000000  0.5105030000000  0.5106640000000 1.0
C      1  0.5296420000000  0.5257470000000  0.4833630000000 1.0
C      1  0.4930520000000  0.5507070000000  0.5054110000000 1.0
C      1  0.4912760000000  0.4512210000000  0.4807340000000 1.0
END
