TITL C-3623286-7563-429 0.000878614653165962 125000 -276.753366972348 0 0 47 (C1) n - 1
REM
REM in /home/nfs/bkarasulu/CARBON/AIRSS/Generating-Clusters/LCBOP/Higher-Symm/SD-CG/FIRE-CG
REM
REM
REM
REM
REM
REM ./C.cell (b20cbc046b6831c77cfcea5457e17084)
REM AIRSS Version 0.9.1 bugfix July 2018 build 013d7b7c2542+ Fri, 06 Jul 2018 19:26:36 +0100
REM compiler GCC version 9.2.1 20190827 (Red Hat 9.2.1-1)
REM options -cpp -mtune=generic -march=x86-64 -g -O0 -fpre-include=/usr/include/finclude/math-vector-fortran.h
REM seed 62152392 -330574410 -234850663 149279102 1380956413 1368692905 -1964330850 -579905202 -1156397553 -429371692 -104794951 -1340094728 -250536784 -653572353 -2107796053 1953542193 -1288677799 1598025102 -1779049918 1958769902 -1211276146 1871536787 -1779465534 1961956040 543757435 -558083732 -406181387 -650526497 1127654457 1287326469 597919625 -129260331 -1551296283
REM
CELL 1.54180   50.00000   50.00000   50.00000   90.00000   90.00000   90.00000
LATT -1
SFAC C  
C      1  0.4587730000000  0.4874630000000  0.4863740000000 1.0
C      1  0.5468800000000  0.4740690000000  0.5646530000000 1.0
C      1  0.4839940000000  0.4145630000000  0.4786990000000 1.0
C      1  0.4979460000000  0.5843410000000  0.5068730000000 1.0
C      1  0.4853680000000  0.4181170000000  0.5050000000000 1.0
C      1  0.4912520000000  0.5844350000000  0.4811110000000 1.0
C      1  0.4907860000000  0.4161170000000  0.5527200000000 1.0
C      1  0.4722860000000  0.5906340000000  0.4371750000000 1.0
C      1  0.4171360000000  0.5594370000000  0.4893470000000 1.0
C      1  0.5550410000000  0.4332470000000  0.4872950000000 1.0
C      1  0.4424560000000  0.5420530000000  0.5269110000000 1.0
C      1  0.5278650000000  0.4689530000000  0.4709720000000 1.0
C      1  0.4933660000000  0.4298060000000  0.5291550000000 1.0
C      1  0.4778540000000  0.5744950000000  0.4585100000000 1.0
C      1  0.5383440000000  0.4544040000000  0.4926840000000 1.0
C      1  0.4388400000000  0.5462760000000  0.4993000000000 1.0
C      1  0.4591900000000  0.5356850000000  0.4826030000000 1.0
C      1  0.5314930000000  0.4597520000000  0.5199590000000 1.0
C      1  0.4720650000000  0.5117150000000  0.4916010000000 1.0
C      1  0.5525820000000  0.4666170000000  0.5382420000000 1.0
C      1  0.5134050000000  0.4681510000000  0.4468050000000 1.0
C      1  0.4622200000000  0.5377470000000  0.5465120000000 1.0
C      1  0.4769910000000  0.5293180000000  0.4380220000000 1.0
C      1  0.4896230000000  0.4772190000000  0.5402670000000 1.0
C      1  0.5045660000000  0.4560760000000  0.5291190000000 1.0
C      1  0.4699050000000  0.5471940000000  0.4587220000000 1.0
C      1  0.5077060000000  0.4910160000000  0.4307510000000 1.0
C      1  0.4628890000000  0.5137130000000  0.5616370000000 1.0
C      1  0.5787640000000  0.4700470000000  0.5287360000000 1.0
C      1  0.4990460000000  0.5140460000000  0.4983870000000 1.0
C      1  0.4515520000000  0.4767140000000  0.4627290000000 1.0
C      1  0.5306240000000  0.4877100000000  0.5808260000000 1.0
C      1  0.5234170000000  0.5243650000000  0.4963390000000 1.0
C      1  0.5947630000000  0.4856580000000  0.5141790000000 1.0
C      1  0.5487090000000  0.5299860000000  0.4905580000000 1.0
C      1  0.5933440000000  0.5075590000000  0.4989510000000 1.0
C      1  0.4417150000000  0.5070630000000  0.5776990000000 1.0
C      1  0.5266810000000  0.5018080000000  0.4143010000000 1.0
C      1  0.4601810000000  0.4841670000000  0.4382550000000 1.0
C      1  0.5060250000000  0.4982100000000  0.5795370000000 1.0
C      1  0.4830900000000  0.5565530000000  0.5470540000000 1.0
C      1  0.5012110000000  0.4434260000000  0.4410060000000 1.0
C      1  0.4956680000000  0.5741410000000  0.5313910000000 1.0
C      1  0.4898180000000  0.4231710000000  0.4541670000000 1.0
C      1  0.4855020000000  0.4966060000000  0.5603190000000 1.0
C      1  0.4813950000000  0.5020340000000  0.4323220000000 1.0
C      1  0.5747850000000  0.5246710000000  0.4902890000000 1.0
END
