TITL C-3623287-7182-684 -7.99233590989485e-07 125000 -394.542371332061 0 0 67 (C1) n - 1
REM
REM in /home/nfs/bkarasulu/CARBON/AIRSS/Generating-Clusters/LCBOP/Higher-Symm/SD-CG/FIRE-CG
REM
REM
REM
REM
REM
REM ./C.cell (b20cbc046b6831c77cfcea5457e17084)
REM AIRSS Version 0.9.1 bugfix July 2018 build 013d7b7c2542+ Fri, 06 Jul 2018 19:26:36 +0100
REM compiler GCC version 9.2.1 20190827 (Red Hat 9.2.1-1)
REM options -cpp -mtune=generic -march=x86-64 -g -O0 -fpre-include=/usr/include/finclude/math-vector-fortran.h
REM seed -1038111527 -180576765 -1951999515 319675207 -517039049 2032666060 -506074896 1813655710 2147006676 -735122500 1748327729 -1132845612 -516136661 -1964327190 564968679 -1547705008 185429860 2063322681 1179106051 547594554 428991636 -851634629 -1322748144 -636104197 1267734379 -936268614 1693584215 722513508 -1419660888 963837425 -622726570 1229674101 -1950372298
REM
CELL 1.54180   50.00000   50.00000   50.00000   90.00000   90.00000   90.00000
LATT -1
SFAC C  
C      1  0.5009520000000  0.4882220000000  0.4699820000000 1.0
C      1  0.4699270000000  0.5147350000000  0.5209340000000 1.0
C      1  0.5214810000000  0.4855430000000  0.5147160000000 1.0
C      1  0.4764740000000  0.5410370000000  0.5111430000000 1.0
C      1  0.5245450000000  0.5518110000000  0.4943650000000 1.0
C      1  0.4867800000000  0.5410580000000  0.4634050000000 1.0
C      1  0.4304020000000  0.5511890000000  0.5157480000000 1.0
C      1  0.5412750000000  0.5288130000000  0.5326750000000 1.0
C      1  0.5111760000000  0.5431350000000  0.4205900000000 1.0
C      1  0.5002860000000  0.4927060000000  0.4197950000000 1.0
C      1  0.4483210000000  0.4692220000000  0.5473870000000 1.0
C      1  0.5603700000000  0.4831860000000  0.5375850000000 1.0
C      1  0.5420830000000  0.5083520000000  0.4377660000000 1.0
C      1  0.4263000000000  0.5077400000000  0.4864210000000 1.0
C      1  0.5327170000000  0.5027110000000  0.5733980000000 1.0
C      1  0.4491240000000  0.5638390000000  0.4432390000000 1.0
C      1  0.4821250000000  0.5602490000000  0.5668790000000 1.0
C      1  0.5694100000000  0.5603400000000  0.4846960000000 1.0
C      1  0.5311560000000  0.4638990000000  0.4990780000000 1.0
C      1  0.4779070000000  0.4803680000000  0.4826740000000 1.0
C      1  0.4990570000000  0.4590050000000  0.5448780000000 1.0
C      1  0.5446920000000  0.4591260000000  0.5530580000000 1.0
C      1  0.5166940000000  0.4685660000000  0.4275920000000 1.0
C      1  0.4509610000000  0.4667170000000  0.5165770000000 1.0
C      1  0.5319850000000  0.4730160000000  0.5773950000000 1.0
C      1  0.5440970000000  0.4779770000000  0.4365770000000 1.0
C      1  0.4331600000000  0.4783360000000  0.4916700000000 1.0
C      1  0.4549690000000  0.5406970000000  0.4595010000000 1.0
C      1  0.4969690000000  0.5401130000000  0.5766270000000 1.0
C      1  0.5472320000000  0.5438760000000  0.4748600000000 1.0
C      1  0.5405430000000  0.5547000000000  0.5205140000000 1.0
C      1  0.4948130000000  0.5576410000000  0.4384770000000 1.0
C      1  0.4569420000000  0.5590270000000  0.5227980000000 1.0
C      1  0.4197570000000  0.5288990000000  0.5043070000000 1.0
C      1  0.5507050000000  0.5091560000000  0.5516420000000 1.0
C      1  0.5189020000000  0.5160610000000  0.4218310000000 1.0
C      1  0.4857260000000  0.4291630000000  0.4855870000000 1.0
C      1  0.5030280000000  0.4144900000000  0.5429520000000 1.0
C      1  0.5119660000000  0.4208240000000  0.4950700000000 1.0
C      1  0.4862370000000  0.4901580000000  0.5803990000000 1.0
C      1  0.5657130000000  0.4941050000000  0.4791120000000 1.0
C      1  0.4512800000000  0.4934250000000  0.4466390000000 1.0
C      1  0.5221480000000  0.4703220000000  0.4734730000000 1.0
C      1  0.4745650000000  0.4864490000000  0.5114550000000 1.0
C      1  0.4976720000000  0.4793840000000  0.5269740000000 1.0
C      1  0.5048020000000  0.4684920000000  0.5876380000000 1.0
C      1  0.5637600000000  0.4727630000000  0.4579210000000 1.0
C      1  0.4533510000000  0.4745120000000  0.4687880000000 1.0
C      1  0.5280450000000  0.5119300000000  0.5138180000000 1.0
C      1  0.4995520000000  0.5143900000000  0.4616650000000 1.0
C      1  0.4596930000000  0.5137650000000  0.5478360000000 1.0
C      1  0.4771850000000  0.4183870000000  0.5316070000000 1.0
C      1  0.5282550000000  0.4382200000000  0.5107690000000 1.0
C      1  0.4866490000000  0.4349040000000  0.4575010000000 1.0
C      1  0.5652450000000  0.5669070000000  0.5113060000000 1.0
C      1  0.4719760000000  0.5736780000000  0.4314280000000 1.0
C      1  0.4654750000000  0.5693780000000  0.5476890000000 1.0
C      1  0.4679610000000  0.4349910000000  0.5089700000000 1.0
C      1  0.5217390000000  0.4393000000000  0.5409440000000 1.0
C      1  0.5018240000000  0.4460040000000  0.4376550000000 1.0
C      1  0.5055690000000  0.5133730000000  0.5778750000000 1.0
C      1  0.5527250000000  0.5178610000000  0.4639790000000 1.0
C      1  0.4400840000000  0.5166130000000  0.4611470000000 1.0
C      1  0.4623600000000  0.4898340000000  0.5635880000000 1.0
C      1  0.5696860000000  0.4875570000000  0.5083930000000 1.0
C      1  0.4718200000000  0.4935440000000  0.4261760000000 1.0
C      1  0.4957740000000  0.5489300000000  0.4913300000000 1.0
END
