TITL C-3623285-6872-1551 -2.00174535165811 125000 -415.042958866577 0 0 69 (C1) n - 1
REM
REM in /home/nfs/bkarasulu/CARBON/AIRSS/Generating-Clusters/LCBOP/Higher-Symm/SD-CG/FIRE-CG
REM
REM
REM
REM
REM
REM ./C.cell (b20cbc046b6831c77cfcea5457e17084)
REM AIRSS Version 0.9.1 bugfix July 2018 build 013d7b7c2542+ Fri, 06 Jul 2018 19:26:36 +0100
REM compiler GCC version 9.2.1 20190827 (Red Hat 9.2.1-1)
REM options -cpp -mtune=generic -march=x86-64 -g -O0 -fpre-include=/usr/include/finclude/math-vector-fortran.h
REM seed -999942006 336781658 -1290201423 -1634543585 -1962474402 -400534268 1716758721 -7889538 1031366555 1136103571 713607603 -1801669243 1630818537 -1833823300 -1137374321 -633730420 1741631283 1944880292 1737721191 -453340974 -1680960689 1850424812 -1432507254 710941879 -1507075847 618087530 -310913708 -1889906597 602994546 1832343775 -930662198 525321648 -1327151872
REM
CELL 1.54180   50.00000   50.00000   50.00000   90.00000   90.00000   90.00000
LATT -1
SFAC C  
C      1  0.4669150000000  0.5264080000000  0.5116530000000 1.0
C      1  0.4979520000000  0.4730720000000  0.5183510000000 1.0
C      1  0.5327950000000  0.5061310000000  0.5064420000000 1.0
C      1  0.5222750000000  0.5158900000000  0.4816620000000 1.0
C      1  0.5116850000000  0.4686970000000  0.4935470000000 1.0
C      1  0.4597550000000  0.5137500000000  0.4877910000000 1.0
C      1  0.5575740000000  0.4477700000000  0.5186830000000 1.0
C      1  0.5120140000000  0.5681690000000  0.5198350000000 1.0
C      1  0.4314090000000  0.4755340000000  0.5221600000000 1.0
C      1  0.4490510000000  0.4560140000000  0.4861080000000 1.0
C      1  0.4860240000000  0.5700890000000  0.4833940000000 1.0
C      1  0.5742140000000  0.4759770000000  0.4816090000000 1.0
C      1  0.4943300000000  0.5378990000000  0.5759770000000 1.0
C      1  0.4751200000000  0.4749730000000  0.5762890000000 1.0
C      1  0.5381390000000  0.4857490000000  0.5764870000000 1.0
C      1  0.5096990000000  0.5341870000000  0.4236840000000 1.0
C      1  0.5315230000000  0.4739580000000  0.4232940000000 1.0
C      1  0.4646300000000  0.4867310000000  0.4238780000000 1.0
C      1  0.4845820000000  0.5705000000000  0.5133720000000 1.0
C      1  0.4509190000000  0.4557450000000  0.5157600000000 1.0
C      1  0.5668320000000  0.4726150000000  0.5207160000000 1.0
C      1  0.5140310000000  0.5655250000000  0.4798890000000 1.0
C      1  0.5574220000000  0.4554620000000  0.4794800000000 1.0
C      1  0.4303910000000  0.4767400000000  0.4820360000000 1.0
C      1  0.4735950000000  0.4548580000000  0.4725590000000 1.0
C      1  0.5800810000000  0.5019000000000  0.4747800000000 1.0
C      1  0.4684960000000  0.5531420000000  0.4690070000000 1.0
C      1  0.5380110000000  0.4297720000000  0.5255420000000 1.0
C      1  0.4381470000000  0.5003040000000  0.5328160000000 1.0
C      1  0.5259590000000  0.5458300000000  0.5279010000000 1.0
C      1  0.5505370000000  0.5374180000000  0.4550160000000 1.0
C      1  0.4371760000000  0.5213420000000  0.4508860000000 1.0
C      1  0.5141690000000  0.4411240000000  0.4557120000000 1.0
C      1  0.4506610000000  0.5439080000000  0.5486630000000 1.0
C      1  0.5580740000000  0.5172790000000  0.5442270000000 1.0
C      1  0.4922130000000  0.4377970000000  0.5447840000000 1.0
C      1  0.5368530000000  0.5255550000000  0.4311750000000 1.0
C      1  0.4587580000000  0.5147380000000  0.4294810000000 1.0
C      1  0.5097620000000  0.4576080000000  0.4318050000000 1.0
C      1  0.4672540000000  0.5289720000000  0.5702380000000 1.0
C      1  0.5417280000000  0.5128110000000  0.5681940000000 1.0
C      1  0.4958950000000  0.4555660000000  0.5686260000000 1.0
C      1  0.5303250000000  0.4539400000000  0.4764220000000 1.0
C      1  0.5285190000000  0.5430010000000  0.4730740000000 1.0
C      1  0.4381000000000  0.5016480000000  0.4732440000000 1.0
C      1  0.4769710000000  0.4542520000000  0.5264270000000 1.0
C      1  0.4674110000000  0.5518920000000  0.5253290000000 1.0
C      1  0.5547850000000  0.4969620000000  0.5234990000000 1.0
C      1  0.4836940000000  0.4672670000000  0.4239310000000 1.0
C      1  0.5423170000000  0.4986080000000  0.4238090000000 1.0
C      1  0.4823170000000  0.5312410000000  0.4227740000000 1.0
C      1  0.5220870000000  0.4641380000000  0.5758560000000 1.0
C      1  0.4645600000000  0.5004040000000  0.5773510000000 1.0
C      1  0.5206130000000  0.5307750000000  0.5762330000000 1.0
C      1  0.5100090000000  0.4234510000000  0.5251970000000 1.0
C      1  0.5553050000000  0.5422790000000  0.5276170000000 1.0
C      1  0.4279950000000  0.5291110000000  0.5318550000000 1.0
C      1  0.4911830000000  0.4310260000000  0.4723350000000 1.0
C      1  0.4384520000000  0.5475670000000  0.4690740000000 1.0
C      1  0.5715530000000  0.5292930000000  0.4748990000000 1.0
C      1  0.4989180000000  0.5059510000000  0.4691820000000 1.0
C      1  0.4786450000000  0.5252790000000  0.4691680000000 1.0
C      1  0.4914810000000  0.4786930000000  0.4739250000000 1.0
C      1  0.4672250000000  0.5052430000000  0.5310010000000 1.0
C      1  0.5139900000000  0.5186770000000  0.5260250000000 1.0
C      1  0.4944350000000  0.4982140000000  0.5309250000000 1.0
C      1  0.4981590000000  0.4184190000000  0.4981540000000 1.0
C      1  0.4246030000000  0.5428080000000  0.5003550000000 1.0
C      1  0.5696980000000  0.5423510000000  0.5018000000000 1.0
END
