TITL C-3623288-6813-1509 0.000228407250027663 125000 -827.91361473359 0 0 138 (C1) n - 1
REM
REM in /home/nfs/bkarasulu/CARBON/AIRSS/Generating-Clusters/LCBOP/Higher-Symm/SD-CG/FIRE-CG
REM
REM
REM
REM
REM
REM ./C.cell (b20cbc046b6831c77cfcea5457e17084)
REM AIRSS Version 0.9.1 bugfix July 2018 build 013d7b7c2542+ Fri, 06 Jul 2018 19:26:36 +0100
REM compiler GCC version 9.2.1 20190827 (Red Hat 9.2.1-1)
REM options -cpp -mtune=generic -march=x86-64 -g -O0 -fpre-include=/usr/include/finclude/math-vector-fortran.h
REM seed 2093615963 -438359902 1848291261 460142608 -1301498168 -1177926283 331787552 -1841859064 1442103328 1036385968 652446492 43747383 1696582080 -128586299 1113179460 -1818240240 -779522068 -823885191 1829270677 -698766549 -420757090 42724938 -2124752503 755605674 1213818381 296237874 -354752660 -1254633069 526903641 -816612983 -1040367608 -188629252 -2093383839
REM
CELL 1.54180   50.00000   50.00000   50.00000   90.00000   90.00000   90.00000
LATT -1
SFAC C  
C      1  0.5367480000000  0.5810430000000  0.5143120000000 1.0
C      1  0.5331450000000  0.4573030000000  0.5587590000000 1.0
C      1  0.5208700000000  0.4714900000000  0.4278890000000 1.0
C      1  0.4682870000000  0.5878050000000  0.5075740000000 1.0
C      1  0.4726370000000  0.4481740000000  0.5578850000000 1.0
C      1  0.4776260000000  0.4746840000000  0.4282910000000 1.0
C      1  0.5231560000000  0.5749820000000  0.4901310000000 1.0
C      1  0.5269640000000  0.4473810000000  0.4467700000000 1.0
C      1  0.5257190000000  0.4803290000000  0.5748690000000 1.0
C      1  0.4794640000000  0.5810920000000  0.4817700000000 1.0
C      1  0.4714940000000  0.4510600000000  0.4459670000000 1.0
C      1  0.4801300000000  0.4736020000000  0.5735760000000 1.0
C      1  0.3815540000000  0.4957500000000  0.4693070000000 1.0
C      1  0.3858370000000  0.5277890000000  0.5128320000000 1.0
C      1  0.3830900000000  0.4782130000000  0.5200910000000 1.0
C      1  0.6172270000000  0.4922280000000  0.4635630000000 1.0
C      1  0.6217960000000  0.5241650000000  0.5055900000000 1.0
C      1  0.6192950000000  0.4759050000000  0.5151010000000 1.0
C      1  0.3848570000000  0.5039750000000  0.5292620000000 1.0
C      1  0.3859150000000  0.5279320000000  0.4856420000000 1.0
C      1  0.3863690000000  0.4738820000000  0.4841470000000 1.0
C      1  0.6194410000000  0.5021640000000  0.5229530000000 1.0
C      1  0.6153840000000  0.5254150000000  0.4793970000000 1.0
C      1  0.6130020000000  0.4709640000000  0.4795840000000 1.0
C      1  0.4816080000000  0.5494860000000  0.4736000000000 1.0
C      1  0.4736080000000  0.4990210000000  0.5616740000000 1.0
C      1  0.4833470000000  0.4561170000000  0.4747990000000 1.0
C      1  0.5167680000000  0.5463690000000  0.4762340000000 1.0
C      1  0.5327400000000  0.5049170000000  0.5621800000000 1.0
C      1  0.5151100000000  0.4550310000000  0.4763020000000 1.0
C      1  0.4875580000000  0.5363870000000  0.5299530000000 1.0
C      1  0.4829970000000  0.5014350000000  0.4439960000000 1.0
C      1  0.4844970000000  0.4556130000000  0.5289560000000 1.0
C      1  0.5161940000000  0.5352510000000  0.5272640000000 1.0
C      1  0.5167330000000  0.5010540000000  0.4438630000000 1.0
C      1  0.5177460000000  0.4568310000000  0.5314860000000 1.0
C      1  0.5985950000000  0.5122000000000  0.5406840000000 1.0
C      1  0.5902300000000  0.4542910000000  0.4845400000000 1.0
C      1  0.5919270000000  0.5324860000000  0.4644760000000 1.0
C      1  0.4066140000000  0.5118940000000  0.5475000000000 1.0
C      1  0.4094220000000  0.4570680000000  0.4868600000000 1.0
C      1  0.4079550000000  0.5350190000000  0.4685420000000 1.0
C      1  0.5897080000000  0.5085060000000  0.4487650000000 1.0
C      1  0.5912990000000  0.4547780000000  0.5135690000000 1.0
C      1  0.5928750000000  0.5371410000000  0.5299840000000 1.0
C      1  0.4086190000000  0.5113470000000  0.4525900000000 1.0
C      1  0.4105500000000  0.4568080000000  0.5159330000000 1.0
C      1  0.4130120000000  0.5417460000000  0.5320380000000 1.0
C      1  0.4751680000000  0.6018540000000  0.6043090000000 1.0
C      1  0.5140550000000  0.3820880000000  0.5278020000000 1.0
C      1  0.5160600000000  0.5461100000000  0.3844980000000 1.0
C      1  0.4826320000000  0.5779310000000  0.5936380000000 1.0
C      1  0.4908790000000  0.3849820000000  0.5106340000000 1.0
C      1  0.4893570000000  0.5534530000000  0.3907220000000 1.0
C      1  0.5074360000000  0.5903600000000  0.4185020000000 1.0
C      1  0.5184620000000  0.4059160000000  0.4741210000000 1.0
C      1  0.5171090000000  0.5510670000000  0.6151290000000 1.0
C      1  0.4848800000000  0.5773760000000  0.4068580000000 1.0
C      1  0.4944170000000  0.3906700000000  0.4817870000000 1.0
C      1  0.4896770000000  0.5550260000000  0.6096210000000 1.0
C      1  0.5229840000000  0.5524790000000  0.4464120000000 1.0
C      1  0.5336070000000  0.5325920000000  0.5711180000000 1.0
C      1  0.5236480000000  0.4274970000000  0.4926740000000 1.0
C      1  0.4713280000000  0.5498910000000  0.4440490000000 1.0
C      1  0.4749340000000  0.5241200000000  0.5749430000000 1.0
C      1  0.4726340000000  0.4303730000000  0.4867940000000 1.0
C      1  0.5272100000000  0.5511940000000  0.5502840000000 1.0
C      1  0.5254370000000  0.5287830000000  0.4299880000000 1.0
C      1  0.5238020000000  0.4283830000000  0.5213450000000 1.0
C      1  0.4798080000000  0.5457680000000  0.5569590000000 1.0
C      1  0.4739640000000  0.5258530000000  0.4285060000000 1.0
C      1  0.4751370000000  0.4294380000000  0.5141380000000 1.0
C      1  0.4823630000000  0.4206840000000  0.4102170000000 1.0
C      1  0.4794610000000  0.6301900000000  0.5287390000000 1.0
C      1  0.4506670000000  0.3800470000000  0.5834960000000 1.0
C      1  0.5294940000000  0.4014860000000  0.4248570000000 1.0
C      1  0.5091590000000  0.6215260000000  0.4738570000000 1.0
C      1  0.5064230000000  0.4451560000000  0.6010340000000 1.0
C      1  0.4681320000000  0.3964450000000  0.5732740000000 1.0
C      1  0.4821200000000  0.6030350000000  0.5272780000000 1.0
C      1  0.4929540000000  0.4423610000000  0.3967810000000 1.0
C      1  0.5038910000000  0.4223690000000  0.5864490000000 1.0
C      1  0.5133450000000  0.6472350000000  0.4734730000000 1.0
C      1  0.5429600000000  0.3872500000000  0.4077000000000 1.0
C      1  0.5635070000000  0.5717930000000  0.5116970000000 1.0
C      1  0.5616350000000  0.4529090000000  0.5548120000000 1.0
C      1  0.5668050000000  0.4704120000000  0.4318030000000 1.0
C      1  0.4434870000000  0.5749340000000  0.5121590000000 1.0
C      1  0.4421970000000  0.4503000000000  0.5551150000000 1.0
C      1  0.4311620000000  0.4745080000000  0.4326970000000 1.0
C      1  0.5720460000000  0.5705090000000  0.4846220000000 1.0
C      1  0.5570000000000  0.4492010000000  0.4479250000000 1.0
C      1  0.5781730000000  0.4738290000000  0.5651780000000 1.0
C      1  0.4291610000000  0.5721840000000  0.4877470000000 1.0
C      1  0.4413040000000  0.4527770000000  0.4479930000000 1.0
C      1  0.4288060000000  0.4722880000000  0.5682080000000 1.0
C      1  0.4755290000000  0.5313620000000  0.6021350000000 1.0
C      1  0.4742480000000  0.4076530000000  0.4681050000000 1.0
C      1  0.4655780000000  0.5725690000000  0.4277690000000 1.0
C      1  0.5350550000000  0.5406410000000  0.5979100000000 1.0
C      1  0.5160600000000  0.4181900000000  0.4451300000000 1.0
C      1  0.5158390000000  0.5811060000000  0.4439940000000 1.0
C      1  0.4742520000000  0.5308150000000  0.4005010000000 1.0
C      1  0.4762410000000  0.4051770000000  0.5258260000000 1.0
C      1  0.4839810000000  0.5728080000000  0.5655350000000 1.0
C      1  0.5308870000000  0.5322130000000  0.4025230000000 1.0
C      1  0.5173380000000  0.4077440000000  0.5397760000000 1.0
C      1  0.5239650000000  0.5783010000000  0.5400460000000 1.0
C      1  0.5678310000000  0.5458490000000  0.5228790000000 1.0
C      1  0.5673150000000  0.4539020000000  0.5266000000000 1.0
C      1  0.5664930000000  0.4951310000000  0.4454540000000 1.0
C      1  0.4388250000000  0.5495070000000  0.5259240000000 1.0
C      1  0.4353800000000  0.4554710000000  0.5272680000000 1.0
C      1  0.4318830000000  0.4986120000000  0.4472670000000 1.0
C      1  0.5690190000000  0.5449460000000  0.4730490000000 1.0
C      1  0.5652840000000  0.4533890000000  0.4739210000000 1.0
C      1  0.5773500000000  0.4965930000000  0.5480660000000 1.0
C      1  0.4311360000000  0.5465390000000  0.4768050000000 1.0
C      1  0.4335480000000  0.4568190000000  0.4744310000000 1.0
C      1  0.4284300000000  0.4962510000000  0.5520060000000 1.0
C      1  0.5401930000000  0.4994320000000  0.4669990000000 1.0
C      1  0.5432640000000  0.5248120000000  0.5151850000000 1.0
C      1  0.5408440000000  0.4739350000000  0.5160070000000 1.0
C      1  0.4600600000000  0.5015760000000  0.4684340000000 1.0
C      1  0.4603670000000  0.5268860000000  0.5181480000000 1.0
C      1  0.4607670000000  0.4747850000000  0.5175240000000 1.0
C      1  0.5487320000000  0.5003290000000  0.5341790000000 1.0
C      1  0.5417130000000  0.5267290000000  0.4833730000000 1.0
C      1  0.5380830000000  0.4740500000000  0.4860380000000 1.0
C      1  0.4556000000000  0.4998360000000  0.5360480000000 1.0
C      1  0.4595310000000  0.5290320000000  0.4855720000000 1.0
C      1  0.4617990000000  0.4759750000000  0.4864920000000 1.0
C      1  0.4870310000000  0.4158200000000  0.5611350000000 1.0
C      1  0.4836010000000  0.4212460000000  0.4408510000000 1.0
C      1  0.4979270000000  0.5888280000000  0.5462270000000 1.0
C      1  0.4987020000000  0.4666840000000  0.4103000000000 1.0
C      1  0.5063770000000  0.5925770000000  0.4718180000000 1.0
C      1  0.5033440000000  0.4711270000000  0.5897520000000 1.0
END
