TITL C-3623286-7563-1520 -8300.49374244189 125000 -1086.03916198101 0 0 180 (C1) n - 1
REM
REM in /home/nfs/bkarasulu/CARBON/AIRSS/Generating-Clusters/LCBOP/Higher-Symm/SD-CG/FIRE-CG
REM
REM
REM
REM
REM
REM ./C.cell (b20cbc046b6831c77cfcea5457e17084)
REM AIRSS Version 0.9.1 bugfix July 2018 build 013d7b7c2542+ Fri, 06 Jul 2018 19:26:36 +0100
REM compiler GCC version 9.2.1 20190827 (Red Hat 9.2.1-1)
REM options -cpp -mtune=generic -march=x86-64 -g -O0 -fpre-include=/usr/include/finclude/math-vector-fortran.h
REM seed -1391151360 -426882496 -2028550308 1264207757 -995266183 -1928427278 -1973420414 -1080111196 337491434 418174042 1831006936 -1894739474 1471123545 -1058001798 -816191404 2047855426 1336090311 -812454300 637507905 1179273948 1540875120 424810210 -1369316233 549951638 -1020234875 1612579425 -751862485 1834978776 1500911711 548618711 944830733 406721420 -87383200
REM
CELL 1.54180   50.00000   50.00000   50.00000   90.00000   90.00000   90.00000
LATT -1
SFAC C  
C      1  0.4812260000000  0.4689930000000  0.5261510000000 1.0
C      1  0.4836660000000  0.5258840000000  0.5321710000000 1.0
C      1  0.5327370000000  0.5013150000000  0.5297830000000 1.0
C      1  0.5129510000000  0.5226020000000  0.4007050000000 1.0
C      1  0.5217220000000  0.4695320000000  0.3980380000000 1.0
C      1  0.4858050000000  0.5141380000000  0.4044810000000 1.0
C      1  0.4380970000000  0.5116890000000  0.5872350000000 1.0
C      1  0.5542040000000  0.5490820000000  0.5843250000000 1.0
C      1  0.5165000000000  0.4409770000000  0.5891070000000 1.0
C      1  0.6003830000000  0.5475660000000  0.4462070000000 1.0
C      1  0.4919450000000  0.3901040000000  0.4428520000000 1.0
C      1  0.4105820000000  0.5560540000000  0.4436480000000 1.0
C      1  0.5673950000000  0.5342620000000  0.4133340000000 1.0
C      1  0.5023550000000  0.4218190000000  0.4055210000000 1.0
C      1  0.4424870000000  0.5400010000000  0.4054580000000 1.0
C      1  0.5301690000000  0.5967920000000  0.5357190000000 1.0
C      1  0.5683800000000  0.4255040000000  0.5383100000000 1.0
C      1  0.3988940000000  0.4750950000000  0.5382560000000 1.0
C      1  0.5518430000000  0.5867960000000  0.5525800000000 1.0
C      1  0.5489380000000  0.4180700000000  0.5593480000000 1.0
C      1  0.3996020000000  0.4970400000000  0.5583600000000 1.0
C      1  0.5626720000000  0.3868970000000  0.5032910000000 1.0
C      1  0.3706780000000  0.4929670000000  0.4992370000000 1.0
C      1  0.5531290000000  0.6186510000000  0.4946410000000 1.0
C      1  0.5110730000000  0.4909710000000  0.5762490000000 1.0
C      1  0.4802410000000  0.4860030000000  0.5742810000000 1.0
C      1  0.5120370000000  0.5218800000000  0.5767170000000 1.0
C      1  0.4132030000000  0.4949870000000  0.5834500000000 1.0
C      1  0.5489450000000  0.5782420000000  0.5793770000000 1.0
C      1  0.5442190000000  0.4299690000000  0.5846780000000 1.0
C      1  0.4214540000000  0.5422770000000  0.4930060000000 1.0
C      1  0.5667220000000  0.5441470000000  0.4846360000000 1.0
C      1  0.5056180000000  0.4163020000000  0.4855320000000 1.0
C      1  0.4257790000000  0.4123810000000  0.5484450000000 1.0
C      1  0.4713370000000  0.6068310000000  0.5562690000000 1.0
C      1  0.6066260000000  0.4802510000000  0.5503450000000 1.0
C      1  0.5792080000000  0.5674000000000  0.4454700000000 1.0
C      1  0.5200580000000  0.3962540000000  0.4420130000000 1.0
C      1  0.4061810000000  0.5282640000000  0.4369310000000 1.0
C      1  0.4964810000000  0.3929970000000  0.5010450000000 1.0
C      1  0.4082900000000  0.5636570000000  0.5081160000000 1.0
C      1  0.5932860000000  0.5473080000000  0.4964200000000 1.0
C      1  0.4836240000000  0.4399510000000  0.5238280000000 1.0
C      1  0.4580820000000  0.5401380000000  0.5298620000000 1.0
C      1  0.5583270000000  0.5148860000000  0.5255360000000 1.0
C      1  0.5335690000000  0.5543200000000  0.5158920000000 1.0
C      1  0.5306190000000  0.4417220000000  0.5165350000000 1.0
C      1  0.4333340000000  0.5006650000000  0.5198080000000 1.0
C      1  0.3565320000000  0.4772050000000  0.4560400000000 1.0
C      1  0.5436140000000  0.6538510000000  0.4552300000000 1.0
C      1  0.5878350000000  0.3799290000000  0.4626710000000 1.0
C      1  0.3800970000000  0.4091630000000  0.4710310000000 1.0
C      1  0.4602760000000  0.6620520000000  0.4795510000000 1.0
C      1  0.6497050000000  0.4441880000000  0.4785940000000 1.0
C      1  0.5284950000000  0.5641670000000  0.4249420000000 1.0
C      1  0.5454910000000  0.4396270000000  0.4258460000000 1.0
C      1  0.4390070000000  0.4942070000000  0.4065720000000 1.0
C      1  0.4439570000000  0.4604830000000  0.5515000000000 1.0
C      1  0.4991870000000  0.5643550000000  0.5524530000000 1.0
C      1  0.5563510000000  0.4699940000000  0.5512890000000 1.0
C      1  0.5165870000000  0.4985740000000  0.5065510000000 1.0
C      1  0.4742860000000  0.4808610000000  0.5003530000000 1.0
C      1  0.4951760000000  0.5172110000000  0.5060470000000 1.0
C      1  0.4233050000000  0.4771570000000  0.4827410000000 1.0
C      1  0.5130060000000  0.5707080000000  0.4775830000000 1.0
C      1  0.5571070000000  0.4478250000000  0.4779240000000 1.0
C      1  0.4824880000000  0.4045780000000  0.5715820000000 1.0
C      1  0.4280770000000  0.5620200000000  0.5754960000000 1.0
C      1  0.6024580000000  0.5421540000000  0.5663400000000 1.0
C      1  0.4536890000000  0.5888720000000  0.4474990000000 1.0
C      1  0.5966490000000  0.4932110000000  0.4445700000000 1.0
C      1  0.4480160000000  0.4208920000000  0.4316300000000 1.0
C      1  0.6130790000000  0.5456190000000  0.5419970000000 1.0
C      1  0.4800030000000  0.3902050000000  0.5489690000000 1.0
C      1  0.4201840000000  0.5754200000000  0.5537820000000 1.0
C      1  0.4186600000000  0.4726970000000  0.6012820000000 1.0
C      1  0.5288540000000  0.5840570000000  0.5994820000000 1.0
C      1  0.5602000000000  0.4466100000000  0.6022530000000 1.0
C      1  0.4576490000000  0.5140220000000  0.4492330000000 1.0
C      1  0.5249720000000  0.5190660000000  0.4459910000000 1.0
C      1  0.5022030000000  0.4632760000000  0.4441720000000 1.0
C      1  0.4033650000000  0.5231480000000  0.5450090000000 1.0
C      1  0.5700190000000  0.5711650000000  0.5356030000000 1.0
C      1  0.5249180000000  0.4074270000000  0.5464120000000 1.0
C      1  0.4764500000000  0.3860850000000  0.5208330000000 1.0
C      1  0.4212300000000  0.5822280000000  0.5260380000000 1.0
C      1  0.6119170000000  0.5363860000000  0.5152140000000 1.0
C      1  0.3726670000000  0.4946570000000  0.4701700000000 1.0
C      1  0.5497780000000  0.6384010000000  0.4752960000000 1.0
C      1  0.5636230000000  0.3842130000000  0.4748290000000 1.0
C      1  0.5570980000000  0.5444860000000  0.5294120000000 1.0
C      1  0.5097880000000  0.4289660000000  0.5317570000000 1.0
C      1  0.4325970000000  0.5249460000000  0.5354240000000 1.0
C      1  0.6143820000000  0.4734510000000  0.4530850000000 1.0
C      1  0.4216640000000  0.4177120000000  0.4402230000000 1.0
C      1  0.4580810000000  0.6142880000000  0.4578250000000 1.0
C      1  0.4564260000000  0.4454590000000  0.4187560000000 1.0
C      1  0.4747420000000  0.5728380000000  0.4366770000000 1.0
C      1  0.5705980000000  0.4864480000000  0.4351790000000 1.0
C      1  0.5284860000000  0.5376400000000  0.5938450000000 1.0
C      1  0.5200240000000  0.4698600000000  0.5966920000000 1.0
C      1  0.4603990000000  0.4930250000000  0.5939030000000 1.0
C      1  0.4942080000000  0.4242750000000  0.5855980000000 1.0
C      1  0.4368910000000  0.5395960000000  0.5870320000000 1.0
C      1  0.5802850000000  0.5396910000000  0.5810980000000 1.0
C      1  0.4463780000000  0.4730680000000  0.4254130000000 1.0
C      1  0.5049990000000  0.5646740000000  0.4483010000000 1.0
C      1  0.5513190000000  0.4591650000000  0.4501070000000 1.0
C      1  0.3801940000000  0.4723740000000  0.5167210000000 1.0
C      1  0.5359500000000  0.6169200000000  0.5169500000000 1.0
C      1  0.5767190000000  0.4063190000000  0.5188620000000 1.0
C      1  0.4829240000000  0.4534580000000  0.4619640000000 1.0
C      1  0.4610040000000  0.5285850000000  0.4730940000000 1.0
C      1  0.5393050000000  0.5106300000000  0.4677570000000 1.0
C      1  0.5178760000000  0.5512900000000  0.4004740000000 1.0
C      1  0.5447880000000  0.4552880000000  0.4014730000000 1.0
C      1  0.4614000000000  0.5071430000000  0.3927820000000 1.0
C      1  0.4278000000000  0.4712720000000  0.5292090000000 1.0
C      1  0.5122470000000  0.5732740000000  0.5269340000000 1.0
C      1  0.5573810000000  0.4521440000000  0.5270190000000 1.0
C      1  0.5675060000000  0.4673530000000  0.5008230000000 1.0
C      1  0.4347460000000  0.4561200000000  0.5019290000000 1.0
C      1  0.4922080000000  0.5726100000000  0.5021240000000 1.0
C      1  0.5430610000000  0.3729560000000  0.5179810000000 1.0
C      1  0.3634740000000  0.5152860000000  0.5148870000000 1.0
C      1  0.5730200000000  0.5980630000000  0.4917910000000 1.0
C      1  0.4997980000000  0.4649780000000  0.4157220000000 1.0
C      1  0.4782490000000  0.5263190000000  0.4310980000000 1.0
C      1  0.5306690000000  0.5105060000000  0.4198220000000 1.0
C      1  0.5320420000000  0.4854560000000  0.5531690000000 1.0
C      1  0.4695800000000  0.4730680000000  0.5516580000000 1.0
C      1  0.4983370000000  0.5357490000000  0.5550800000000 1.0
C      1  0.5821310000000  0.4767160000000  0.5607160000000 1.0
C      1  0.4354530000000  0.4348810000000  0.5595020000000 1.0
C      1  0.4841430000000  0.5847700000000  0.5646790000000 1.0
C      1  0.4678560000000  0.4748430000000  0.4724750000000 1.0
C      1  0.4889210000000  0.5270950000000  0.4795660000000 1.0
C      1  0.5252310000000  0.4893710000000  0.4802630000000 1.0
C      1  0.5004570000000  0.5333220000000  0.4515610000000 1.0
C      1  0.5246610000000  0.4710210000000  0.4577980000000 1.0
C      1  0.4538870000000  0.4863910000000  0.4505220000000 1.0
C      1  0.4234180000000  0.5194400000000  0.4152030000000 1.0
C      1  0.5579840000000  0.5587930000000  0.4276260000000 1.0
C      1  0.5253920000000  0.4177360000000  0.4238830000000 1.0
C      1  0.4815390000000  0.4312830000000  0.4786980000000 1.0
C      1  0.4478530000000  0.5487380000000  0.4863430000000 1.0
C      1  0.5632300000000  0.5161390000000  0.4799380000000 1.0
C      1  0.4556580000000  0.6158930000000  0.5364450000000 1.0
C      1  0.6211360000000  0.4895860000000  0.5298420000000 1.0
C      1  0.4285780000000  0.3942520000000  0.5288010000000 1.0
C      1  0.6318650000000  0.4575810000000  0.4651030000000 1.0
C      1  0.3995830000000  0.4138560000000  0.4543590000000 1.0
C      1  0.4601370000000  0.6385360000000  0.4682990000000 1.0
C      1  0.4638620000000  0.5512300000000  0.4206540000000 1.0
C      1  0.5587290000000  0.5067050000000  0.4176780000000 1.0
C      1  0.4828910000000  0.4434910000000  0.4071920000000 1.0
C      1  0.4457120000000  0.4718590000000  0.6079540000000 1.0
C      1  0.5171850000000  0.5604080000000  0.6083940000000 1.0
C      1  0.5462770000000  0.4696250000000  0.6093220000000 1.0
C      1  0.6226190000000  0.5103030000000  0.5126750000000 1.0
C      1  0.4488960000000  0.3835320000000  0.5145050000000 1.0
C      1  0.4361880000000  0.6054660000000  0.5209570000000 1.0
C      1  0.3826060000000  0.5574910000000  0.5173410000000 1.0
C      1  0.6095150000000  0.5978740000000  0.5238010000000 1.0
C      1  0.5206310000000  0.3597280000000  0.5584790000000 1.0
C      1  0.5394540000000  0.5584610000000  0.4874670000000 1.0
C      1  0.5318390000000  0.4321590000000  0.4887920000000 1.0
C      1  0.4231530000000  0.5054450000000  0.4932940000000 1.0
C      1  0.5275480000000  0.3793140000000  0.5406840000000 1.0
C      1  0.3800550000000  0.5325600000000  0.5297590000000 1.0
C      1  0.5848240000000  0.5879660000000  0.5165720000000 1.0
C      1  0.4673970000000  0.4005010000000  0.4375890000000 1.0
C      1  0.4274480000000  0.5770770000000  0.4466640000000 1.0
C      1  0.6046360000000  0.5207620000000  0.4455070000000 1.0
C      1  0.3893190000000  0.5121740000000  0.4540350000000 1.0
C      1  0.5781230000000  0.5874930000000  0.4656210000000 1.0
C      1  0.5402870000000  0.3859310000000  0.4587050000000 1.0
C      1  0.5695830000000  0.4983080000000  0.5023240000000 1.0
C      1  0.4632020000000  0.4355100000000  0.5015770000000 1.0
C      1  0.4644330000000  0.5600380000000  0.5073900000000 1.0
END
