TITL C-3623284-6838-2013 -0.0427665873378044 125000 -360.24559117873 0 0 61 (C1) n - 1
REM
REM in /home/nfs/bkarasulu/CARBON/AIRSS/Generating-Clusters/LCBOP/Higher-Symm/SD-CG/FIRE-CG
REM
REM
REM
REM
REM
REM ./C.cell (b20cbc046b6831c77cfcea5457e17084)
REM AIRSS Version 0.9.1 bugfix July 2018 build 013d7b7c2542+ Fri, 06 Jul 2018 19:26:36 +0100
REM compiler GCC version 9.2.1 20190827 (Red Hat 9.2.1-1)
REM options -cpp -mtune=generic -march=x86-64 -g -O0 -fpre-include=/usr/include/finclude/math-vector-fortran.h
REM seed -1994191803 -1168712781 1126819145 465392888 1243542653 1090736174 1537566224 -159505087 807654537 313324515 1627255134 1677762027 -1407986463 1179852804 1589253547 -997895687 3515501 -1628410037 1499911922 1319374126 -1995123990 2095957215 1489124300 908794209 208143087 1709483181 -1288898696 332190666 778106690 835059379 1970194468 -1965192195 1370866998
REM
CELL 1.54180   50.00000   50.00000   50.00000   90.00000   90.00000   90.00000
LATT -1
SFAC C  
C      1  0.6047900000000  0.3536160000000  0.4550370000000 1.0
C      1  0.4776860000000  0.5812230000000  0.4945300000000 1.0
C      1  0.5231810000000  0.5019820000000  0.5512690000000 1.0
C      1  0.4113380000000  0.3919300000000  0.6012670000000 1.0
C      1  0.5664830000000  0.5230240000000  0.5019800000000 1.0
C      1  0.4678690000000  0.4637880000000  0.4637920000000 1.0
C      1  0.5572690000000  0.5462390000000  0.4924170000000 1.0
C      1  0.4592870000000  0.4642900000000  0.4893060000000 1.0
C      1  0.5539260000000  0.4981020000000  0.5027550000000 1.0
C      1  0.4818990000000  0.4841950000000  0.4504990000000 1.0
C      1  0.5321750000000  0.5506960000000  0.4807290000000 1.0
C      1  0.4620910000000  0.4841000000000  0.5090110000000 1.0
C      1  0.4842910000000  0.5087110000000  0.4654500000000 1.0
C      1  0.5087950000000  0.5409020000000  0.4954200000000 1.0
C      1  0.4887070000000  0.4945800000000  0.5147120000000 1.0
C      1  0.5298830000000  0.4935440000000  0.4872350000000 1.0
C      1  0.4949300000000  0.5635790000000  0.5114330000000 1.0
C      1  0.4991520000000  0.4869350000000  0.5425370000000 1.0
C      1  0.5312860000000  0.4699420000000  0.4712790000000 1.0
C      1  0.4646360000000  0.5280060000000  0.4581700000000 1.0
C      1  0.5598190000000  0.4197520000000  0.4619000000000 1.0
C      1  0.4276380000000  0.5708650000000  0.4535400000000 1.0
C      1  0.5193240000000  0.5649520000000  0.5658250000000 1.0
C      1  0.4622920000000  0.4459970000000  0.5708990000000 1.0
C      1  0.5301970000000  0.5595750000000  0.4544000000000 1.0
C      1  0.4404980000000  0.4984310000000  0.5197330000000 1.0
C      1  0.5640950000000  0.4767960000000  0.5178630000000 1.0
C      1  0.4928430000000  0.4829030000000  0.4248530000000 1.0
C      1  0.4388670000000  0.5278470000000  0.4703870000000 1.0
C      1  0.5178220000000  0.5820650000000  0.5214460000000 1.0
C      1  0.4769280000000  0.4915520000000  0.5631510000000 1.0
C      1  0.5228080000000  0.4447230000000  0.4814800000000 1.0
C      1  0.5550450000000  0.4560300000000  0.5320160000000 1.0
C      1  0.5171650000000  0.4839660000000  0.4137110000000 1.0
C      1  0.5164370000000  0.5583260000000  0.4316800000000 1.0
C      1  0.4377700000000  0.5232390000000  0.5293920000000 1.0
C      1  0.4603580000000  0.4738880000000  0.5751800000000 1.0
C      1  0.5363860000000  0.4214540000000  0.4778890000000 1.0
C      1  0.4200400000000  0.5473270000000  0.4677300000000 1.0
C      1  0.5289690000000  0.5827970000000  0.5461040000000 1.0
C      1  0.5414720000000  0.4796860000000  0.4242400000000 1.0
C      1  0.4918880000000  0.5514450000000  0.4239400000000 1.0
C      1  0.4534120000000  0.5442670000000  0.5342420000000 1.0
C      1  0.5312620000000  0.4476740000000  0.5408000000000 1.0
C      1  0.4919900000000  0.5584740000000  0.5612140000000 1.0
C      1  0.4843960000000  0.4396120000000  0.5544390000000 1.0
C      1  0.5654940000000  0.4442950000000  0.4486840000000 1.0
C      1  0.4453250000000  0.5642870000000  0.4320940000000 1.0
C      1  0.4447490000000  0.4273230000000  0.5814170000000 1.0
C      1  0.5753320000000  0.3969210000000  0.4594960000000 1.0
C      1  0.4352480000000  0.5929840000000  0.4692030000000 1.0
C      1  0.5356330000000  0.5442580000000  0.5753440000000 1.0
C      1  0.4792950000000  0.5546670000000  0.5360510000000 1.0
C      1  0.5049050000000  0.4564070000000  0.5444060000000 1.0
C      1  0.5488350000000  0.4673360000000  0.4482740000000 1.0
C      1  0.4672600000000  0.5464880000000  0.4359770000000 1.0
C      1  0.4569450000000  0.5948680000000  0.4849040000000 1.0
C      1  0.5366670000000  0.5188810000000  0.5668060000000 1.0
C      1  0.4279090000000  0.4094830000000  0.5914230000000 1.0
C      1  0.5901800000000  0.3750940000000  0.4572480000000 1.0
C      1  0.5028410000000  0.5101420000000  0.4912990000000 1.0
END
