TITL C-3623287-7182-428 -7.80058620738703e-08 125000 -156.164454085081 0 0 28 (C1) n - 1
REM
REM in /home/nfs/bkarasulu/CARBON/AIRSS/Generating-Clusters/LCBOP/Higher-Symm/SD-CG/FIRE-CG
REM
REM
REM
REM
REM
REM ./C.cell (b20cbc046b6831c77cfcea5457e17084)
REM AIRSS Version 0.9.1 bugfix July 2018 build 013d7b7c2542+ Fri, 06 Jul 2018 19:26:36 +0100
REM compiler GCC version 9.2.1 20190827 (Red Hat 9.2.1-1)
REM options -cpp -mtune=generic -march=x86-64 -g -O0 -fpre-include=/usr/include/finclude/math-vector-fortran.h
REM seed 249524589 82239474 -142657879 -366707862 -1219015293 -1200829494 -1721529959 -347057403 544739631 1903873809 -670819567 50247641 -1051856042 -784439532 -1575796737 1119915593 -1241758668 -2092223261 -1566632836 112344527 -1466508926 2120076818 -1266584093 1186698483 -2097345227 1252320199 -101605220 -629097872 21401901 -713306549 917436228 -809046432 769052791
REM
CELL 1.54180   50.00000   50.00000   50.00000   90.00000   90.00000   90.00000
LATT -1
SFAC C  
C      1  0.4678900000000  0.5179320000000  0.4945920000000 1.0
C      1  0.5191560000000  0.5190100000000  0.4766930000000 1.0
C      1  0.5100750000000  0.5179860000000  0.5299640000000 1.0
C      1  0.5285320000000  0.4932440000000  0.5313480000000 1.0
C      1  0.4577220000000  0.4930870000000  0.5100840000000 1.0
C      1  0.5118440000000  0.4939930000000  0.4596950000000 1.0
C      1  0.4850750000000  0.5106310000000  0.5455880000000 1.0
C      1  0.4671250000000  0.5096590000000  0.4652510000000 1.0
C      1  0.5453500000000  0.5112390000000  0.4902990000000 1.0
C      1  0.5212130000000  0.5452200000000  0.5334500000000 1.0
C      1  0.4605740000000  0.5465400000000  0.4975010000000 1.0
C      1  0.5171220000000  0.5483680000000  0.4706470000000 1.0
C      1  0.4524360000000  0.4713020000000  0.4921260000000 1.0
C      1  0.5308110000000  0.4727770000000  0.4633610000000 1.0
C      1  0.5159210000000  0.4717710000000  0.5454340000000 1.0
C      1  0.5211760000000  0.4429710000000  0.4986810000000 1.0
C      1  0.4898860000000  0.4424080000000  0.5194710000000 1.0
C      1  0.4886160000000  0.4424250000000  0.4831900000000 1.0
C      1  0.5197060000000  0.5658830000000  0.5157450000000 1.0
C      1  0.4776550000000  0.5671950000000  0.4922920000000 1.0
C      1  0.5061290000000  0.5661780000000  0.4906100000000 1.0
C      1  0.4719240000000  0.4872550000000  0.5347320000000 1.0
C      1  0.4837420000000  0.4869100000000  0.4596040000000 1.0
C      1  0.5429250000000  0.4877200000000  0.5069100000000 1.0
C      1  0.4735810000000  0.4635930000000  0.4739690000000 1.0
C      1  0.5362120000000  0.4645770000000  0.4904980000000 1.0
C      1  0.4895930000000  0.4639520000000  0.5366290000000 1.0
C      1  0.4987520000000  0.5170600000000  0.5007250000000 1.0
END
