TITL C-3623287-7182-179 -4.17642004670602e-09 125000 -250.563898795089 0 0 43 (C1) n - 1
REM
REM in /home/nfs/bkarasulu/CARBON/AIRSS/Generating-Clusters/LCBOP/Higher-Symm/SD-CG/FIRE-CG
REM
REM
REM
REM
REM
REM ./C.cell (b20cbc046b6831c77cfcea5457e17084)
REM AIRSS Version 0.9.1 bugfix July 2018 build 013d7b7c2542+ Fri, 06 Jul 2018 19:26:36 +0100
REM compiler GCC version 9.2.1 20190827 (Red Hat 9.2.1-1)
REM options -cpp -mtune=generic -march=x86-64 -g -O0 -fpre-include=/usr/include/finclude/math-vector-fortran.h
REM seed 371159895 -1977096966 2074911044 -2135863843 -2134737633 -1406651564 -1103874776 1593563337 1148869591 1231125266 947213075 794979881 53885799 968936499 -864667095 669523250 -514696901 -1850097598 -338521992 -1502038487 -214374332 -1834723666 -413794034 527646011 -256504526 -418460213 851611270 1924934235 1578545286 1719325079 -112767074 -1803450491 -105111149
REM
CELL 1.54180   50.00000   50.00000   50.00000   90.00000   90.00000   90.00000
LATT -1
SFAC C  
C      1  0.4774480000000  0.5136620000000  0.4561840000000 1.0
C      1  0.5410540000000  0.4878070000000  0.5507640000000 1.0
C      1  0.4576270000000  0.5311100000000  0.4702060000000 1.0
C      1  0.5503950000000  0.4695180000000  0.5302960000000 1.0
C      1  0.4695070000000  0.5016540000000  0.5628750000000 1.0
C      1  0.5380470000000  0.4873290000000  0.4390500000000 1.0
C      1  0.4937900000000  0.4428910000000  0.4680350000000 1.0
C      1  0.5115120000000  0.5495970000000  0.5356500000000 1.0
C      1  0.5176910000000  0.4826250000000  0.5659620000000 1.0
C      1  0.5108410000000  0.5231240000000  0.4522580000000 1.0
C      1  0.5474220000000  0.5154000000000  0.5463200000000 1.0
C      1  0.4692910000000  0.4876350000000  0.4466050000000 1.0
C      1  0.5573790000000  0.4831080000000  0.5051090000000 1.0
C      1  0.4388620000000  0.5239120000000  0.4920140000000 1.0
C      1  0.5233740000000  0.5087310000000  0.4311430000000 1.0
C      1  0.4915200000000  0.4875220000000  0.5696770000000 1.0
C      1  0.4751550000000  0.4625470000000  0.4590110000000 1.0
C      1  0.5308170000000  0.5288240000000  0.5275640000000 1.0
C      1  0.5322340000000  0.5289420000000  0.4726370000000 1.0
C      1  0.4375370000000  0.4717320000000  0.5070190000000 1.0
C      1  0.4700940000000  0.5559340000000  0.4764160000000 1.0
C      1  0.5342690000000  0.4453560000000  0.5271440000000 1.0
C      1  0.4649830000000  0.5239780000000  0.5451610000000 1.0
C      1  0.5328300000000  0.4731730000000  0.4630350000000 1.0
C      1  0.4498070000000  0.5174100000000  0.5198860000000 1.0
C      1  0.5296040000000  0.4861520000000  0.4919950000000 1.0
C      1  0.5055630000000  0.4744830000000  0.5057990000000 1.0
C      1  0.4938210000000  0.5205550000000  0.4998610000000 1.0
C      1  0.4582540000000  0.4892380000000  0.5148580000000 1.0
C      1  0.5240700000000  0.5169910000000  0.4993270000000 1.0
C      1  0.4897090000000  0.5499880000000  0.4953460000000 1.0
C      1  0.5091070000000  0.4471910000000  0.5134960000000 1.0
C      1  0.5611570000000  0.5231230000000  0.4735990000000 1.0
C      1  0.4164210000000  0.4811900000000  0.4925150000000 1.0
C      1  0.4162470000000  0.5075460000000  0.4852210000000 1.0
C      1  0.5723700000000  0.5035680000000  0.4904130000000 1.0
C      1  0.4545970000000  0.4869800000000  0.4233220000000 1.0
C      1  0.5680510000000  0.5277860000000  0.5591680000000 1.0
C      1  0.5045790000000  0.5658410000000  0.5131700000000 1.0
C      1  0.4944790000000  0.4316430000000  0.4945380000000 1.0
C      1  0.5201720000000  0.4481390000000  0.4589260000000 1.0
C      1  0.4865920000000  0.5426310000000  0.5483240000000 1.0
C      1  0.4847910000000  0.4932180000000  0.5065040000000 1.0
END
