TITL C-3623286-7563-1919 -3.40404936006233e-07 125000 -275.682889802569 0 0 45 (Ci) n - 1
REM
REM in /home/nfs/bkarasulu/CARBON/AIRSS/Generating-Clusters/LCBOP/Higher-Symm/SD-CG/FIRE-CG
REM
REM
REM
REM
REM
REM ./C.cell (b20cbc046b6831c77cfcea5457e17084)
REM AIRSS Version 0.9.1 bugfix July 2018 build 013d7b7c2542+ Fri, 06 Jul 2018 19:26:36 +0100
REM compiler GCC version 9.2.1 20190827 (Red Hat 9.2.1-1)
REM options -cpp -mtune=generic -march=x86-64 -g -O0 -fpre-include=/usr/include/finclude/math-vector-fortran.h
REM seed 28072797 -1610908281 -1133300970 -1635318667 1774752336 -343736280 -1757823798 79594559 1927736589 -834343316 2146257664 1684035364 -497162859 321045388 246359663 1002357911 -1720255057 -1919100291 1450878063 -512673102 -1112908345 1729920919 -1137732574 1154542508 -310323259 -700566714 -1238521752 -1100988929 85963174 -101529084 1048076148 -1302528797 -903667842
REM
CELL 1.54180   50.00000   50.00000   50.00000   90.00000   90.00000   90.00000
LATT -1
SFAC C  
C      1  0.5225440000000  0.4900380000000  0.4481100000000 1.0
C      1  0.5371420000000  0.5657850000000  0.4456110000000 1.0
C      1  0.5348400000000  0.5374070000000  0.5492410000000 1.0
C      1  0.5154840000000  0.4340950000000  0.5298050000000 1.0
C      1  0.4641140000000  0.4639780000000  0.4504790000000 1.0
C      1  0.4834700000000  0.5672900000000  0.4699150000000 1.0
C      1  0.4764100000000  0.5113460000000  0.5516100000000 1.0
C      1  0.4618120000000  0.4356000000000  0.5541090000000 1.0
C      1  0.4730010000000  0.5369120000000  0.5094620000000 1.0
C      1  0.4809850000000  0.4721110000000  0.5811770000000 1.0
C      1  0.4825340000000  0.4488020000000  0.4931160000000 1.0
C      1  0.4840410000000  0.5226630000000  0.4486690000000 1.0
C      1  0.5164200000000  0.5525830000000  0.5066040000000 1.0
C      1  0.5149130000000  0.4787220000000  0.5510510000000 1.0
C      1  0.5259530000000  0.4644720000000  0.4902580000000 1.0
C      1  0.5179690000000  0.5292740000000  0.4185430000000 1.0
C      1  0.4904700000000  0.5509930000000  0.4479910000000 1.0
C      1  0.4851810000000  0.5343130000000  0.5370320000000 1.0
C      1  0.4839460000000  0.4466220000000  0.5675950000000 1.0
C      1  0.4866680000000  0.4559860000000  0.4651390000000 1.0
C      1  0.5150080000000  0.5547630000000  0.4321250000000 1.0
C      1  0.5122860000000  0.5453980000000  0.5345810000000 1.0
C      1  0.5084840000000  0.4503920000000  0.5517290000000 1.0
C      1  0.5137730000000  0.4670720000000  0.4626880000000 1.0
C      1  0.4652150000000  0.5098940000000  0.4657990000000 1.0
C      1  0.4710230000000  0.5092640000000  0.4953740000000 1.0
C      1  0.4564880000000  0.4881690000000  0.5124220000000 1.0
C      1  0.4610590000000  0.4594050000000  0.5091860000000 1.0
C      1  0.5424660000000  0.5132160000000  0.4872980000000 1.0
C      1  0.5378950000000  0.5419800000000  0.4905340000000 1.0
C      1  0.5337390000000  0.4914910000000  0.5339210000000 1.0
C      1  0.5279310000000  0.4921200000000  0.5043460000000 1.0
C      1  0.4538580000000  0.4982540000000  0.5392620000000 1.0
C      1  0.4517990000000  0.4423470000000  0.5299360000000 1.0
C      1  0.4518220000000  0.4878090000000  0.4541300000000 1.0
C      1  0.4716170000000  0.5916390000000  0.4670690000000 1.0
C      1  0.5471320000000  0.5135760000000  0.5455900000000 1.0
C      1  0.5273370000000  0.4097460000000  0.5326510000000 1.0
C      1  0.5450960000000  0.5031300000000  0.4604580000000 1.0
C      1  0.5471550000000  0.5590380000000  0.4697840000000 1.0
C      1  0.4897180000000  0.5561260000000  0.4949030000000 1.0
C      1  0.4934970000000  0.4934150000000  0.5656710000000 1.0
C      1  0.5092360000000  0.4452590000000  0.5048170000000 1.0
C      1  0.5054570000000  0.5079700000000  0.4340490000000 1.0
C      1  0.4994770000000  0.5006920000000  0.4998600000000 1.0
END
