TITL C-3623282-6910-1289 28868.3421794423 125000 -1192.44711101223 0 0 198 (C1) n - 1
REM
REM in /home/nfs/bkarasulu/CARBON/AIRSS/Generating-Clusters/LCBOP/Higher-Symm/SD-CG/FIRE-CG
REM
REM
REM
REM
REM
REM ./C.cell (b20cbc046b6831c77cfcea5457e17084)
REM AIRSS Version 0.9.1 bugfix July 2018 build 013d7b7c2542+ Fri, 06 Jul 2018 19:26:36 +0100
REM compiler GCC version 9.2.1 20190827 (Red Hat 9.2.1-1)
REM options -cpp -mtune=generic -march=x86-64 -g -O0 -fpre-include=/usr/include/finclude/math-vector-fortran.h
REM seed -1140605336 1124645846 1222784081 -175748260 534960829 1442256478 -1070861613 2135632275 -1130181953 934604506 -296916925 -815287789 -1663904521 1155554567 520495281 1252425761 1385643488 -2079691418 -1662815529 1003905835 1742159837 1671607349 1662462110 -185935020 -340420145 692790310 -1920815051 1645029903 795443399 -1509391416 -1542080441 366070734 -1846039267
REM
CELL 1.54180   50.00000   50.00000   50.00000   90.00000   90.00000   90.00000
LATT -1
SFAC C  
C      1  0.4936300000000  0.5391870000000  0.5556250000000 1.0
C      1  0.5322260000000  0.4827710000000  0.5620670000000 1.0
C      1  0.4692980000000  0.4762290000000  0.5530460000000 1.0
C      1  0.4980260000000  0.5358380000000  0.4383080000000 1.0
C      1  0.5352470000000  0.4851380000000  0.4438780000000 1.0
C      1  0.4689440000000  0.4801130000000  0.4385470000000 1.0
C      1  0.5751780000000  0.5132950000000  0.5661350000000 1.0
C      1  0.4757060000000  0.4268180000000  0.5814340000000 1.0
C      1  0.4489210000000  0.5587990000000  0.5634640000000 1.0
C      1  0.5744600000000  0.5142420000000  0.4185900000000 1.0
C      1  0.4743310000000  0.4268360000000  0.4204180000000 1.0
C      1  0.4514590000000  0.5575730000000  0.4196800000000 1.0
C      1  0.4614630000000  0.6075340000000  0.4845600000000 1.0
C      1  0.6099710000000  0.4792090000000  0.4831420000000 1.0
C      1  0.4272050000000  0.4131790000000  0.4856530000000 1.0
C      1  0.4623140000000  0.6068030000000  0.5158550000000 1.0
C      1  0.6119550000000  0.4786990000000  0.5143450000000 1.0
C      1  0.4280820000000  0.4164180000000  0.5167340000000 1.0
C      1  0.6200450000000  0.5292560000000  0.5126720000000 1.0
C      1  0.4669470000000  0.3820810000000  0.5154250000000 1.0
C      1  0.4129750000000  0.5901780000000  0.5123910000000 1.0
C      1  0.6160500000000  0.5291780000000  0.4840730000000 1.0
C      1  0.4666530000000  0.3805820000000  0.4860710000000 1.0
C      1  0.4148020000000  0.5874310000000  0.4836780000000 1.0
C      1  0.4978910000000  0.4154260000000  0.5122190000000 1.0
C      1  0.4264570000000  0.5462320000000  0.5179740000000 1.0
C      1  0.5752830000000  0.5380210000000  0.5203130000000 1.0
C      1  0.4972510000000  0.4142100000000  0.4846020000000 1.0
C      1  0.4271710000000  0.5433820000000  0.4898950000000 1.0
C      1  0.5718390000000  0.5391210000000  0.4923460000000 1.0
C      1  0.4712940000000  0.5573220000000  0.5162220000000 1.0
C      1  0.5620880000000  0.4932620000000  0.5199160000000 1.0
C      1  0.4657840000000  0.4487310000000  0.5109640000000 1.0
C      1  0.4706870000000  0.5567940000000  0.4859600000000 1.0
C      1  0.5602550000000  0.4947680000000  0.4903010000000 1.0
C      1  0.4650250000000  0.4472330000000  0.4813380000000 1.0
C      1  0.4485000000000  0.5182510000000  0.4571710000000 1.0
C      1  0.5391480000000  0.5334360000000  0.4607030000000 1.0
C      1  0.5104800000000  0.4483560000000  0.4578340000000 1.0
C      1  0.4486330000000  0.5164350000000  0.5455820000000 1.0
C      1  0.5381910000000  0.5340340000000  0.5474400000000 1.0
C      1  0.5083600000000  0.4485950000000  0.5414840000000 1.0
C      1  0.5166830000000  0.5605840000000  0.5075930000000 1.0
C      1  0.5482450000000  0.4464110000000  0.5164120000000 1.0
C      1  0.4397040000000  0.4856690000000  0.5042590000000 1.0
C      1  0.5180780000000  0.5684280000000  0.4808290000000 1.0
C      1  0.5473020000000  0.4470170000000  0.4877040000000 1.0
C      1  0.4316290000000  0.4816020000000  0.4779890000000 1.0
C      1  0.3974920000000  0.4736420000000  0.4229910000000 1.0
C      1  0.5280120000000  0.6008400000000  0.4256330000000 1.0
C      1  0.5747310000000  0.4268450000000  0.4255640000000 1.0
C      1  0.3936840000000  0.4706620000000  0.5830520000000 1.0
C      1  0.5294840000000  0.6057870000000  0.5833860000000 1.0
C      1  0.5733170000000  0.4235910000000  0.5725230000000 1.0
C      1  0.5429880000000  0.3879550000000  0.4642990000000 1.0
C      1  0.3827430000000  0.5180410000000  0.4637500000000 1.0
C      1  0.5722170000000  0.5920170000000  0.4648780000000 1.0
C      1  0.5438590000000  0.3895510000000  0.5356130000000 1.0
C      1  0.3830430000000  0.5211200000000  0.5363020000000 1.0
C      1  0.5755300000000  0.5898600000000  0.5374830000000 1.0
C      1  0.5239220000000  0.4831650000000  0.3887130000000 1.0
C      1  0.4751270000000  0.4870800000000  0.3868680000000 1.0
C      1  0.5025250000000  0.5277570000000  0.3863130000000 1.0
C      1  0.5243670000000  0.4831900000000  0.6119590000000 1.0
C      1  0.4751020000000  0.4875740000000  0.6081860000000 1.0
C      1  0.5038980000000  0.5273600000000  0.6075250000000 1.0
C      1  0.4297310000000  0.5801810000000  0.5566700000000 1.0
C      1  0.6028140000000  0.5204730000000  0.5587690000000 1.0
C      1  0.4721960000000  0.4071250000000  0.5602830000000 1.0
C      1  0.4349530000000  0.5709320000000  0.4401130000000 1.0
C      1  0.5923300000000  0.5210820000000  0.4403200000000 1.0
C      1  0.4704880000000  0.4050280000000  0.4403810000000 1.0
C      1  0.5122000000000  0.5250600000000  0.4601960000000 1.0
C      1  0.5165280000000  0.4755480000000  0.4622540000000 1.0
C      1  0.4707650000000  0.4998380000000  0.4585500000000 1.0
C      1  0.5125910000000  0.5283290000000  0.5380440000000 1.0
C      1  0.5141440000000  0.4764160000000  0.5417570000000 1.0
C      1  0.4679070000000  0.4985940000000  0.5362190000000 1.0
C      1  0.5292620000000  0.4026990000000  0.5873920000000 1.0
C      1  0.4007610000000  0.5320190000000  0.5880500000000 1.0
C      1  0.5776230000000  0.5695200000000  0.5895070000000 1.0
C      1  0.5283270000000  0.4024970000000  0.4132840000000 1.0
C      1  0.4025760000000  0.5242720000000  0.4123410000000 1.0
C      1  0.5690150000000  0.5727420000000  0.4130240000000 1.0
C      1  0.4906680000000  0.5743330000000  0.4735800000000 1.0
C      1  0.5652120000000  0.4687990000000  0.4787570000000 1.0
C      1  0.4390140000000  0.4548330000000  0.4707390000000 1.0
C      1  0.4948580000000  0.5725670000000  0.5231950000000 1.0
C      1  0.5680050000000  0.4660590000000  0.5264760000000 1.0
C      1  0.4415080000000  0.4610720000000  0.5199140000000 1.0
C      1  0.5351780000000  0.4372070000000  0.5401410000000 1.0
C      1  0.4265580000000  0.5044100000000  0.5581700000000 1.0
C      1  0.5405630000000  0.5594240000000  0.5595380000000 1.0
C      1  0.5362700000000  0.4363560000000  0.4631380000000 1.0
C      1  0.4266260000000  0.4989480000000  0.4561940000000 1.0
C      1  0.5349930000000  0.5624530000000  0.4589270000000 1.0
C      1  0.4942810000000  0.5583740000000  0.5748010000000 1.0
C      1  0.5482970000000  0.4642690000000  0.5768140000000 1.0
C      1  0.4539180000000  0.4660030000000  0.5725860000000 1.0
C      1  0.5059950000000  0.5580610000000  0.4222300000000 1.0
C      1  0.5516800000000  0.4751370000000  0.4251720000000 1.0
C      1  0.4461480000000  0.4748380000000  0.4216130000000 1.0
C      1  0.4980870000000  0.4695280000000  0.3913310000000 1.0
C      1  0.4758930000000  0.5163960000000  0.3898360000000 1.0
C      1  0.5272470000000  0.5123140000000  0.3896820000000 1.0
C      1  0.4983830000000  0.4697060000000  0.6086990000000 1.0
C      1  0.4769610000000  0.5162900000000  0.6042220000000 1.0
C      1  0.5281310000000  0.5113110000000  0.6054520000000 1.0
C      1  0.4254630000000  0.5243600000000  0.3975900000000 1.0
C      1  0.5581140000000  0.5532700000000  0.3973840000000 1.0
C      1  0.5170760000000  0.4228690000000  0.3993450000000 1.0
C      1  0.4252490000000  0.5327740000000  0.5999740000000 1.0
C      1  0.5675570000000  0.5469620000000  0.6010400000000 1.0
C      1  0.5179080000000  0.4222260000000  0.6025690000000 1.0
C      1  0.5956150000000  0.4223460000000  0.4106220000000 1.0
C      1  0.3766350000000  0.4619610000000  0.4126000000000 1.0
C      1  0.5275410000000  0.6244680000000  0.4146230000000 1.0
C      1  0.5938520000000  0.4122860000000  0.5839500000000 1.0
C      1  0.3778080000000  0.4536410000000  0.5947830000000 1.0
C      1  0.5234790000000  0.6283560000000  0.5949600000000 1.0
C      1  0.5564780000000  0.5205360000000  0.4787830000000 1.0
C      1  0.4888110000000  0.4366630000000  0.4704750000000 1.0
C      1  0.4503450000000  0.5401130000000  0.4750210000000 1.0
C      1  0.5613870000000  0.5178110000000  0.5384410000000 1.0
C      1  0.4887090000000  0.4385430000000  0.5243530000000 1.0
C      1  0.4507300000000  0.5444550000000  0.5357090000000 1.0
C      1  0.5918020000000  0.4562600000000  0.4753760000000 1.0
C      1  0.4157250000000  0.4383800000000  0.4743670000000 1.0
C      1  0.4899710000000  0.6038380000000  0.4754060000000 1.0
C      1  0.5951430000000  0.4549530000000  0.5243310000000 1.0
C      1  0.4175080000000  0.4449970000000  0.5237170000000 1.0
C      1  0.4922080000000  0.6015740000000  0.5245890000000 1.0
C      1  0.4502850000000  0.4012370000000  0.5322630000000 1.0
C      1  0.4364290000000  0.5973260000000  0.5305690000000 1.0
C      1  0.6156840000000  0.5051490000000  0.5295290000000 1.0
C      1  0.4492930000000  0.3984590000000  0.4695680000000 1.0
C      1  0.4388840000000  0.5939890000000  0.4682120000000 1.0
C      1  0.6098290000000  0.5054820000000  0.4678660000000 1.0
C      1  0.3916830000000  0.4629300000000  0.4854920000000 1.0
C      1  0.5196050000000  0.6124840000000  0.4854830000000 1.0
C      1  0.5877380000000  0.4257120000000  0.4841520000000 1.0
C      1  0.3948090000000  0.4643860000000  0.5152780000000 1.0
C      1  0.5205900000000  0.6107320000000  0.5159840000000 1.0
C      1  0.5891270000000  0.4253390000000  0.5146550000000 1.0
C      1  0.5248370000000  0.3781010000000  0.5147390000000 1.0
C      1  0.3805250000000  0.5421210000000  0.5141100000000 1.0
C      1  0.5940350000000  0.5804960000000  0.5151830000000 1.0
C      1  0.5242230000000  0.3768490000000  0.4854550000000 1.0
C      1  0.3814750000000  0.5399370000000  0.4847900000000 1.0
C      1  0.5906720000000  0.5809940000000  0.4861740000000 1.0
C      1  0.5532190000000  0.5249310000000  0.4005660000000 1.0
C      1  0.4947200000000  0.4409720000000  0.4028920000000 1.0
C      1  0.4527350000000  0.5335510000000  0.4013570000000 1.0
C      1  0.5586740000000  0.5213770000000  0.5910360000000 1.0
C      1  0.4958160000000  0.4405190000000  0.5988700000000 1.0
C      1  0.4517600000000  0.5374360000000  0.5908430000000 1.0
C      1  0.5115230000000  0.5322780000000  0.5100000000000 1.0
C      1  0.5147570000000  0.4860040000000  0.5157660000000 1.0
C      1  0.4653750000000  0.4976720000000  0.5080700000000 1.0
C      1  0.5016340000000  0.5207890000000  0.4862260000000 1.0
C      1  0.5167510000000  0.4808530000000  0.4898030000000 1.0
C      1  0.4801890000000  0.5033580000000  0.4853650000000 1.0
C      1  0.5782220000000  0.5741410000000  0.4398890000000 1.0
C      1  0.5242160000000  0.3910040000000  0.4389120000000 1.0
C      1  0.3956550000000  0.5321380000000  0.4387650000000 1.0
C      1  0.5869610000000  0.5734660000000  0.5628580000000 1.0
C      1  0.5254040000000  0.3929920000000  0.5609710000000 1.0
C      1  0.3921180000000  0.5387630000000  0.5617340000000 1.0
C      1  0.4015120000000  0.5635260000000  0.5236600000000 1.0
C      1  0.6027640000000  0.5518500000000  0.5248480000000 1.0
C      1  0.4964380000000  0.3878270000000  0.5241540000000 1.0
C      1  0.4050140000000  0.5589340000000  0.4762340000000 1.0
C      1  0.5952810000000  0.5512650000000  0.4776330000000 1.0
C      1  0.4955720000000  0.3854690000000  0.4755850000000 1.0
C      1  0.5466240000000  0.4675700000000  0.6044790000000 1.0
C      1  0.4524320000000  0.4743090000000  0.5981810000000 1.0
C      1  0.5038890000000  0.5543540000000  0.5997380000000 1.0
C      1  0.5463680000000  0.4699340000000  0.3993290000000 1.0
C      1  0.4509070000000  0.4749270000000  0.3941900000000 1.0
C      1  0.5040970000000  0.5545780000000  0.3946520000000 1.0
C      1  0.4952800000000  0.3894390000000  0.4459440000000 1.0
C      1  0.4100850000000  0.5567110000000  0.4468520000000 1.0
C      1  0.5912660000000  0.5490630000000  0.4482590000000 1.0
C      1  0.4967320000000  0.3926600000000  0.5534490000000 1.0
C      1  0.4028230000000  0.5655220000000  0.5535020000000 1.0
C      1  0.6043320000000  0.5503910000000  0.5546510000000 1.0
C      1  0.5347370000000  0.5829820000000  0.5708160000000 1.0
C      1  0.5521450000000  0.4395660000000  0.5637800000000 1.0
C      1  0.4102060000000  0.4870690000000  0.5702960000000 1.0
C      1  0.5251180000000  0.5746010000000  0.4346300000000 1.0
C      1  0.5539620000000  0.4309980000000  0.4417550000000 1.0
C      1  0.4216530000000  0.4837370000000  0.4323870000000 1.0
C      1  0.3825820000000  0.4888300000000  0.4720250000000 1.0
C      1  0.5471720000000  0.6072620000000  0.4724550000000 1.0
C      1  0.5691300000000  0.4027090000000  0.4725300000000 1.0
C      1  0.3864220000000  0.4915450000000  0.5280800000000 1.0
C      1  0.5484700000000  0.6031150000000  0.5287940000000 1.0
C      1  0.5698310000000  0.4038620000000  0.5274410000000 1.0
END
