TITL C-3623289-7120-1158 -5.09940765992895e-07 125000 -674.845824580145 0 0 110 (C1) n - 1
REM
REM in /home/nfs/bkarasulu/CARBON/AIRSS/Generating-Clusters/LCBOP/Higher-Symm/SD-CG/FIRE-CG
REM
REM
REM
REM
REM
REM ./C.cell (b20cbc046b6831c77cfcea5457e17084)
REM AIRSS Version 0.9.1 bugfix July 2018 build 013d7b7c2542+ Fri, 06 Jul 2018 19:26:36 +0100
REM compiler GCC version 9.2.1 20190827 (Red Hat 9.2.1-1)
REM options -cpp -mtune=generic -march=x86-64 -g -O0 -fpre-include=/usr/include/finclude/math-vector-fortran.h
REM seed -966952326 -2081931483 688072773 -461818193 -1511838556 2112353823 1638740209 1212541910 1823462848 284439728 682684804 1895831960 113320850 -564732958 -1779529198 639881759 -5165237 -1585288646 102885182 -672122612 22220238 -58698307 537456972 422242576 1869816131 -1230211792 -205745154 2134429208 -1208822764 -1530385681 1017270794 -1699064978 -1968411810
REM
CELL 1.54180   50.00000   50.00000   50.00000   90.00000   90.00000   90.00000
LATT -1
SFAC C  
C      1  0.4882070000000  0.4310720000000  0.4764700000000 1.0
C      1  0.4968000000000  0.4588740000000  0.5616840000000 1.0
C      1  0.5814010000000  0.4710930000000  0.4986130000000 1.0
C      1  0.4431340000000  0.4342440000000  0.4593110000000 1.0
C      1  0.4449020000000  0.5962820000000  0.4619570000000 1.0
C      1  0.5869520000000  0.5064320000000  0.6027980000000 1.0
C      1  0.4742530000000  0.5780240000000  0.4269540000000 1.0
C      1  0.5629960000000  0.5625080000000  0.5329090000000 1.0
C      1  0.4475390000000  0.5825800000000  0.5262620000000 1.0
C      1  0.5470540000000  0.4265910000000  0.5309700000000 1.0
C      1  0.5900890000000  0.4993490000000  0.4995760000000 1.0
C      1  0.4512700000000  0.4257640000000  0.5642180000000 1.0
C      1  0.4586420000000  0.4245940000000  0.4814740000000 1.0
C      1  0.5997330000000  0.5352590000000  0.5482880000000 1.0
C      1  0.4138130000000  0.5467980000000  0.5089790000000 1.0
C      1  0.5473640000000  0.4953090000000  0.5179180000000 1.0
C      1  0.4404740000000  0.4479680000000  0.5228120000000 1.0
C      1  0.4430750000000  0.4724640000000  0.5071060000000 1.0
C      1  0.4942570000000  0.5486580000000  0.5494180000000 1.0
C      1  0.4757820000000  0.5862900000000  0.5205640000000 1.0
C      1  0.5105180000000  0.4129810000000  0.4868700000000 1.0
C      1  0.5371700000000  0.5584480000000  0.4426810000000 1.0
C      1  0.5623600000000  0.5772890000000  0.5081110000000 1.0
C      1  0.5408550000000  0.5715880000000  0.4906540000000 1.0
C      1  0.4360980000000  0.4193870000000  0.4365970000000 1.0
C      1  0.5058240000000  0.4318220000000  0.4244620000000 1.0
C      1  0.5375400000000  0.4859460000000  0.4880960000000 1.0
C      1  0.5658880000000  0.4700270000000  0.5241940000000 1.0
C      1  0.4862330000000  0.5436890000000  0.5982800000000 1.0
C      1  0.5390580000000  0.4747770000000  0.5817120000000 1.0
C      1  0.4745250000000  0.5308870000000  0.4371770000000 1.0
C      1  0.4226220000000  0.5197050000000  0.5154280000000 1.0
C      1  0.4484900000000  0.5072850000000  0.4724400000000 1.0
C      1  0.5019810000000  0.5522840000000  0.5768560000000 1.0
C      1  0.4791990000000  0.4760090000000  0.5760770000000 1.0
C      1  0.4337510000000  0.4966200000000  0.5620000000000 1.0
C      1  0.4695610000000  0.5124250000000  0.5314320000000 1.0
C      1  0.5479590000000  0.4448830000000  0.4630950000000 1.0
C      1  0.4907700000000  0.4893230000000  0.4541400000000 1.0
C      1  0.5170580000000  0.4259090000000  0.5329080000000 1.0
C      1  0.5227580000000  0.5931430000000  0.5482740000000 1.0
C      1  0.4927970000000  0.6095440000000  0.4564190000000 1.0
C      1  0.5594530000000  0.4499140000000  0.5429430000000 1.0
C      1  0.5167610000000  0.5511660000000  0.5307640000000 1.0
C      1  0.5230470000000  0.5529530000000  0.5030090000000 1.0
C      1  0.5095660000000  0.4721990000000  0.5396770000000 1.0
C      1  0.5465400000000  0.5136370000000  0.4303470000000 1.0
C      1  0.4666840000000  0.4474810000000  0.3811570000000 1.0
C      1  0.4914360000000  0.4547990000000  0.4968900000000 1.0
C      1  0.4945020000000  0.4961190000000  0.5908450000000 1.0
C      1  0.4869870000000  0.5060220000000  0.4307140000000 1.0
C      1  0.5081280000000  0.4739860000000  0.4009170000000 1.0
C      1  0.4470470000000  0.4275550000000  0.3843610000000 1.0
C      1  0.5845190000000  0.4606800000000  0.5840430000000 1.0
C      1  0.4600150000000  0.5322150000000  0.4626190000000 1.0
C      1  0.4979490000000  0.5970460000000  0.5358420000000 1.0
C      1  0.5053500000000  0.5016270000000  0.4093150000000 1.0
C      1  0.4625610000000  0.4842400000000  0.4610560000000 1.0
C      1  0.5952580000000  0.4815070000000  0.5973070000000 1.0
C      1  0.5165540000000  0.5493940000000  0.4231870000000 1.0
C      1  0.5195980000000  0.4897820000000  0.4646820000000 1.0
C      1  0.5384490000000  0.4219640000000  0.4807620000000 1.0
C      1  0.4218800000000  0.5113930000000  0.5427990000000 1.0
C      1  0.4683000000000  0.5529330000000  0.4800700000000 1.0
C      1  0.5551170000000  0.4178580000000  0.5045740000000 1.0
C      1  0.4795670000000  0.5714170000000  0.4961910000000 1.0
C      1  0.4355240000000  0.4162190000000  0.3622600000000 1.0
C      1  0.4819500000000  0.5176800000000  0.6040810000000 1.0
C      1  0.4719250000000  0.4743220000000  0.5027470000000 1.0
C      1  0.5313190000000  0.5493500000000  0.5757360000000 1.0
C      1  0.5249820000000  0.5224440000000  0.4124530000000 1.0
C      1  0.5400270000000  0.4889090000000  0.4426890000000 1.0
C      1  0.5658260000000  0.5222920000000  0.5985030000000 1.0
C      1  0.5413630000000  0.4601930000000  0.4373130000000 1.0
C      1  0.5181560000000  0.6010060000000  0.4594410000000 1.0
C      1  0.4748950000000  0.4146610000000  0.5535960000000 1.0
C      1  0.4333900000000  0.4997280000000  0.4968910000000 1.0
C      1  0.5219230000000  0.4536650000000  0.4171580000000 1.0
C      1  0.3606080000000  0.5515140000000  0.4993460000000 1.0
C      1  0.4531760000000  0.4234440000000  0.5099300000000 1.0
C      1  0.4297560000000  0.5856430000000  0.4816760000000 1.0
C      1  0.5240390000000  0.4987700000000  0.5871850000000 1.0
C      1  0.4972970000000  0.5136050000000  0.4934140000000 1.0
C      1  0.4809930000000  0.4996190000000  0.5100300000000 1.0
C      1  0.5774990000000  0.5376830000000  0.5323570000000 1.0
C      1  0.5705900000000  0.5160110000000  0.5149400000000 1.0
C      1  0.5375360000000  0.5654410000000  0.5492060000000 1.0
C      1  0.4690290000000  0.5973480000000  0.4470070000000 1.0
C      1  0.5017730000000  0.4064990000000  0.5142100000000 1.0
C      1  0.4289270000000  0.5717040000000  0.5068870000000 1.0
C      1  0.4737800000000  0.4081760000000  0.5250240000000 1.0
C      1  0.4708400000000  0.5355070000000  0.5439940000000 1.0
C      1  0.4470610000000  0.4618520000000  0.4547060000000 1.0
C      1  0.3861350000000  0.5493030000000  0.5041010000000 1.0
C      1  0.4391450000000  0.4191610000000  0.4100410000000 1.0
C      1  0.4512340000000  0.4746750000000  0.5660750000000 1.0
C      1  0.4922150000000  0.4295620000000  0.4472050000000 1.0
C      1  0.4992890000000  0.4299730000000  0.5579670000000 1.0
C      1  0.4882460000000  0.5537170000000  0.4266560000000 1.0
C      1  0.4878420000000  0.4634820000000  0.3841530000000 1.0
C      1  0.5399940000000  0.5241370000000  0.5871680000000 1.0
C      1  0.5572830000000  0.5371020000000  0.4433130000000 1.0
C      1  0.5595450000000  0.4659740000000  0.4800610000000 1.0
C      1  0.5137820000000  0.5328100000000  0.4869200000000 1.0
C      1  0.5346070000000  0.5783400000000  0.4633960000000 1.0
C      1  0.5598240000000  0.4586160000000  0.5703930000000 1.0
C      1  0.5101040000000  0.4527900000000  0.5181510000000 1.0
C      1  0.4430270000000  0.4501660000000  0.5521120000000 1.0
C      1  0.5826110000000  0.5396210000000  0.4528610000000 1.0
C      1  0.5249170000000  0.4952750000000  0.5363920000000 1.0
END
