TITL C-3623288-6813-312 -14.5872781461458 125000 -813.123892551031 0 0 133 (C1) n - 1
REM
REM in /home/nfs/bkarasulu/CARBON/AIRSS/Generating-Clusters/LCBOP/Higher-Symm/SD-CG/FIRE-CG
REM
REM
REM
REM
REM
REM ./C.cell (b20cbc046b6831c77cfcea5457e17084)
REM AIRSS Version 0.9.1 bugfix July 2018 build 013d7b7c2542+ Fri, 06 Jul 2018 19:26:36 +0100
REM compiler GCC version 9.2.1 20190827 (Red Hat 9.2.1-1)
REM options -cpp -mtune=generic -march=x86-64 -g -O0 -fpre-include=/usr/include/finclude/math-vector-fortran.h
REM seed 1113528001 2041444029 1941008564 291265974 -1622210656 505616226 -1275305447 -1948110435 -832420011 -247618853 1449335672 980366954 -1253778277 -1903310672 789639259 -1034177265 1044214080 658147138 547510839 1185181492 1439098000 -1755926955 -724447819 1318126801 2102158233 -1267421068 785870814 2038757037 584262163 102107738 -612919294 -813914679 -173768856
REM
CELL 1.54180   50.00000   50.00000   50.00000   90.00000   90.00000   90.00000
LATT -1
SFAC C  
C      1  0.4467800000000  0.4823210000000  0.5801150000000 1.0
C      1  0.5981820000000  0.4807740000000  0.5048810000000 1.0
C      1  0.4566960000000  0.4822590000000  0.4149950000000 1.0
C      1  0.4080660000000  0.5274020000000  0.4989170000000 1.0
C      1  0.5485120000000  0.5247360000000  0.5806700000000 1.0
C      1  0.5448890000000  0.5289360000000  0.4214510000000 1.0
C      1  0.4398980000000  0.4823650000000  0.5017420000000 1.0
C      1  0.5310200000000  0.4829320000000  0.5486370000000 1.0
C      1  0.5285700000000  0.4846530000000  0.4500200000000 1.0
C      1  0.4032200000000  0.5006590000000  0.4865920000000 1.0
C      1  0.5376160000000  0.4982350000000  0.5898860000000 1.0
C      1  0.5592580000000  0.5020980000000  0.4232170000000 1.0
C      1  0.4799960000000  0.5425300000000  0.4874110000000 1.0
C      1  0.4971820000000  0.5438620000000  0.5139800000000 1.0
C      1  0.5272990000000  0.5471160000000  0.4996530000000 1.0
C      1  0.5721700000000  0.5544940000000  0.4525680000000 1.0
C      1  0.3975770000000  0.5524120000000  0.4414780000000 1.0
C      1  0.5071420000000  0.5521970000000  0.5831060000000 1.0
C      1  0.5271120000000  0.4531740000000  0.4989620000000 1.0
C      1  0.4874220000000  0.4511630000000  0.4751140000000 1.0
C      1  0.4866310000000  0.4528190000000  0.5219260000000 1.0
C      1  0.4700690000000  0.4126820000000  0.4152030000000 1.0
C      1  0.4460170000000  0.4082130000000  0.5582770000000 1.0
C      1  0.5879800000000  0.4111230000000  0.5121980000000 1.0
C      1  0.5010430000000  0.4818240000000  0.3846780000000 1.0
C      1  0.3983510000000  0.4815620000000  0.5566260000000 1.0
C      1  0.6000300000000  0.4771400000000  0.5585700000000 1.0
C      1  0.4196360000000  0.5423910000000  0.5214150000000 1.0
C      1  0.5631890000000  0.5407730000000  0.5609130000000 1.0
C      1  0.5200010000000  0.5451430000000  0.4225760000000 1.0
C      1  0.5439690000000  0.4745870000000  0.5048630000000 1.0
C      1  0.4838690000000  0.4739500000000  0.4587060000000 1.0
C      1  0.4735350000000  0.4745830000000  0.5334350000000 1.0
C      1  0.5424670000000  0.5695550000000  0.5100020000000 1.0
C      1  0.4818630000000  0.5675600000000  0.4724980000000 1.0
C      1  0.4839530000000  0.5707080000000  0.5245110000000 1.0
C      1  0.4786240000000  0.5026500000000  0.5348810000000 1.0
C      1  0.5460070000000  0.5023940000000  0.4998940000000 1.0
C      1  0.4784770000000  0.5014830000000  0.4626800000000 1.0
C      1  0.5078930000000  0.4875090000000  0.5878360000000 1.0
C      1  0.5745390000000  0.4888690000000  0.4486890000000 1.0
C      1  0.4182710000000  0.4881510000000  0.4621780000000 1.0
C      1  0.4538550000000  0.4576960000000  0.4318230000000 1.0
C      1  0.4630200000000  0.4570400000000  0.5750550000000 1.0
C      1  0.5839430000000  0.4574760000000  0.4922250000000 1.0
C      1  0.5618800000000  0.4446430000000  0.5381130000000 1.0
C      1  0.5052650000000  0.4464950000000  0.4261120000000 1.0
C      1  0.4325160000000  0.4472860000000  0.5344880000000 1.0
C      1  0.4307850000000  0.4380220000000  0.4824640000000 1.0
C      1  0.5191020000000  0.4370860000000  0.5699920000000 1.0
C      1  0.5541010000000  0.4386510000000  0.4483410000000 1.0
C      1  0.4474140000000  0.5082580000000  0.4238640000000 1.0
C      1  0.4585840000000  0.5090230000000  0.5815670000000 1.0
C      1  0.5955910000000  0.5077300000000  0.4946220000000 1.0
C      1  0.5502070000000  0.5940250000000  0.4638250000000 1.0
C      1  0.4177640000000  0.5855950000000  0.4714800000000 1.0
C      1  0.5178230000000  0.5958070000000  0.5722940000000 1.0
C      1  0.3873470000000  0.4813280000000  0.5320710000000 1.0
C      1  0.5838110000000  0.4765750000000  0.5800420000000 1.0
C      1  0.5277870000000  0.4817610000000  0.3872740000000 1.0
C      1  0.5273520000000  0.4245520000000  0.5050290000000 1.0
C      1  0.4974290000000  0.4245020000000  0.4677860000000 1.0
C      1  0.4827750000000  0.4244070000000  0.5216210000000 1.0
C      1  0.5899350000000  0.5598360000000  0.5092410000000 1.0
C      1  0.4614770000000  0.5592090000000  0.4278030000000 1.0
C      1  0.4549990000000  0.5623230000000  0.5639890000000 1.0
C      1  0.5718600000000  0.4602470000000  0.4614520000000 1.0
C      1  0.4328020000000  0.4594520000000  0.4590400000000 1.0
C      1  0.4978710000000  0.4588510000000  0.5792890000000 1.0
C      1  0.5588500000000  0.5688850000000  0.5529120000000 1.0
C      1  0.5122910000000  0.5701070000000  0.4372810000000 1.0
C      1  0.4331750000000  0.5680900000000  0.5186320000000 1.0
C      1  0.4766340000000  0.4376800000000  0.4242890000000 1.0
C      1  0.4457150000000  0.4367070000000  0.5589460000000 1.0
C      1  0.5777110000000  0.4364290000000  0.5143190000000 1.0
C      1  0.4659050000000  0.5316800000000  0.4199060000000 1.0
C      1  0.4459850000000  0.5336790000000  0.5676930000000 1.0
C      1  0.5922360000000  0.5307640000000  0.5142120000000 1.0
C      1  0.5016290000000  0.5875290000000  0.4824670000000 1.0
C      1  0.5011440000000  0.5907620000000  0.5115480000000 1.0
C      1  0.5266260000000  0.5899980000000  0.5239210000000 1.0
C      1  0.4258890000000  0.5842450000000  0.4969270000000 1.0
C      1  0.5358960000000  0.5882400000000  0.5519020000000 1.0
C      1  0.5227300000000  0.5869240000000  0.4604320000000 1.0
C      1  0.5482650000000  0.4369160000000  0.5629690000000 1.0
C      1  0.5335420000000  0.4384710000000  0.4266390000000 1.0
C      1  0.4180830000000  0.4395630000000  0.5098630000000 1.0
C      1  0.4482020000000  0.3953620000000  0.5341040000000 1.0
C      1  0.5096150000000  0.3818550000000  0.5153640000000 1.0
C      1  0.5164190000000  0.3817050000000  0.4884560000000 1.0
C      1  0.5237810000000  0.5107210000000  0.4599770000000 1.0
C      1  0.4493420000000  0.5083120000000  0.4992920000000 1.0
C      1  0.5263500000000  0.5092320000000  0.5402090000000 1.0
C      1  0.4571550000000  0.5704060000000  0.5354230000000 1.0
C      1  0.5676010000000  0.5691950000000  0.5241960000000 1.0
C      1  0.4829070000000  0.5689280000000  0.4437350000000 1.0
C      1  0.5105140000000  0.4131700000000  0.5564020000000 1.0
C      1  0.5478710000000  0.4147130000000  0.4632190000000 1.0
C      1  0.4491300000000  0.4157090000000  0.4868480000000 1.0
C      1  0.3884410000000  0.4845490000000  0.5052420000000 1.0
C      1  0.5600950000000  0.4804020000000  0.5924990000000 1.0
C      1  0.5504540000000  0.4856260000000  0.4014130000000 1.0
C      1  0.4375960000000  0.5735350000000  0.4287280000000 1.0
C      1  0.4699130000000  0.5793280000000  0.5814070000000 1.0
C      1  0.5937850000000  0.5768270000000  0.4865740000000 1.0
C      1  0.4462610000000  0.4700730000000  0.5258120000000 1.0
C      1  0.5493200000000  0.4692960000000  0.5326840000000 1.0
C      1  0.5061420000000  0.4708060000000  0.4406720000000 1.0
C      1  0.5392760000000  0.5248880000000  0.4804420000000 1.0
C      1  0.4661840000000  0.5186860000000  0.4807100000000 1.0
C      1  0.5006400000000  0.5229660000000  0.5387590000000 1.0
C      1  0.5088300000000  0.4097050000000  0.5269190000000 1.0
C      1  0.5225440000000  0.4090400000000  0.4779610000000 1.0
C      1  0.4607690000000  0.4087680000000  0.5122200000000 1.0
C      1  0.4757460000000  0.4816800000000  0.3937570000000 1.0
C      1  0.4187610000000  0.4813160000000  0.5741780000000 1.0
C      1  0.6059130000000  0.4780850000000  0.5323120000000 1.0
C      1  0.4029400000000  0.5266870000000  0.4361810000000 1.0
C      1  0.4981800000000  0.5306630000000  0.5682840000000 1.0
C      1  0.5652650000000  0.5316330000000  0.4667480000000 1.0
C      1  0.4552280000000  0.5155470000000  0.5257630000000 1.0
C      1  0.5483690000000  0.5158410000000  0.5248310000000 1.0
C      1  0.4985930000000  0.5164750000000  0.4500130000000 1.0
C      1  0.4349810000000  0.5273020000000  0.5412970000000 1.0
C      1  0.5722800000000  0.5259530000000  0.5362420000000 1.0
C      1  0.4950420000000  0.5282740000000  0.4245020000000 1.0
C      1  0.4875600000000  0.5089240000000  0.5835810000000 1.0
C      1  0.5833340000000  0.5096370000000  0.4682210000000 1.0
C      1  0.4230410000000  0.5072740000000  0.4399190000000 1.0
C      1  0.5746130000000  0.5793770000000  0.4653510000000 1.0
C      1  0.4155050000000  0.5735740000000  0.4462020000000 1.0
C      1  0.4982340000000  0.5787060000000  0.5831530000000 1.0
C      1  0.4999300000000  0.4594390000000  0.4986350000000 1.0
END
