TITL C-3623284-6838-34 0.000312999393072606 125000 -72.4487698343458 0 0 14 (C2) n - 1
REM
REM in /home/nfs/bkarasulu/CARBON/AIRSS/Generating-Clusters/LCBOP/Higher-Symm/SD-CG/FIRE-CG
REM
REM
REM
REM
REM
REM ./C.cell (b20cbc046b6831c77cfcea5457e17084)
REM AIRSS Version 0.9.1 bugfix July 2018 build 013d7b7c2542+ Fri, 06 Jul 2018 19:26:36 +0100
REM compiler GCC version 9.2.1 20190827 (Red Hat 9.2.1-1)
REM options -cpp -mtune=generic -march=x86-64 -g -O0 -fpre-include=/usr/include/finclude/math-vector-fortran.h
REM seed -2110564531 1887795365 225710861 -2131117787 -903945482 497549801 -1881227843 1806043799 584230933 1822796375 -1342329392 1984787766 500826176 1080223368 1918027244 1041850870 -1930990666 -874721353 2123898474 1105840792 1956250743 1535761838 -1129253064 -1526949655 -1851511961 713516714 -246620127 295155015 1157939576 1062830608 1776724368 -1212804872 -493438267
REM
CELL 1.54180   50.00000   50.00000   50.00000   90.00000   90.00000   90.00000
LATT -1
SFAC C  
C      1  0.4720090000000  0.5061250000000  0.4904950000000 1.0
C      1  0.4892760000000  0.4932520000000  0.4718910000000 1.0
C      1  0.5169470000000  0.5000330000000  0.4717180000000 1.0
C      1  0.5298370000000  0.5067850000000  0.4962130000000 1.0
C      1  0.5215890000000  0.4938620000000  0.5201900000000 1.0
C      1  0.4971260000000  0.5021190000000  0.5321590000000 1.0
C      1  0.4730000000000  0.4978230000000  0.5176970000000 1.0
C      1  0.4515950000000  0.4853880000000  0.5293350000000 1.0
C      1  0.4553360000000  0.5262900000000  0.4825290000000 1.0
C      1  0.4794080000000  0.4741380000000  0.4549520000000 1.0
C      1  0.5310280000000  0.5000610000000  0.4482180000000 1.0
C      1  0.5494090000000  0.5259180000000  0.4969580000000 1.0
C      1  0.5364960000000  0.4736930000000  0.5311010000000 1.0
C      1  0.4969450000000  0.5145110000000  0.5565430000000 1.0
END
