TITL C-3623283-6828-178 -12003.3395319727 125000 -774.605402755698 0 0 130 (C1) n - 1
REM
REM in /home/nfs/bkarasulu/CARBON/AIRSS/Generating-Clusters/LCBOP/Higher-Symm/SD-CG/FIRE-CG
REM
REM
REM
REM
REM
REM ./C.cell (b20cbc046b6831c77cfcea5457e17084)
REM AIRSS Version 0.9.1 bugfix July 2018 build 013d7b7c2542+ Fri, 06 Jul 2018 19:26:36 +0100
REM compiler GCC version 9.2.1 20190827 (Red Hat 9.2.1-1)
REM options -cpp -mtune=generic -march=x86-64 -g -O0 -fpre-include=/usr/include/finclude/math-vector-fortran.h
REM seed 165935177 640331700 1304716039 1447333830 -1682520277 -479172910 -1100030595 110493611 1424933858 -78194370 -1689603923 -582887928 1533310619 1182170831 1599471576 133674037 -1695707973 324966355 759023836 1707489276 -574507011 -1857171644 2077953957 -1336033309 -1307801205 183532097 -774564556 104784267 -1585261047 1821604940 833138366 -2010574482 -17631442
REM
CELL 1.54180   50.00000   50.00000   50.00000   90.00000   90.00000   90.00000
LATT -1
SFAC C  
C      1  0.4552500000000  0.5888090000000  0.5279980000000 1.0
C      1  0.3990660000000  0.4808360000000  0.5284650000000 1.0
C      1  0.4855280000000  0.4062190000000  0.5270250000000 1.0
C      1  0.5871170000000  0.4555060000000  0.5287040000000 1.0
C      1  0.5756560000000  0.5703340000000  0.5265280000000 1.0
C      1  0.4554010000000  0.4146960000000  0.5270620000000 1.0
C      1  0.3985460000000  0.5119570000000  0.5277170000000 1.0
C      1  0.4834200000000  0.5982090000000  0.5281070000000 1.0
C      1  0.5935470000000  0.5449090000000  0.5271150000000 1.0
C      1  0.5671210000000  0.4314910000000  0.5285800000000 1.0
C      1  0.5920900000000  0.5417560000000  0.4710600000000 1.0
C      1  0.4859700000000  0.5914000000000  0.4742420000000 1.0
C      1  0.3957800000000  0.5091610000000  0.4715310000000 1.0
C      1  0.4545410000000  0.4117690000000  0.4709120000000 1.0
C      1  0.5692730000000  0.4300780000000  0.4731280000000 1.0
C      1  0.5866460000000  0.4556310000000  0.4729580000000 1.0
C      1  0.4833140000000  0.4007680000000  0.4713770000000 1.0
C      1  0.3990110000000  0.4794460000000  0.4721690000000 1.0
C      1  0.4566910000000  0.5813290000000  0.4740620000000 1.0
C      1  0.5770200000000  0.5679590000000  0.4698570000000 1.0
C      1  0.4431940000000  0.5566510000000  0.4516880000000 1.0
C      1  0.4224850000000  0.4633490000000  0.4504520000000 1.0
C      1  0.5085790000000  0.4125480000000  0.4488290000000 1.0
C      1  0.5833550000000  0.4776050000000  0.4517880000000 1.0
C      1  0.5472710000000  0.5709850000000  0.4492190000000 1.0
C      1  0.4436800000000  0.4336080000000  0.4500910000000 1.0
C      1  0.4189660000000  0.5286840000000  0.4502340000000 1.0
C      1  0.5110690000000  0.5798840000000  0.4518460000000 1.0
C      1  0.5844940000000  0.5139970000000  0.4502540000000 1.0
C      1  0.5429550000000  0.4252550000000  0.4498400000000 1.0
C      1  0.4778990000000  0.4685760000000  0.5234590000000 1.0
C      1  0.5202110000000  0.4758840000000  0.5460620000000 1.0
C      1  0.5377010000000  0.5178080000000  0.5306140000000 1.0
C      1  0.4999040000000  0.5446770000000  0.5358300000000 1.0
C      1  0.4681920000000  0.5099790000000  0.5439880000000 1.0
C      1  0.4738830000000  0.5354350000000  0.5357420000000 1.0
C      1  0.5204990000000  0.5307180000000  0.5477670000000 1.0
C      1  0.5371370000000  0.4903650000000  0.5308140000000 1.0
C      1  0.4980110000000  0.4633120000000  0.5405990000000 1.0
C      1  0.4608160000000  0.4897450000000  0.5272890000000 1.0
C      1  0.5693130000000  0.4678040000000  0.4291490000000 1.0
C      1  0.5484170000000  0.5542950000000  0.4271490000000 1.0
C      1  0.4609490000000  0.5529930000000  0.4307560000000 1.0
C      1  0.4308680000000  0.4818880000000  0.4300310000000 1.0
C      1  0.4968570000000  0.4235440000000  0.4263620000000 1.0
C      1  0.5699090000000  0.5216310000000  0.4276860000000 1.0
C      1  0.5466590000000  0.4433190000000  0.4285100000000 1.0
C      1  0.4593800000000  0.4350770000000  0.4269400000000 1.0
C      1  0.4263120000000  0.5099800000000  0.4310690000000 1.0
C      1  0.4978440000000  0.5670910000000  0.4311220000000 1.0
C      1  0.4211950000000  0.5344500000000  0.4963000000000 1.0
C      1  0.4467080000000  0.4464790000000  0.4970970000000 1.0
C      1  0.5341420000000  0.4358830000000  0.4988070000000 1.0
C      1  0.5755240000000  0.5146760000000  0.5013110000000 1.0
C      1  0.5189450000000  0.5832850000000  0.5061860000000 1.0
C      1  0.4294730000000  0.4664960000000  0.5005810000000 1.0
C      1  0.4354090000000  0.5553380000000  0.5063460000000 1.0
C      1  0.5429150000000  0.5749400000000  0.4964350000000 1.0
C      1  0.5742800000000  0.4880020000000  0.5014670000000 1.0
C      1  0.5093060000000  0.4267690000000  0.4948090000000 1.0
C      1  0.4729380000000  0.4548560000000  0.5002560000000 1.0
C      1  0.5365630000000  0.4627390000000  0.4916320000000 1.0
C      1  0.5516910000000  0.5279030000000  0.5086810000000 1.0
C      1  0.5060660000000  0.5583580000000  0.5125810000000 1.0
C      1  0.4382240000000  0.5117170000000  0.4894630000000 1.0
C      1  0.4605190000000  0.5430500000000  0.5127150000000 1.0
C      1  0.5424740000000  0.5464430000000  0.4903860000000 1.0
C      1  0.5488970000000  0.4793250000000  0.5088050000000 1.0
C      1  0.4923970000000  0.4463000000000  0.4835630000000 1.0
C      1  0.4414010000000  0.4910050000000  0.5074980000000 1.0
C      1  0.5079080000000  0.4148230000000  0.5468910000000 1.0
C      1  0.5869860000000  0.4794250000000  0.5489440000000 1.0
C      1  0.5472230000000  0.5771000000000  0.5483590000000 1.0
C      1  0.4398790000000  0.5665040000000  0.5505260000000 1.0
C      1  0.4179470000000  0.4641540000000  0.5481850000000 1.0
C      1  0.5100530000000  0.5896470000000  0.5506630000000 1.0
C      1  0.5890580000000  0.5176630000000  0.5491120000000 1.0
C      1  0.5440070000000  0.4259330000000  0.5478160000000 1.0
C      1  0.4421450000000  0.4346700000000  0.5469330000000 1.0
C      1  0.4179140000000  0.5340270000000  0.5489460000000 1.0
C      1  0.5709710000000  0.5790830000000  0.4975600000000 1.0
C      1  0.4439980000000  0.5819990000000  0.5009420000000 1.0
C      1  0.4015550000000  0.4700860000000  0.5001950000000 1.0
C      1  0.4948820000000  0.4027720000000  0.4987290000000 1.0
C      1  0.5915950000000  0.4654640000000  0.5005900000000 1.0
C      1  0.5599010000000  0.4241590000000  0.5006040000000 1.0
C      1  0.4455560000000  0.4181700000000  0.4987230000000 1.0
C      1  0.3960600000000  0.5216250000000  0.4988860000000 1.0
C      1  0.4961040000000  0.5995060000000  0.5010360000000 1.0
C      1  0.5962290000000  0.5336980000000  0.4993060000000 1.0
C      1  0.5212940000000  0.5377620000000  0.4743690000000 1.0
C      1  0.4741540000000  0.5360190000000  0.4889480000000 1.0
C      1  0.4718060000000  0.5018500000000  0.4549930000000 1.0
C      1  0.5008690000000  0.4625210000000  0.4630780000000 1.0
C      1  0.5341740000000  0.4944720000000  0.4553400000000 1.0
C      1  0.5266240000000  0.4714710000000  0.4675550000000 1.0
C      1  0.4840680000000  0.4793710000000  0.4498790000000 1.0
C      1  0.4608990000000  0.5172650000000  0.4742030000000 1.0
C      1  0.4992030000000  0.5445620000000  0.4888070000000 1.0
C      1  0.5244400000000  0.5187640000000  0.4555600000000 1.0
C      1  0.5262070000000  0.4596330000000  0.4115220000000 1.0
C      1  0.5471110000000  0.5114680000000  0.4115760000000 1.0
C      1  0.5022390000000  0.5434140000000  0.4146520000000 1.0
C      1  0.4599860000000  0.5090040000000  0.4088430000000 1.0
C      1  0.4704480000000  0.4573580000000  0.4114300000000 1.0
C      1  0.5297440000000  0.5365410000000  0.4121430000000 1.0
C      1  0.5435330000000  0.4837490000000  0.4098950000000 1.0
C      1  0.4998750000000  0.4487660000000  0.4114220000000 1.0
C      1  0.4550890000000  0.4811560000000  0.4120480000000 1.0
C      1  0.4736820000000  0.5327280000000  0.4142380000000 1.0
C      1  0.5479220000000  0.5142680000000  0.5833460000000 1.0
C      1  0.4996820000000  0.5496730000000  0.5854530000000 1.0
C      1  0.4537940000000  0.5153700000000  0.5853370000000 1.0
C      1  0.4720460000000  0.4618610000000  0.5840400000000 1.0
C      1  0.5289460000000  0.4609660000000  0.5863840000000 1.0
C      1  0.5470300000000  0.4845180000000  0.5852060000000 1.0
C      1  0.5001150000000  0.4522770000000  0.5857300000000 1.0
C      1  0.4540020000000  0.4855710000000  0.5840190000000 1.0
C      1  0.4712970000000  0.5403560000000  0.5857090000000 1.0
C      1  0.5273180000000  0.5366920000000  0.5765290000000 1.0
C      1  0.5464030000000  0.5618090000000  0.5711120000000 1.0
C      1  0.4538280000000  0.5615580000000  0.5741660000000 1.0
C      1  0.4282110000000  0.4767510000000  0.5713910000000 1.0
C      1  0.4998850000000  0.4251240000000  0.5723720000000 1.0
C      1  0.5729120000000  0.4758090000000  0.5731900000000 1.0
C      1  0.5441930000000  0.4385790000000  0.5733080000000 1.0
C      1  0.4562370000000  0.4401340000000  0.5708680000000 1.0
C      1  0.4275860000000  0.5229750000000  0.5724620000000 1.0
C      1  0.5020850000000  0.5776900000000  0.5748100000000 1.0
C      1  0.5742310000000  0.5226670000000  0.5724300000000 1.0
END
