TITL C-3623287-7182-1431 -4.46470613793112e-08 125000 -172.029382654747 0 0 33 (C2) n - 1
REM
REM in /home/nfs/bkarasulu/CARBON/AIRSS/Generating-Clusters/LCBOP/Higher-Symm/SD-CG/FIRE-CG
REM
REM
REM
REM
REM
REM ./C.cell (b20cbc046b6831c77cfcea5457e17084)
REM AIRSS Version 0.9.1 bugfix July 2018 build 013d7b7c2542+ Fri, 06 Jul 2018 19:26:36 +0100
REM compiler GCC version 9.2.1 20190827 (Red Hat 9.2.1-1)
REM options -cpp -mtune=generic -march=x86-64 -g -O0 -fpre-include=/usr/include/finclude/math-vector-fortran.h
REM seed 964251830 300649938 886769054 581482456 1860541717 298579112 -274857166 -140220590 -574952761 1214277320 -141872177 -793410042 -330956969 -1425913898 -1279815085 1633657070 2077542096 -1944479916 312593974 -1254892420 -83724581 2115612417 120474525 1763971221 406478804 -1555869021 -1997035121 2026593735 1146432880 15420804 -1915333860 -1303298891 -674070925
REM
CELL 1.54180   50.00000   50.00000   50.00000   90.00000   90.00000   90.00000
LATT -1
SFAC C  
C      1  0.5048990000000  0.5294500000000  0.5315890000000 1.0
C      1  0.4783770000000  0.5259110000000  0.4852250000000 1.0
C      1  0.5283960000000  0.5183010000000  0.4855980000000 1.0
C      1  0.4987890000000  0.4808600000000  0.5319670000000 1.0
C      1  0.4703020000000  0.4771630000000  0.4882910000000 1.0
C      1  0.5242910000000  0.4704170000000  0.4879120000000 1.0
C      1  0.5047080000000  0.5241270000000  0.4684190000000 1.0
C      1  0.4773790000000  0.5308840000000  0.5149800000000 1.0
C      1  0.5282850000000  0.5204510000000  0.5149310000000 1.0
C      1  0.4980240000000  0.4753800000000  0.4738950000000 1.0
C      1  0.4733310000000  0.4830000000000  0.5173940000000 1.0
C      1  0.5249110000000  0.4718620000000  0.5200500000000 1.0
C      1  0.5085700000000  0.5472110000000  0.4505570000000 1.0
C      1  0.5152120000000  0.5760590000000  0.5600840000000 1.0
C      1  0.4644500000000  0.5575510000000  0.5127240000000 1.0
C      1  0.5092660000000  0.4383990000000  0.4599780000000 1.0
C      1  0.5351790000000  0.4469890000000  0.5322630000000 1.0
C      1  0.4377580000000  0.4335690000000  0.4773780000000 1.0
C      1  0.5103350000000  0.5543290000000  0.5465800000000 1.0
C      1  0.5115230000000  0.5677110000000  0.4347640000000 1.0
C      1  0.4606950000000  0.5628890000000  0.4879890000000 1.0
C      1  0.5444390000000  0.4252640000000  0.5432460000000 1.0
C      1  0.5288080000000  0.4437460000000  0.4755970000000 1.0
C      1  0.4529070000000  0.4540740000000  0.4827110000000 1.0
C      1  0.4603940000000  0.5080210000000  0.5283890000000 1.0
C      1  0.4599290000000  0.5040180000000  0.4747510000000 1.0
C      1  0.5445150000000  0.4965900000000  0.5242620000000 1.0
C      1  0.5443920000000  0.4932810000000  0.4799020000000 1.0
C      1  0.4981750000000  0.4972650000000  0.4526740000000 1.0
C      1  0.4987480000000  0.5047270000000  0.5506810000000 1.0
C      1  0.4699460000000  0.5085230000000  0.5562530000000 1.0
C      1  0.4693210000000  0.5006380000000  0.4468560000000 1.0
C      1  0.5637450000000  0.4927900000000  0.5021090000000 1.0
END
