TITL C-3623284-6838-1327 1927.80611442195 125000 -967.955822738717 0 0 155 (C1) n - 1
REM
REM in /home/nfs/bkarasulu/CARBON/AIRSS/Generating-Clusters/LCBOP/Higher-Symm/SD-CG/FIRE-CG
REM
REM
REM
REM
REM
REM ./C.cell (b20cbc046b6831c77cfcea5457e17084)
REM AIRSS Version 0.9.1 bugfix July 2018 build 013d7b7c2542+ Fri, 06 Jul 2018 19:26:36 +0100
REM compiler GCC version 9.2.1 20190827 (Red Hat 9.2.1-1)
REM options -cpp -mtune=generic -march=x86-64 -g -O0 -fpre-include=/usr/include/finclude/math-vector-fortran.h
REM seed 977488536 1758568324 -1038917121 1163755501 -2010643431 1046414357 706614696 -107504010 2120840172 -613619235 -231828758 615757516 325121621 -1408752708 199821017 760234182 -980887780 -1200433671 -1709083475 1771480003 454886580 -1277570747 683154704 1714836090 266412337 1296179967 1786562904 -6008160 -1291976135 427959474 1762353338 -2132243936 1950028528
REM
CELL 1.54180   50.00000   50.00000   50.00000   90.00000   90.00000   90.00000
LATT -1
SFAC C  
C      1  0.4178940000000  0.4150470000000  0.4885390000000 1.0
C      1  0.3789060000000  0.5116580000000  0.4842620000000 1.0
C      1  0.4348970000000  0.6011190000000  0.4871250000000 1.0
C      1  0.5359520000000  0.6131700000000  0.4874900000000 1.0
C      1  0.6139420000000  0.5404080000000  0.4857290000000 1.0
C      1  0.6034310000000  0.4385950000000  0.4857770000000 1.0
C      1  0.5140570000000  0.3808290000000  0.4865320000000 1.0
C      1  0.3972660000000  0.4912780000000  0.4382180000000 1.0
C      1  0.4299330000000  0.5758010000000  0.4394660000000 1.0
C      1  0.5135630000000  0.6016720000000  0.4396890000000 1.0
C      1  0.5882370000000  0.5512410000000  0.4394240000000 1.0
C      1  0.5952220000000  0.4639190000000  0.4390340000000 1.0
C      1  0.5298400000000  0.4024460000000  0.4399690000000 1.0
C      1  0.4425300000000  0.4150410000000  0.4404710000000 1.0
C      1  0.5150300000000  0.5765640000000  0.5175590000000 1.0
C      1  0.5729900000000  0.5404570000000  0.5127010000000 1.0
C      1  0.5745720000000  0.4672550000000  0.5175650000000 1.0
C      1  0.5250350000000  0.4209010000000  0.5142300000000 1.0
C      1  0.4543520000000  0.4384200000000  0.5172650000000 1.0
C      1  0.4173190000000  0.4971780000000  0.5142260000000 1.0
C      1  0.4425970000000  0.5599590000000  0.5124180000000 1.0
C      1  0.5637960000000  0.5758110000000  0.4799480000000 1.0
C      1  0.5972040000000  0.4964350000000  0.4825620000000 1.0
C      1  0.5600830000000  0.4212090000000  0.4802240000000 1.0
C      1  0.4750440000000  0.4070080000000  0.4829380000000 1.0
C      1  0.4093060000000  0.4608460000000  0.4810120000000 1.0
C      1  0.4106160000000  0.5456090000000  0.4789580000000 1.0
C      1  0.4816680000000  0.5948850000000  0.4832540000000 1.0
C      1  0.4670710000000  0.5091810000000  0.5133710000000 1.0
C      1  0.4831560000000  0.5303910000000  0.5141200000000 1.0
C      1  0.5096890000000  0.5316360000000  0.5145730000000 1.0
C      1  0.5271760000000  0.5116650000000  0.5143320000000 1.0
C      1  0.5218830000000  0.4857370000000  0.5223770000000 1.0
C      1  0.4984670000000  0.4729310000000  0.5146170000000 1.0
C      1  0.4740900000000  0.4834850000000  0.5128610000000 1.0
C      1  0.4938440000000  0.5787090000000  0.4411960000000 1.0
C      1  0.5576060000000  0.5542090000000  0.4393740000000 1.0
C      1  0.5770140000000  0.4880200000000  0.4415290000000 1.0
C      1  0.5392880000000  0.4316220000000  0.4400220000000 1.0
C      1  0.4704300000000  0.4269910000000  0.4411270000000 1.0
C      1  0.4238930000000  0.4765170000000  0.4397520000000 1.0
C      1  0.4335840000000  0.5452480000000  0.4385060000000 1.0
C      1  0.5027280000000  0.5743030000000  0.4898720000000 1.0
C      1  0.5608860000000  0.5471080000000  0.4874340000000 1.0
C      1  0.5726880000000  0.4805680000000  0.4905110000000 1.0
C      1  0.5332360000000  0.4309020000000  0.4885700000000 1.0
C      1  0.4658500000000  0.4347650000000  0.4899370000000 1.0
C      1  0.4244370000000  0.4858250000000  0.4880820000000 1.0
C      1  0.4389840000000  0.5483410000000  0.4866070000000 1.0
C      1  0.4150650000000  0.5683380000000  0.5200350000000 1.0
C      1  0.5014920000000  0.6014690000000  0.5260330000000 1.0
C      1  0.5869560000000  0.5661900000000  0.5196300000000 1.0
C      1  0.6024890000000  0.4747410000000  0.5241730000000 1.0
C      1  0.5464980000000  0.4007740000000  0.5202310000000 1.0
C      1  0.4544590000000  0.4099720000000  0.5259760000000 1.0
C      1  0.3939990000000  0.4796090000000  0.5214320000000 1.0
C      1  0.4673540000000  0.4953430000000  0.4622120000000 1.0
C      1  0.4751870000000  0.5223190000000  0.4620470000000 1.0
C      1  0.5016850000000  0.5320930000000  0.4626940000000 1.0
C      1  0.5264010000000  0.5185000000000  0.4630700000000 1.0
C      1  0.5306060000000  0.4907470000000  0.4642910000000 1.0
C      1  0.5118200000000  0.4699230000000  0.4637520000000 1.0
C      1  0.4837690000000  0.4724620000000  0.4628150000000 1.0
C      1  0.5109350000000  0.4332780000000  0.5569940000000 1.0
C      1  0.4447120000000  0.4764470000000  0.5512830000000 1.0
C      1  0.4387620000000  0.5161110000000  0.5546770000000 1.0
C      1  0.4619090000000  0.5482530000000  0.5529930000000 1.0
C      1  0.5418680000000  0.5494870000000  0.5539200000000 1.0
C      1  0.5611010000000  0.5255680000000  0.5555480000000 1.0
C      1  0.5443470000000  0.4523050000000  0.5558250000000 1.0
C      1  0.4393430000000  0.4903550000000  0.4637450000000 1.0
C      1  0.4535330000000  0.5406730000000  0.4631500000000 1.0
C      1  0.5039220000000  0.5601640000000  0.4647470000000 1.0
C      1  0.5492550000000  0.5354580000000  0.4638790000000 1.0
C      1  0.5575640000000  0.4824760000000  0.4659430000000 1.0
C      1  0.5233810000000  0.4439180000000  0.4649210000000 1.0
C      1  0.4698680000000  0.4480510000000  0.4647820000000 1.0
C      1  0.5044340000000  0.4197600000000  0.5340090000000 1.0
C      1  0.4364660000000  0.4562100000000  0.5325640000000 1.0
C      1  0.4199850000000  0.5194180000000  0.5327430000000 1.0
C      1  0.4611760000000  0.5674940000000  0.5326170000000 1.0
C      1  0.5392700000000  0.5699040000000  0.5334570000000 1.0
C      1  0.5782050000000  0.5207810000000  0.5331510000000 1.0
C      1  0.5645720000000  0.4447970000000  0.5348070000000 1.0
C      1  0.4909860000000  0.5609200000000  0.4173710000000 1.0
C      1  0.5418660000000  0.5448010000000  0.4158320000000 1.0
C      1  0.5601410000000  0.4948540000000  0.4179470000000 1.0
C      1  0.5333010000000  0.4489290000000  0.4164840000000 1.0
C      1  0.4804700000000  0.4418290000000  0.4172410000000 1.0
C      1  0.4419660000000  0.4783360000000  0.4161030000000 1.0
C      1  0.4463860000000  0.5319010000000  0.4150430000000 1.0
C      1  0.5352470000000  0.6038590000000  0.4577930000000 1.0
C      1  0.6035820000000  0.5353470000000  0.4574250000000 1.0
C      1  0.5932730000000  0.4418840000000  0.4566740000000 1.0
C      1  0.5109640000000  0.3911750000000  0.4579950000000 1.0
C      1  0.4224250000000  0.4227170000000  0.4589200000000 1.0
C      1  0.3895670000000  0.5125020000000  0.4554060000000 1.0
C      1  0.4420440000000  0.5934980000000  0.4583050000000 1.0
C      1  0.5128920000000  0.4700990000000  0.6177020000000 1.0
C      1  0.4846970000000  0.4723450000000  0.6132020000000 1.0
C      1  0.4659730000000  0.4936280000000  0.6168460000000 1.0
C      1  0.4727190000000  0.5214620000000  0.6172250000000 1.0
C      1  0.4991670000000  0.5316160000000  0.6131600000000 1.0
C      1  0.5248760000000  0.5196640000000  0.6166310000000 1.0
C      1  0.5313260000000  0.4918820000000  0.6159230000000 1.0
C      1  0.4326320000000  0.3992270000000  0.5084970000000 1.0
C      1  0.3736290000000  0.4899060000000  0.5029850000000 1.0
C      1  0.4126700000000  0.5925510000000  0.5039970000000 1.0
C      1  0.5157440000000  0.6209230000000  0.5078510000000 1.0
C      1  0.6105180000000  0.5638000000000  0.5027300000000 1.0
C      1  0.6168790000000  0.4564360000000  0.5052060000000 1.0
C      1  0.5377550000000  0.3787110000000  0.5033000000000 1.0
C      1  0.5672270000000  0.4287500000000  0.4532090000000 1.0
C      1  0.4852970000000  0.4044680000000  0.4557740000000 1.0
C      1  0.4150950000000  0.4507360000000  0.4544470000000 1.0
C      1  0.4071930000000  0.5356630000000  0.4518370000000 1.0
C      1  0.4709720000000  0.5926200000000  0.4562430000000 1.0
C      1  0.5542350000000  0.5817930000000  0.4532700000000 1.0
C      1  0.5961370000000  0.5073970000000  0.4556360000000 1.0
C      1  0.4725250000000  0.5492070000000  0.5784470000000 1.0
C      1  0.5267860000000  0.5500990000000  0.5787660000000 1.0
C      1  0.5581810000000  0.5122800000000  0.5814110000000 1.0
C      1  0.5465700000000  0.4588350000000  0.5849890000000 1.0
C      1  0.5011210000000  0.4416830000000  0.5811990000000 1.0
C      1  0.4540990000000  0.4701870000000  0.5769610000000 1.0
C      1  0.4386390000000  0.5153170000000  0.5831000000000 1.0
C      1  0.4025000000000  0.5419490000000  0.5235560000000 1.0
C      1  0.4722970000000  0.5945330000000  0.5272980000000 1.0
C      1  0.5636790000000  0.5838110000000  0.5237150000000 1.0
C      1  0.6021970000000  0.5046160000000  0.5263840000000 1.0
C      1  0.5699490000000  0.4182860000000  0.5237320000000 1.0
C      1  0.4828120000000  0.4014320000000  0.5267300000000 1.0
C      1  0.4078700000000  0.4538120000000  0.5248460000000 1.0
C      1  0.4893680000000  0.3895370000000  0.5009440000000 1.0
C      1  0.4058290000000  0.4394300000000  0.5000530000000 1.0
C      1  0.3908850000000  0.5353730000000  0.4974140000000 1.0
C      1  0.4610360000000  0.6034540000000  0.5015770000000 1.0
C      1  0.5579950000000  0.5969300000000  0.4987630000000 1.0
C      1  0.6115470000000  0.5143090000000  0.5002070000000 1.0
C      1  0.5828330000000  0.4210850000000  0.4980580000000 1.0
C      1  0.4947570000000  0.5333610000000  0.4089780000000 1.0
C      1  0.5223710000000  0.5244840000000  0.4087970000000 1.0
C      1  0.5325400000000  0.4973280000000  0.4095030000000 1.0
C      1  0.5178540000000  0.4723380000000  0.4091190000000 1.0
C      1  0.4891680000000  0.4683320000000  0.4091040000000 1.0
C      1  0.4681330000000  0.4883190000000  0.4085880000000 1.0
C      1  0.4705610000000  0.5173060000000  0.4082570000000 1.0
C      1  0.4556610000000  0.5346920000000  0.5968340000000 1.0
C      1  0.4996190000000  0.5490670000000  0.5883970000000 1.0
C      1  0.5423060000000  0.5323810000000  0.5969910000000 1.0
C      1  0.5517410000000  0.4865410000000  0.5939450000000 1.0
C      1  0.5227240000000  0.4494150000000  0.5992400000000 1.0
C      1  0.4773850000000  0.4567820000000  0.5881580000000 1.0
C      1  0.4452500000000  0.4901450000000  0.5958770000000 1.0
C      1  0.5336940000000  0.4771480000000  0.5452580000000 1.0
END
