TITL C-3623287-7182-1891 677.300278646636 125000 -288.822672680641 0 0 48 (C3) n - 1
REM
REM in /home/nfs/bkarasulu/CARBON/AIRSS/Generating-Clusters/LCBOP/Higher-Symm/SD-CG/FIRE-CG
REM
REM
REM
REM
REM
REM ./C.cell (b20cbc046b6831c77cfcea5457e17084)
REM AIRSS Version 0.9.1 bugfix July 2018 build 013d7b7c2542+ Fri, 06 Jul 2018 19:26:36 +0100
REM compiler GCC version 9.2.1 20190827 (Red Hat 9.2.1-1)
REM options -cpp -mtune=generic -march=x86-64 -g -O0 -fpre-include=/usr/include/finclude/math-vector-fortran.h
REM seed -1628715153 -1199005060 1566428167 -1815365188 722085695 -1256897731 1784256520 1384477305 -499198978 2076258088 993862453 -1747170698 -1058451123 1551367350 251990389 1803708279 -251718000 -1897880099 797219226 -233870279 -1965532718 -309186071 -25695846 522940405 1577900547 2035413967 816415416 -1379398348 1752924586 21682208 -717399768 873766480 -1071349117
REM
CELL 1.54180   50.00000   50.00000   50.00000   90.00000   90.00000   90.00000
LATT -1
SFAC C  
C      1  0.4862900000000  0.5160110000000  0.4587500000000 1.0
C      1  0.4925800000000  0.4810130000000  0.4591010000000 1.0
C      1  0.5206710000000  0.5027940000000  0.4588660000000 1.0
C      1  0.5151250000000  0.5236900000000  0.5211300000000 1.0
C      1  0.4719350000000  0.5012320000000  0.5213270000000 1.0
C      1  0.5130130000000  0.4750570000000  0.5212760000000 1.0
C      1  0.5741270000000  0.5494770000000  0.5178730000000 1.0
C      1  0.4200940000000  0.5395150000000  0.5184930000000 1.0
C      1  0.5055650000000  0.4110170000000  0.5178630000000 1.0
C      1  0.5117630000000  0.5613970000000  0.4896180000000 1.0
C      1  0.4407230000000  0.4795080000000  0.4900230000000 1.0
C      1  0.5476060000000  0.4588410000000  0.4901720000000 1.0
C      1  0.5553730000000  0.5419780000000  0.4981850000000 1.0
C      1  0.4357810000000  0.5269680000000  0.4986970000000 1.0
C      1  0.5086910000000  0.4310760000000  0.4982850000000 1.0
C      1  0.4467070000000  0.5425590000000  0.4778130000000 1.0
C      1  0.4897770000000  0.4330250000000  0.4773790000000 1.0
C      1  0.5633950000000  0.5245470000000  0.4774380000000 1.0
C      1  0.5239810000000  0.4543360000000  0.5046490000000 1.0
C      1  0.5275280000000  0.5434450000000  0.5043440000000 1.0
C      1  0.4484580000000  0.5021070000000  0.5047680000000 1.0
C      1  0.4796080000000  0.4592200000000  0.4689200000000 1.0
C      1  0.5459270000000  0.5025700000000  0.4689120000000 1.0
C      1  0.4743250000000  0.5381930000000  0.4689060000000 1.0
C      1  0.5819580000000  0.5364000000000  0.5400860000000 1.0
C      1  0.4277100000000  0.5528650000000  0.5406180000000 1.0
C      1  0.4902460000000  0.4107780000000  0.5400210000000 1.0
C      1  0.5607590000000  0.4781840000000  0.4750920000000 1.0
C      1  0.4882890000000  0.5631460000000  0.4747760000000 1.0
C      1  0.4510160000000  0.4585700000000  0.4748490000000 1.0
C      1  0.4165460000000  0.4216960000000  0.4732280000000 1.0
C      1  0.6099600000000  0.4668470000000  0.4740740000000 1.0
C      1  0.4738250000000  0.6115250000000  0.4737260000000 1.0
C      1  0.4755910000000  0.4307650000000  0.5505020000000 1.0
C      1  0.5720730000000  0.5136550000000  0.5505300000000 1.0
C      1  0.4524480000000  0.5556570000000  0.5508330000000 1.0
C      1  0.5278170000000  0.4986550000000  0.5281960000000 1.0
C      1  0.4873380000000  0.5247470000000  0.5282330000000 1.0
C      1  0.4849700000000  0.4766200000000  0.5282950000000 1.0
C      1  0.5899920000000  0.5130180000000  0.4758990000000 1.0
C      1  0.4435740000000  0.5713700000000  0.4762320000000 1.0
C      1  0.4664850000000  0.4158050000000  0.4755030000000 1.0
C      1  0.4419200000000  0.4310220000000  0.4744320000000 1.0
C      1  0.5891550000000  0.4841280000000  0.4749600000000 1.0
C      1  0.4690890000000  0.5849050000000  0.4748280000000 1.0
C      1  0.5508880000000  0.4985630000000  0.5440510000000 1.0
C      1  0.4760320000000  0.5448110000000  0.5441470000000 1.0
C      1  0.4732790000000  0.4566910000000  0.5441010000000 1.0
END
