TITL C-3623283-6828-1945 -4426.09850198742 125000 -1214.76803167283 0 0 194 (C1) n - 1
REM
REM in /home/nfs/bkarasulu/CARBON/AIRSS/Generating-Clusters/LCBOP/Higher-Symm/SD-CG/FIRE-CG
REM
REM
REM
REM
REM
REM ./C.cell (b20cbc046b6831c77cfcea5457e17084)
REM AIRSS Version 0.9.1 bugfix July 2018 build 013d7b7c2542+ Fri, 06 Jul 2018 19:26:36 +0100
REM compiler GCC version 9.2.1 20190827 (Red Hat 9.2.1-1)
REM options -cpp -mtune=generic -march=x86-64 -g -O0 -fpre-include=/usr/include/finclude/math-vector-fortran.h
REM seed 902274935 -471586410 -978725200 738246642 1062935641 1137721164 1606521913 241026941 204405698 -1061597290 -1574460573 -1089724711 1461395855 1626477685 -1732464934 1170313085 683190481 -1014337406 661661538 -830269154 183220943 -453681887 -1574352809 1037386637 -1878352034 -1349226764 -1505509180 1792829374 697018775 579664343 1564195420 935729022 -2048736372
REM
CELL 1.54180   50.00000   50.00000   50.00000   90.00000   90.00000   90.00000
LATT -1
SFAC C  
C      1  0.4624700000000  0.5459180000000  0.4055010000000 1.0
C      1  0.5425160000000  0.5376950000000  0.4022370000000 1.0
C      1  0.5355360000000  0.4569340000000  0.4022720000000 1.0
C      1  0.4567490000000  0.4605000000000  0.4041560000000 1.0
C      1  0.4616060000000  0.4584520000000  0.5984280000000 1.0
C      1  0.5427730000000  0.4630840000000  0.5983290000000 1.0
C      1  0.5389810000000  0.5443040000000  0.5969190000000 1.0
C      1  0.4538790000000  0.5360510000000  0.5957780000000 1.0
C      1  0.6204250000000  0.5840910000000  0.6135810000000 1.0
C      1  0.5906440000000  0.3861020000000  0.6159020000000 1.0
C      1  0.3864850000000  0.4096940000000  0.6202780000000 1.0
C      1  0.3996350000000  0.6061710000000  0.6214500000000 1.0
C      1  0.6122390000000  0.4089840000000  0.3838600000000 1.0
C      1  0.5916880000000  0.6123900000000  0.3799130000000 1.0
C      1  0.3917620000000  0.5999540000000  0.3809650000000 1.0
C      1  0.4173270000000  0.3788590000000  0.3876510000000 1.0
C      1  0.6236630000000  0.3848430000000  0.3854250000000 1.0
C      1  0.3945460000000  0.3649310000000  0.3893250000000 1.0
C      1  0.3819820000000  0.6248260000000  0.3821650000000 1.0
C      1  0.6159780000000  0.6235700000000  0.3807650000000 1.0
C      1  0.6343510000000  0.6068550000000  0.6116730000000 1.0
C      1  0.3747720000000  0.6159790000000  0.6202840000000 1.0
C      1  0.3753230000000  0.3853890000000  0.6196410000000 1.0
C      1  0.6148240000000  0.3747530000000  0.6143940000000 1.0
C      1  0.5212920000000  0.5718260000000  0.5515290000000 1.0
C      1  0.5687130000000  0.4818500000000  0.5515130000000 1.0
C      1  0.4803920000000  0.4319210000000  0.5528990000000 1.0
C      1  0.4319220000000  0.5210690000000  0.5471050000000 1.0
C      1  0.5174250000000  0.4314400000000  0.4494680000000 1.0
C      1  0.5682910000000  0.5194740000000  0.4482760000000 1.0
C      1  0.4782830000000  0.5681720000000  0.4538580000000 1.0
C      1  0.4283570000000  0.4785810000000  0.4490070000000 1.0
C      1  0.3568560000000  0.5597280000000  0.6022970000000 1.0
C      1  0.5803280000000  0.6354350000000  0.6029960000000 1.0
C      1  0.6373390000000  0.4314410000000  0.6049130000000 1.0
C      1  0.4318530000000  0.3632270000000  0.6085690000000 1.0
C      1  0.3657790000000  0.4190110000000  0.3969830000000 1.0
C      1  0.5671770000000  0.3623070000000  0.3960050000000 1.0
C      1  0.6379610000000  0.5672300000000  0.3930870000000 1.0
C      1  0.4385770000000  0.6428470000000  0.3989140000000 1.0
C      1  0.4101610000000  0.4247250000000  0.6205100000000 1.0
C      1  0.4160740000000  0.5834780000000  0.6203600000000 1.0
C      1  0.5951680000000  0.5720540000000  0.6154870000000 1.0
C      1  0.5758510000000  0.4098870000000  0.6172590000000 1.0
C      1  0.4144660000000  0.5835120000000  0.3817110000000 1.0
C      1  0.4293680000000  0.4041100000000  0.3856870000000 1.0
C      1  0.5884000000000  0.4237100000000  0.3827300000000 1.0
C      1  0.5766660000000  0.5887070000000  0.3798120000000 1.0
C      1  0.4330510000000  0.4454540000000  0.4147590000000 1.0
C      1  0.4500800000000  0.5711920000000  0.4155240000000 1.0
C      1  0.5679130000000  0.5504860000000  0.4119190000000 1.0
C      1  0.5489440000000  0.4324100000000  0.4132780000000 1.0
C      1  0.4286070000000  0.5485650000000  0.5858890000000 1.0
C      1  0.4488890000000  0.4329750000000  0.5888910000000 1.0
C      1  0.5673570000000  0.4498150000000  0.5872790000000 1.0
C      1  0.5541080000000  0.5678530000000  0.5860860000000 1.0
C      1  0.3899450000000  0.4304640000000  0.3975480000000 1.0
C      1  0.4453780000000  0.6169840000000  0.3994610000000 1.0
C      1  0.6125850000000  0.5588550000000  0.3942370000000 1.0
C      1  0.5584550000000  0.3875880000000  0.3965210000000 1.0
C      1  0.3827220000000  0.5529350000000  0.6017770000000 1.0
C      1  0.4402450000000  0.3885840000000  0.6071450000000 1.0
C      1  0.6120450000000  0.4401190000000  0.6042920000000 1.0
C      1  0.5689030000000  0.6112510000000  0.6027170000000 1.0
C      1  0.6499960000000  0.4078670000000  0.6073660000000 1.0
C      1  0.4085120000000  0.3503960000000  0.6121100000000 1.0
C      1  0.3424160000000  0.5818450000000  0.6072240000000 1.0
C      1  0.6051960000000  0.6454250000000  0.6049390000000 1.0
C      1  0.6508470000000  0.5905160000000  0.3893840000000 1.0
C      1  0.4163670000000  0.6572600000000  0.3943370000000 1.0
C      1  0.3558450000000  0.3941140000000  0.3951270000000 1.0
C      1  0.5907380000000  0.3496750000000  0.3933050000000 1.0
C      1  0.4150240000000  0.5649290000000  0.5382790000000 1.0
C      1  0.5662850000000  0.5815320000000  0.5371420000000 1.0
C      1  0.5806170000000  0.4370460000000  0.5383870000000 1.0
C      1  0.4362400000000  0.4175180000000  0.5405630000000 1.0
C      1  0.4187130000000  0.4335960000000  0.4635630000000 1.0
C      1  0.5622370000000  0.4191590000000  0.4620770000000 1.0
C      1  0.5828730000000  0.5635930000000  0.4603220000000 1.0
C      1  0.4343640000000  0.5846890000000  0.4633190000000 1.0
C      1  0.5166950000000  0.4705580000000  0.4187490000000 1.0
C      1  0.4687010000000  0.4805450000000  0.4205750000000 1.0
C      1  0.4786380000000  0.5303550000000  0.4231420000000 1.0
C      1  0.5282180000000  0.5205840000000  0.4201200000000 1.0
C      1  0.5191340000000  0.5319510000000  0.5804800000000 1.0
C      1  0.4696320000000  0.5204030000000  0.5778760000000 1.0
C      1  0.4791110000000  0.4723120000000  0.5806620000000 1.0
C      1  0.5293520000000  0.4823080000000  0.5820950000000 1.0
C      1  0.5023170000000  0.6004360000000  0.5150950000000 1.0
C      1  0.5950070000000  0.4991430000000  0.5125280000000 1.0
C      1  0.4998860000000  0.4051420000000  0.5153510000000 1.0
C      1  0.4018660000000  0.5005310000000  0.5122580000000 1.0
C      1  0.5003430000000  0.4049380000000  0.4885260000000 1.0
C      1  0.5946930000000  0.4994630000000  0.4857140000000 1.0
C      1  0.4989240000000  0.5981260000000  0.4885530000000 1.0
C      1  0.3995260000000  0.4969050000000  0.4857310000000 1.0
C      1  0.4853290000000  0.5277110000000  0.5116380000000 1.0
C      1  0.5135360000000  0.5168630000000  0.5156260000000 1.0
C      1  0.5088710000000  0.4879510000000  0.5232910000000 1.0
C      1  0.4844890000000  0.4777940000000  0.5132170000000 1.0
C      1  0.4831440000000  0.4867260000000  0.4853260000000 1.0
C      1  0.5119740000000  0.4914950000000  0.4774830000000 1.0
C      1  0.5222790000000  0.5158190000000  0.4876250000000 1.0
C      1  0.4722840000000  0.5148350000000  0.4895430000000 1.0
C      1  0.4226040000000  0.4514900000000  0.4416080000000 1.0
C      1  0.4539010000000  0.5788290000000  0.4435200000000 1.0
C      1  0.5775000000000  0.5450570000000  0.4392300000000 1.0
C      1  0.5436180000000  0.4235360000000  0.4408870000000 1.0
C      1  0.4210700000000  0.5451860000000  0.5578110000000 1.0
C      1  0.4546130000000  0.4230260000000  0.5617660000000 1.0
C      1  0.5764090000000  0.4554710000000  0.5597840000000 1.0
C      1  0.5482710000000  0.5778540000000  0.5590310000000 1.0
C      1  0.5255500000000  0.4704410000000  0.5364120000000 1.0
C      1  0.4658730000000  0.4715990000000  0.5325310000000 1.0
C      1  0.4730430000000  0.5401930000000  0.5331570000000 1.0
C      1  0.5319670000000  0.5293960000000  0.5338550000000 1.0
C      1  0.5284610000000  0.5343940000000  0.4682330000000 1.0
C      1  0.4594970000000  0.5270160000000  0.4681450000000 1.0
C      1  0.4705240000000  0.4682460000000  0.4672620000000 1.0
C      1  0.5292080000000  0.4746330000000  0.4642300000000 1.0
C      1  0.5748400000000  0.5784520000000  0.5116110000000 1.0
C      1  0.5774920000000  0.4280060000000  0.5130570000000 1.0
C      1  0.4273100000000  0.4197810000000  0.5150670000000 1.0
C      1  0.4177170000000  0.5753540000000  0.5135130000000 1.0
C      1  0.5714560000000  0.4221240000000  0.4873620000000 1.0
C      1  0.5803920000000  0.5726280000000  0.4857620000000 1.0
C      1  0.4241050000000  0.5818550000000  0.4881370000000 1.0
C      1  0.4215870000000  0.4251630000000  0.4891600000000 1.0
C      1  0.4127640000000  0.4475330000000  0.6367050000000 1.0
C      1  0.4380450000000  0.5805640000000  0.6376260000000 1.0
C      1  0.5907230000000  0.5501280000000  0.6324800000000 1.0
C      1  0.5533430000000  0.4121170000000  0.6339250000000 1.0
C      1  0.4170160000000  0.5614120000000  0.3645540000000 1.0
C      1  0.4515570000000  0.4084150000000  0.3690010000000 1.0
C      1  0.5858490000000  0.4460340000000  0.3658640000000 1.0
C      1  0.5541300000000  0.5858370000000  0.3632850000000 1.0
C      1  0.5666580000000  0.4645860000000  0.3631890000000 1.0
C      1  0.4680340000000  0.4293640000000  0.3659480000000 1.0
C      1  0.4349010000000  0.5414560000000  0.3633280000000 1.0
C      1  0.5351280000000  0.5669680000000  0.3617140000000 1.0
C      1  0.5697760000000  0.5336580000000  0.6355840000000 1.0
C      1  0.4579980000000  0.5626620000000  0.6386030000000 1.0
C      1  0.4316330000000  0.4665350000000  0.6382990000000 1.0
C      1  0.5347340000000  0.4312320000000  0.6367410000000 1.0
C      1  0.5852510000000  0.5657590000000  0.3949950000000 1.0
C      1  0.5650110000000  0.4150040000000  0.3971510000000 1.0
C      1  0.4178930000000  0.4269700000000  0.3989750000000 1.0
C      1  0.4368970000000  0.5901070000000  0.3985730000000 1.0
C      1  0.5846500000000  0.4335230000000  0.6033040000000 1.0
C      1  0.5724300000000  0.5832860000000  0.6017890000000 1.0
C      1  0.4095940000000  0.5613990000000  0.6029970000000 1.0
C      1  0.4333510000000  0.4158990000000  0.6058410000000 1.0
C      1  0.4999050000000  0.5834690000000  0.5373400000000 1.0
C      1  0.5774940000000  0.5023470000000  0.5341930000000 1.0
C      1  0.5018070000000  0.4234880000000  0.5364980000000 1.0
C      1  0.4217930000000  0.4996180000000  0.5319920000000 1.0
C      1  0.4971310000000  0.4226320000000  0.4670050000000 1.0
C      1  0.5764120000000  0.4978320000000  0.4645010000000 1.0
C      1  0.4998960000000  0.5783010000000  0.4687300000000 1.0
C      1  0.4165050000000  0.4996630000000  0.4635180000000 1.0
C      1  0.3502450000000  0.6064710000000  0.6147870000000 1.0
C      1  0.6287990000000  0.6329480000000  0.6084260000000 1.0
C      1  0.6401710000000  0.3830950000000  0.6112070000000 1.0
C      1  0.3837950000000  0.3600620000000  0.6166460000000 1.0
C      1  0.3683980000000  0.3704900000000  0.3920860000000 1.0
C      1  0.6154250000000  0.3595120000000  0.3889850000000 1.0
C      1  0.6412550000000  0.6151550000000  0.3843020000000 1.0
C      1  0.3915960000000  0.6493870000000  0.3873150000000 1.0
C      1  0.5594800000000  0.5241630000000  0.5327590000000 1.0
C      1  0.5226790000000  0.4425700000000  0.5346490000000 1.0
C      1  0.4387800000000  0.4772760000000  0.5313520000000 1.0
C      1  0.4764540000000  0.5676060000000  0.5378370000000 1.0
C      1  0.5571200000000  0.4771230000000  0.4659970000000 1.0
C      1  0.5223360000000  0.5614130000000  0.4691160000000 1.0
C      1  0.4321490000000  0.5232540000000  0.4634310000000 1.0
C      1  0.4754120000000  0.4407030000000  0.4687230000000 1.0
C      1  0.4529840000000  0.4700620000000  0.6224790000000 1.0
C      1  0.4636450000000  0.5431300000000  0.6211350000000 1.0
C      1  0.5473580000000  0.5324240000000  0.6209390000000 1.0
C      1  0.5313520000000  0.4534140000000  0.6220720000000 1.0
C      1  0.4548250000000  0.5359440000000  0.3803920000000 1.0
C      1  0.4689860000000  0.4519270000000  0.3803890000000 1.0
C      1  0.5447440000000  0.4680950000000  0.3782240000000 1.0
C      1  0.5312970000000  0.5459130000000  0.3778560000000 1.0
C      1  0.4779630000000  0.4606830000000  0.5553780000000 1.0
C      1  0.4604060000000  0.5229970000000  0.5514590000000 1.0
C      1  0.5197520000000  0.5431750000000  0.5548450000000 1.0
C      1  0.5405320000000  0.4822520000000  0.5565800000000 1.0
C      1  0.4763890000000  0.5396950000000  0.4496110000000 1.0
C      1  0.4570530000000  0.4802720000000  0.4459800000000 1.0
C      1  0.5169950000000  0.4596300000000  0.4442910000000 1.0
C      1  0.5395910000000  0.5221610000000  0.4455610000000 1.0
C      1  0.5001820000000  0.5020560000000  0.5833370000000 1.0
C      1  0.4982520000000  0.5019350000000  0.4177290000000 1.0
END
