TITL C-3623287-7182-330 -197.534147379126 125000 -1179.68051073989 0 0 194 (C1) n - 1
REM
REM in /home/nfs/bkarasulu/CARBON/AIRSS/Generating-Clusters/LCBOP/Higher-Symm/SD-CG/FIRE-CG
REM
REM
REM
REM
REM
REM ./C.cell (b20cbc046b6831c77cfcea5457e17084)
REM AIRSS Version 0.9.1 bugfix July 2018 build 013d7b7c2542+ Fri, 06 Jul 2018 19:26:36 +0100
REM compiler GCC version 9.2.1 20190827 (Red Hat 9.2.1-1)
REM options -cpp -mtune=generic -march=x86-64 -g -O0 -fpre-include=/usr/include/finclude/math-vector-fortran.h
REM seed 1952142874 477603488 1704525609 -1684399331 -809788403 -1611765844 -860805730 920299955 1797089226 1624121008 20858159 871156265 -2109457707 -481103226 -1050993816 1163592822 193636514 1950010628 383701256 -272752215 1047331463 -1311302265 2083859924 -1146232857 -1755057299 201868948 -1427262448 -335749015 701983840 1737806511 -1810774784 -662738545 -802638357
REM
CELL 1.54180   50.00000   50.00000   50.00000   90.00000   90.00000   90.00000
LATT -1
SFAC C  
C      1  0.4446010000000  0.4975400000000  0.5872040000000 1.0
C      1  0.4447550000000  0.4123720000000  0.5263840000000 1.0
C      1  0.4476230000000  0.4479170000000  0.4199890000000 1.0
C      1  0.4457710000000  0.5530430000000  0.4261190000000 1.0
C      1  0.4432740000000  0.5933240000000  0.5294190000000 1.0
C      1  0.4355530000000  0.4347470000000  0.3483730000000 1.0
C      1  0.4298720000000  0.6152190000000  0.3859590000000 1.0
C      1  0.4350680000000  0.6469730000000  0.5814700000000 1.0
C      1  0.4503430000000  0.4599790000000  0.6554060000000 1.0
C      1  0.4277520000000  0.3390460000000  0.5192900000000 1.0
C      1  0.3951870000000  0.5556770000000  0.4891650000000 1.0
C      1  0.3822780000000  0.5318480000000  0.5606290000000 1.0
C      1  0.4022630000000  0.4738010000000  0.5380410000000 1.0
C      1  0.3879870000000  0.4365100000000  0.4656530000000 1.0
C      1  0.3982090000000  0.4977500000000  0.4482240000000 1.0
C      1  0.5423650000000  0.4221130000000  0.4057150000000 1.0
C      1  0.5412950000000  0.5658560000000  0.3973680000000 1.0
C      1  0.5404940000000  0.6186250000000  0.5305290000000 1.0
C      1  0.5397500000000  0.5086800000000  0.6140240000000 1.0
C      1  0.5366320000000  0.3820000000000  0.5409040000000 1.0
C      1  0.5134530000000  0.4639850000000  0.5154370000000 1.0
C      1  0.5136680000000  0.4755950000000  0.4685290000000 1.0
C      1  0.5117080000000  0.5227370000000  0.4667490000000 1.0
C      1  0.5093670000000  0.5361420000000  0.5134940000000 1.0
C      1  0.5329080000000  0.4950010000000  0.5501970000000 1.0
C      1  0.4259290000000  0.5195860000000  0.5778920000000 1.0
C      1  0.4311310000000  0.4342710000000  0.5443020000000 1.0
C      1  0.4307080000000  0.4349710000000  0.4416780000000 1.0
C      1  0.4315260000000  0.5258180000000  0.4238770000000 1.0
C      1  0.4277080000000  0.5895210000000  0.5027070000000 1.0
C      1  0.5832880000000  0.5766630000000  0.4634390000000 1.0
C      1  0.5833950000000  0.5593180000000  0.5612080000000 1.0
C      1  0.5786530000000  0.4596300000000  0.5730710000000 1.0
C      1  0.5828260000000  0.4149430000000  0.4859790000000 1.0
C      1  0.5841660000000  0.4880750000000  0.4157690000000 1.0
C      1  0.4242470000000  0.4561240000000  0.3597630000000 1.0
C      1  0.4185240000000  0.6125240000000  0.4100070000000 1.0
C      1  0.4237520000000  0.6233110000000  0.5865640000000 1.0
C      1  0.4343480000000  0.4521810000000  0.6354400000000 1.0
C      1  0.4207150000000  0.3554730000000  0.4994140000000 1.0
C      1  0.4709410000000  0.5875470000000  0.3766310000000 1.0
C      1  0.4720870000000  0.6476790000000  0.5473840000000 1.0
C      1  0.4846610000000  0.4939420000000  0.6423300000000 1.0
C      1  0.4652730000000  0.3554510000000  0.5480770000000 1.0
C      1  0.4742760000000  0.4134760000000  0.3726200000000 1.0
C      1  0.5738380000000  0.5651690000000  0.4377210000000 1.0
C      1  0.5743730000000  0.5812240000000  0.5430630000000 1.0
C      1  0.5717400000000  0.4868220000000  0.5821640000000 1.0
C      1  0.5719060000000  0.4089610000000  0.5133390000000 1.0
C      1  0.5740040000000  0.4602810000000  0.4187440000000 1.0
C      1  0.5366260000000  0.5235710000000  0.5123420000000 1.0
C      1  0.5452090000000  0.4975620000000  0.5246490000000 1.0
C      1  0.5407000000000  0.4749980000000  0.5054730000000 1.0
C      1  0.5397020000000  0.4882360000000  0.4778320000000 1.0
C      1  0.5379030000000  0.5180260000000  0.4819810000000 1.0
C      1  0.4702190000000  0.4244290000000  0.5651130000000 1.0
C      1  0.4707190000000  0.4134530000000  0.4443300000000 1.0
C      1  0.4700260000000  0.5207510000000  0.4001020000000 1.0
C      1  0.4687180000000  0.6046180000000  0.4902260000000 1.0
C      1  0.4607120000000  0.5422470000000  0.5961420000000 1.0
C      1  0.4104230000000  0.4898250000000  0.4723720000000 1.0
C      1  0.4105100000000  0.5323130000000  0.4905780000000 1.0
C      1  0.3936850000000  0.5463860000000  0.5410650000000 1.0
C      1  0.4151050000000  0.4933940000000  0.5225730000000 1.0
C      1  0.3988380000000  0.4416390000000  0.4897090000000 1.0
C      1  0.6332140000000  0.4934520000000  0.5258850000000 1.0
C      1  0.6312040000000  0.4739590000000  0.5036670000000 1.0
C      1  0.6308570000000  0.4891840000000  0.4783770000000 1.0
C      1  0.6310880000000  0.5179720000000  0.4845160000000 1.0
C      1  0.6321280000000  0.5212430000000  0.5139130000000 1.0
C      1  0.4065740000000  0.4477840000000  0.5430520000000 1.0
C      1  0.4026310000000  0.4348750000000  0.4431000000000 1.0
C      1  0.4059380000000  0.5176500000000  0.4318760000000 1.0
C      1  0.4016630000000  0.5803370000000  0.4977620000000 1.0
C      1  0.3977940000000  0.5176460000000  0.5775170000000 1.0
C      1  0.4543650000000  0.6560520000000  0.5653930000000 1.0
C      1  0.4710330000000  0.4767930000000  0.6575180000000 1.0
C      1  0.4457710000000  0.3397080000000  0.5390240000000 1.0
C      1  0.4556330000000  0.4181230000000  0.3541940000000 1.0
C      1  0.4509860000000  0.6048480000000  0.3733110000000 1.0
C      1  0.5728460000000  0.4370300000000  0.5231780000000 1.0
C      1  0.5746880000000  0.4598790000000  0.4484480000000 1.0
C      1  0.5746500000000  0.5367050000000  0.4466360000000 1.0
C      1  0.5749280000000  0.5645660000000  0.5184670000000 1.0
C      1  0.5793660000000  0.5038410000000  0.5607090000000 1.0
C      1  0.5515850000000  0.4459430000000  0.5766050000000 1.0
C      1  0.5590640000000  0.4300820000000  0.4765260000000 1.0
C      1  0.5600420000000  0.5016180000000  0.4270440000000 1.0
C      1  0.5587870000000  0.5698160000000  0.4792900000000 1.0
C      1  0.5582280000000  0.5432980000000  0.5587830000000 1.0
C      1  0.5457300000000  0.3956320000000  0.5645530000000 1.0
C      1  0.5521640000000  0.4081870000000  0.4292370000000 1.0
C      1  0.5524090000000  0.5396430000000  0.3913650000000 1.0
C      1  0.5505420000000  0.6152990000000  0.5035020000000 1.0
C      1  0.5545920000000  0.5329040000000  0.6070210000000 1.0
C      1  0.6075000000000  0.5413870000000  0.5532680000000 1.0
C      1  0.6021960000000  0.4623570000000  0.5541120000000 1.0
C      1  0.6044880000000  0.4365870000000  0.4824840000000 1.0
C      1  0.6054740000000  0.4977230000000  0.4356960000000 1.0
C      1  0.6050910000000  0.5612060000000  0.4787760000000 1.0
C      1  0.5217880000000  0.5765160000000  0.5366240000000 1.0
C      1  0.5307920000000  0.4666160000000  0.5859610000000 1.0
C      1  0.5214910000000  0.4181180000000  0.5168380000000 1.0
C      1  0.5238130000000  0.4584310000000  0.4271110000000 1.0
C      1  0.5237140000000  0.5574040000000  0.4391720000000 1.0
C      1  0.4677770000000  0.4037600000000  0.5441590000000 1.0
C      1  0.4713080000000  0.4284140000000  0.4187760000000 1.0
C      1  0.4693340000000  0.5495330000000  0.4067180000000 1.0
C      1  0.4682120000000  0.6080490000000  0.5196000000000 1.0
C      1  0.4647040000000  0.5138500000000  0.6023030000000 1.0
C      1  0.4453270000000  0.5918310000000  0.4784040000000 1.0
C      1  0.4392340000000  0.5473230000000  0.5773890000000 1.0
C      1  0.4495130000000  0.4450900000000  0.5654860000000 1.0
C      1  0.4469550000000  0.4176570000000  0.4607600000000 1.0
C      1  0.4482250000000  0.5043990000000  0.4106550000000 1.0
C      1  0.4504620000000  0.4486040000000  0.5001890000000 1.0
C      1  0.4569410000000  0.4777990000000  0.4552610000000 1.0
C      1  0.4561710000000  0.5474460000000  0.4730930000000 1.0
C      1  0.4460920000000  0.5476650000000  0.5311220000000 1.0
C      1  0.4657160000000  0.4952150000000  0.5409340000000 1.0
C      1  0.4266760000000  0.3796280000000  0.4899060000000 1.0
C      1  0.4270860000000  0.4709560000000  0.3817490000000 1.0
C      1  0.4223370000000  0.5988600000000  0.4325720000000 1.0
C      1  0.4252510000000  0.5979870000000  0.5784440000000 1.0
C      1  0.4316890000000  0.4560240000000  0.6091840000000 1.0
C      1  0.4777670000000  0.5563790000000  0.4603880000000 1.0
C      1  0.4716310000000  0.5544660000000  0.5350970000000 1.0
C      1  0.4887910000000  0.4995170000000  0.5580360000000 1.0
C      1  0.4752530000000  0.4390550000000  0.5026670000000 1.0
C      1  0.4781090000000  0.4762630000000  0.4393670000000 1.0
C      1  0.4418960000000  0.4748840000000  0.4059930000000 1.0
C      1  0.4380850000000  0.5805350000000  0.4464280000000 1.0
C      1  0.4363330000000  0.5791890000000  0.5614310000000 1.0
C      1  0.4426770000000  0.4671500000000  0.5851160000000 1.0
C      1  0.4402760000000  0.4037240000000  0.4922160000000 1.0
C      1  0.5732320000000  0.4995800000000  0.5323270000000 1.0
C      1  0.5569850000000  0.4501720000000  0.5009000000000 1.0
C      1  0.5580530000000  0.4848010000000  0.4539840000000 1.0
C      1  0.5571320000000  0.5390540000000  0.4715850000000 1.0
C      1  0.5556290000000  0.5428080000000  0.5274200000000 1.0
C      1  0.5118690000000  0.4787120000000  0.5632930000000 1.0
C      1  0.5047340000000  0.4387010000000  0.4998720000000 1.0
C      1  0.5068650000000  0.4817190000000  0.4394570000000 1.0
C      1  0.5061810000000  0.5523420000000  0.4649310000000 1.0
C      1  0.5001800000000  0.5478100000000  0.5395770000000 1.0
C      1  0.6004120000000  0.5242990000000  0.4470390000000 1.0
C      1  0.6008550000000  0.5593330000000  0.5075650000000 1.0
C      1  0.6064460000000  0.5131550000000  0.5616830000000 1.0
C      1  0.5985950000000  0.4475760000000  0.5296220000000 1.0
C      1  0.6001590000000  0.4556560000000  0.4605490000000 1.0
C      1  0.5222600000000  0.5299870000000  0.4248800000000 1.0
C      1  0.5209980000000  0.5796010000000  0.5067400000000 1.0
C      1  0.5150280000000  0.5328090000000  0.5842110000000 1.0
C      1  0.5200580000000  0.4302170000000  0.5446640000000 1.0
C      1  0.5216530000000  0.4370730000000  0.4490100000000 1.0
C      1  0.4392230000000  0.5311890000000  0.4872460000000 1.0
C      1  0.4192980000000  0.5478260000000  0.5329550000000 1.0
C      1  0.4445790000000  0.4970730000000  0.5217240000000 1.0
C      1  0.4237540000000  0.4477070000000  0.4976900000000 1.0
C      1  0.4392790000000  0.4877200000000  0.4737910000000 1.0
C      1  0.5092570000000  0.3738790000000  0.5416980000000 1.0
C      1  0.5158680000000  0.4161970000000  0.3968790000000 1.0
C      1  0.5138270000000  0.5701460000000  0.3900040000000 1.0
C      1  0.5136280000000  0.6281820000000  0.5330200000000 1.0
C      1  0.5120420000000  0.5163960000000  0.6083900000000 1.0
C      1  0.5483270000000  0.4864640000000  0.5991620000000 1.0
C      1  0.5441750000000  0.3982050000000  0.5174220000000 1.0
C      1  0.5473730000000  0.4509920000000  0.4099200000000 1.0
C      1  0.5471640000000  0.5710580000000  0.4260980000000 1.0
C      1  0.5461270000000  0.5931650000000  0.5450510000000 1.0
C      1  0.5425500000000  0.5418430000000  0.5819020000000 1.0
C      1  0.5397040000000  0.4232930000000  0.5646450000000 1.0
C      1  0.5447960000000  0.4211580000000  0.4536280000000 1.0
C      1  0.5455910000000  0.5204270000000  0.4114280000000 1.0
C      1  0.5435800000000  0.5898580000000  0.4925190000000 1.0
C      1  0.6176710000000  0.5436420000000  0.5254970000000 1.0
C      1  0.6198790000000  0.4884130000000  0.5512660000000 1.0
C      1  0.6156120000000  0.4498460000000  0.5064060000000 1.0
C      1  0.6167760000000  0.4789520000000  0.4557060000000 1.0
C      1  0.6167010000000  0.5362830000000  0.4676970000000 1.0
C      1  0.4812860000000  0.3783530000000  0.5446560000000 1.0
C      1  0.4875600000000  0.4196870000000  0.3966210000000 1.0
C      1  0.4852490000000  0.5686590000000  0.3918730000000 1.0
C      1  0.4850850000000  0.6272530000000  0.5330160000000 1.0
C      1  0.4873450000000  0.5073290000000  0.6179940000000 1.0
C      1  0.5103540000000  0.4473310000000  0.4725280000000 1.0
C      1  0.5096930000000  0.5107850000000  0.4406170000000 1.0
C      1  0.5082340000000  0.5581910000000  0.4941630000000 1.0
C      1  0.4995270000000  0.5272940000000  0.5613710000000 1.0
C      1  0.5096620000000  0.4567230000000  0.5433690000000 1.0
C      1  0.4000110000000  0.5043780000000  0.4974170000000 1.0
C      1  0.4493700000000  0.5051850000000  0.4943950000000 1.0
C      1  0.5893600000000  0.5004820000000  0.5104040000000 1.0
C      1  0.3702950000000  0.5029750000000  0.5004260000000 1.0
END
