TITL C-3623286-7563-1321 0.104249789756828 125000 -476.907427676146 0 0 79 (C1) n - 1
REM
REM in /home/nfs/bkarasulu/CARBON/AIRSS/Generating-Clusters/LCBOP/Higher-Symm/SD-CG/FIRE-CG
REM
REM
REM
REM
REM
REM ./C.cell (b20cbc046b6831c77cfcea5457e17084)
REM AIRSS Version 0.9.1 bugfix July 2018 build 013d7b7c2542+ Fri, 06 Jul 2018 19:26:36 +0100
REM compiler GCC version 9.2.1 20190827 (Red Hat 9.2.1-1)
REM options -cpp -mtune=generic -march=x86-64 -g -O0 -fpre-include=/usr/include/finclude/math-vector-fortran.h
REM seed 84344207 1527428634 1796705196 1081717348 1497114769 -1565471275 501184677 -1916448683 1299847133 509543487 1562238452 949801079 -2137230771 2033929214 -1234441838 665526307 1615140641 -784430778 975816908 780960263 1208357689 -1879772736 -915077009 -1056428856 -1429799623 1070329780 -966427725 -803932825 644435804 -776215984 -1297393862 -201021859 1298186681
REM
CELL 1.54180   50.00000   50.00000   50.00000   90.00000   90.00000   90.00000
LATT -1
SFAC C  
C      1  0.4898460000000  0.4769440000000  0.5743830000000 1.0
C      1  0.4226020000000  0.4750990000000  0.5140380000000 1.0
C      1  0.4635270000000  0.4766350000000  0.4344210000000 1.0
C      1  0.5521440000000  0.4763700000000  0.4453150000000 1.0
C      1  0.5697750000000  0.4752470000000  0.5341980000000 1.0
C      1  0.4561230000000  0.4549200000000  0.5439690000000 1.0
C      1  0.4441820000000  0.4545420000000  0.4728800000000 1.0
C      1  0.5087810000000  0.4553570000000  0.4399350000000 1.0
C      1  0.5607850000000  0.4546100000000  0.4903690000000 1.0
C      1  0.5280830000000  0.4548900000000  0.5548020000000 1.0
C      1  0.5261820000000  0.5542710000000  0.4318380000000 1.0
C      1  0.5728460000000  0.5545460000000  0.5040440000000 1.0
C      1  0.5184340000000  0.5547290000000  0.5706320000000 1.0
C      1  0.4382760000000  0.5545120000000  0.5393980000000 1.0
C      1  0.4421210000000  0.5545520000000  0.4542410000000 1.0
C      1  0.5335150000000  0.4921490000000  0.5173500000000 1.0
C      1  0.4942810000000  0.4964110000000  0.5350050000000 1.0
C      1  0.4621760000000  0.4912390000000  0.5065050000000 1.0
C      1  0.4827890000000  0.4957450000000  0.4687540000000 1.0
C      1  0.5255040000000  0.4931410000000  0.4748950000000 1.0
C      1  0.5356610000000  0.5328530000000  0.5633130000000 1.0
C      1  0.4503770000000  0.5331870000000  0.5548950000000 1.0
C      1  0.4330560000000  0.5322860000000  0.4701190000000 1.0
C      1  0.5068670000000  0.5333680000000  0.4266650000000 1.0
C      1  0.5722990000000  0.5326890000000  0.4849230000000 1.0
C      1  0.5399280000000  0.5030640000000  0.5687860000000 1.0
C      1  0.4470620000000  0.5035700000000  0.5596820000000 1.0
C      1  0.4262220000000  0.5026280000000  0.4683640000000 1.0
C      1  0.5068590000000  0.5036340000000  0.4216380000000 1.0
C      1  0.5779550000000  0.5030440000000  0.4829100000000 1.0
C      1  0.5244250000000  0.4225990000000  0.5059340000000 1.0
C      1  0.5019470000000  0.4225970000000  0.5255100000000 1.0
C      1  0.4762420000000  0.4225870000000  0.5103990000000 1.0
C      1  0.4829230000000  0.4226440000000  0.4814010000000 1.0
C      1  0.5125870000000  0.4227240000000  0.4786110000000 1.0
C      1  0.5248480000000  0.4391250000000  0.4585190000000 1.0
C      1  0.5476320000000  0.4386610000000  0.5113920000000 1.0
C      1  0.5039320000000  0.4390710000000  0.5488400000000 1.0
C      1  0.4541790000000  0.4386560000000  0.5195000000000 1.0
C      1  0.4674180000000  0.4389120000000  0.4636580000000 1.0
C      1  0.4124900000000  0.4929850000000  0.4933160000000 1.0
C      1  0.4789100000000  0.4943900000000  0.4180510000000 1.0
C      1  0.5726370000000  0.4939510000000  0.4551130000000 1.0
C      1  0.5657650000000  0.4932400000000  0.5568470000000 1.0
C      1  0.4678130000000  0.4945800000000  0.5788120000000 1.0
C      1  0.4701510000000  0.5631570000000  0.4545170000000 1.0
C      1  0.5341920000000  0.5618210000000  0.4589040000000 1.0
C      1  0.5485200000000  0.5610020000000  0.5193150000000 1.0
C      1  0.4962000000000  0.5633890000000  0.5536120000000 1.0
C      1  0.4489790000000  0.5605590000000  0.5127510000000 1.0
C      1  0.4507200000000  0.5135420000000  0.5088320000000 1.0
C      1  0.4847130000000  0.5225480000000  0.4658350000000 1.0
C      1  0.5282560000000  0.5200670000000  0.4755650000000 1.0
C      1  0.5449830000000  0.5141370000000  0.5218670000000 1.0
C      1  0.4918560000000  0.5230570000000  0.5351890000000 1.0
C      1  0.5241610000000  0.5748450000000  0.5093150000000 1.0
C      1  0.4983580000000  0.5760430000000  0.5263030000000 1.0
C      1  0.4742990000000  0.5747430000000  0.5064150000000 1.0
C      1  0.4850210000000  0.5755590000000  0.4775890000000 1.0
C      1  0.5163360000000  0.5753740000000  0.4792050000000 1.0
C      1  0.4412730000000  0.4799770000000  0.4553310000000 1.0
C      1  0.5245680000000  0.4806600000000  0.4313070000000 1.0
C      1  0.5746100000000  0.4795510000000  0.5028350000000 1.0
C      1  0.5200570000000  0.4804250000000  0.5704880000000 1.0
C      1  0.4375740000000  0.4798310000000  0.5420500000000 1.0
C      1  0.5507570000000  0.4521140000000  0.5369100000000 1.0
C      1  0.4808620000000  0.4534020000000  0.5588620000000 1.0
C      1  0.4363960000000  0.4518570000000  0.5007240000000 1.0
C      1  0.4800740000000  0.4532650000000  0.4419570000000 1.0
C      1  0.5498650000000  0.4528500000000  0.4635250000000 1.0
C      1  0.5448870000000  0.5379290000000  0.5363200000000 1.0
C      1  0.4785490000000  0.5400220000000  0.5532950000000 1.0
C      1  0.4423040000000  0.5372920000000  0.4970810000000 1.0
C      1  0.4841080000000  0.5399670000000  0.4435630000000 1.0
C      1  0.5482870000000  0.5387450000000  0.4698540000000 1.0
C      1  0.4987470000000  0.5347230000000  0.5110340000000 1.0
C      1  0.4994280000000  0.4864610000000  0.5001170000000 1.0
C      1  0.4997340000000  0.4590190000000  0.5006640000000 1.0
C      1  0.5039740000000  0.5314200000000  0.4845770000000 1.0
END
