TITL C-3623287-7182-1336 -1.04122317451428e-06 125000 -835.642653099155 0 0 138 (C1) n - 1
REM
REM in /home/nfs/bkarasulu/CARBON/AIRSS/Generating-Clusters/LCBOP/Higher-Symm/SD-CG/FIRE-CG
REM
REM
REM
REM
REM
REM ./C.cell (b20cbc046b6831c77cfcea5457e17084)
REM AIRSS Version 0.9.1 bugfix July 2018 build 013d7b7c2542+ Fri, 06 Jul 2018 19:26:36 +0100
REM compiler GCC version 9.2.1 20190827 (Red Hat 9.2.1-1)
REM options -cpp -mtune=generic -march=x86-64 -g -O0 -fpre-include=/usr/include/finclude/math-vector-fortran.h
REM seed 91174022 -593303626 -857557561 1865884976 1846090977 1646194074 -1334176971 -1867609706 -1103431503 -295208312 212870313 795214132 1202843189 -210673898 1171305780 483815509 -1395075322 -1946354989 -1209302297 1338259817 54318827 -509789004 1061797402 -1814689375 -2067810121 -2128229433 -531394613 1071015000 1432959538 1922812164 -428436747 609506667 -1607386854
REM
CELL 1.54180   50.00000   50.00000   50.00000   90.00000   90.00000   90.00000
LATT -1
SFAC C  
C      1  0.6054020000000  0.5027040000000  0.4710290000000 1.0
C      1  0.4966710000000  0.4713930000000  0.5909990000000 1.0
C      1  0.4750640000000  0.5949670000000  0.5146610000000 1.0
C      1  0.3906350000000  0.5029030000000  0.5314630000000 1.0
C      1  0.4031670000000  0.4784660000000  0.4600340000000 1.0
C      1  0.6061580000000  0.4798760000000  0.5211460000000 1.0
C      1  0.4910690000000  0.4651600000000  0.4013450000000 1.0
C      1  0.5004850000000  0.5371220000000  0.6232440000000 1.0
C      1  0.5066330000000  0.5388520000000  0.3805510000000 1.0
C      1  0.5417050000000  0.6177270000000  0.5165040000000 1.0
C      1  0.5273040000000  0.4071370000000  0.5085410000000 1.0
C      1  0.4692930000000  0.4011360000000  0.4892890000000 1.0
C      1  0.5215230000000  0.5486590000000  0.5798950000000 1.0
C      1  0.5486280000000  0.5700460000000  0.5285730000000 1.0
C      1  0.5896720000000  0.5248360000000  0.5302110000000 1.0
C      1  0.4622470000000  0.5364850000000  0.4266940000000 1.0
C      1  0.4531930000000  0.4575000000000  0.5771250000000 1.0
C      1  0.5341420000000  0.4478030000000  0.4114280000000 1.0
C      1  0.4521210000000  0.5804600000000  0.4750230000000 1.0
C      1  0.4603240000000  0.4094590000000  0.5371990000000 1.0
C      1  0.5388910000000  0.4103040000000  0.4588240000000 1.0
C      1  0.4098920000000  0.5261450000000  0.4585480000000 1.0
C      1  0.4175650000000  0.4620370000000  0.5337100000000 1.0
C      1  0.5809600000000  0.4597080000000  0.4597210000000 1.0
C      1  0.5505660000000  0.5478370000000  0.5047860000000 1.0
C      1  0.5307930000000  0.5088720000000  0.5502640000000 1.0
C      1  0.5047290000000  0.5596250000000  0.5556910000000 1.0
C      1  0.4310890000000  0.5268200000000  0.5026440000000 1.0
C      1  0.4668420000000  0.4645480000000  0.5047250000000 1.0
C      1  0.5382580000000  0.4595120000000  0.5021450000000 1.0
C      1  0.4669500000000  0.5044030000000  0.4730460000000 1.0
C      1  0.4392730000000  0.4807110000000  0.5373250000000 1.0
C      1  0.5536890000000  0.4728060000000  0.4538180000000 1.0
C      1  0.4789550000000  0.5436250000000  0.4487510000000 1.0
C      1  0.5008280000000  0.4701290000000  0.5353900000000 1.0
C      1  0.5061250000000  0.4712860000000  0.4669150000000 1.0
C      1  0.5259570000000  0.5797080000000  0.4388660000000 1.0
C      1  0.5908470000000  0.4030270000000  0.5042450000000 1.0
C      1  0.4362880000000  0.5324950000000  0.5767070000000 1.0
C      1  0.4719430000000  0.5795510000000  0.5828960000000 1.0
C      1  0.4779060000000  0.4374310000000  0.4417490000000 1.0
C      1  0.5232280000000  0.4386870000000  0.5627420000000 1.0
C      1  0.4372460000000  0.4371690000000  0.4755220000000 1.0
C      1  0.4190400000000  0.5707380000000  0.5277780000000 1.0
C      1  0.5746380000000  0.5813970000000  0.4772450000000 1.0
C      1  0.5693600000000  0.5112170000000  0.4167930000000 1.0
C      1  0.5684140000000  0.4811450000000  0.5661170000000 1.0
C      1  0.4446020000000  0.4722890000000  0.4358900000000 1.0
C      1  0.4925160000000  0.5205180000000  0.4659900000000 1.0
C      1  0.5128370000000  0.4589340000000  0.4913430000000 1.0
C      1  0.4606880000000  0.4904350000000  0.5190910000000 1.0
C      1  0.5119470000000  0.5153230000000  0.5289760000000 1.0
C      1  0.5151290000000  0.4998770000000  0.4588570000000 1.0
C      1  0.4868090000000  0.4978240000000  0.5360990000000 1.0
C      1  0.4929810000000  0.4571450000000  0.5110430000000 1.0
C      1  0.5040560000000  0.5379810000000  0.4886350000000 1.0
C      1  0.5208020000000  0.5312260000000  0.5080620000000 1.0
C      1  0.5448120000000  0.4968260000000  0.4699790000000 1.0
C      1  0.5570020000000  0.5018110000000  0.4958620000000 1.0
C      1  0.4537700000000  0.5104820000000  0.4982590000000 1.0
C      1  0.3889480000000  0.5003480000000  0.5010380000000 1.0
C      1  0.5202320000000  0.4966000000000  0.4271920000000 1.0
C      1  0.5092850000000  0.3972970000000  0.5287890000000 1.0
C      1  0.5975270000000  0.5269500000000  0.4835500000000 1.0
C      1  0.5840300000000  0.4662660000000  0.5104010000000 1.0
C      1  0.3996280000000  0.4727400000000  0.4892040000000 1.0
C      1  0.4743580000000  0.5056750000000  0.5644850000000 1.0
C      1  0.4928340000000  0.4953440000000  0.4085250000000 1.0
C      1  0.4959230000000  0.5012700000000  0.5873060000000 1.0
C      1  0.4903620000000  0.3993940000000  0.4717440000000 1.0
C      1  0.5025250000000  0.5860630000000  0.5085210000000 1.0
C      1  0.5022600000000  0.5688000000000  0.4826230000000 1.0
C      1  0.4103630000000  0.4516790000000  0.5081600000000 1.0
C      1  0.4612510000000  0.5097300000000  0.4179240000000 1.0
C      1  0.5104270000000  0.4074000000000  0.4515190000000 1.0
C      1  0.5825270000000  0.4483780000000  0.4884860000000 1.0
C      1  0.5738590000000  0.5260900000000  0.5038070000000 1.0
C      1  0.4078110000000  0.5208750000000  0.4870670000000 1.0
C      1  0.5204660000000  0.5176720000000  0.5759110000000 1.0
C      1  0.5381900000000  0.4699930000000  0.4287380000000 1.0
C      1  0.4471550000000  0.4864730000000  0.5665540000000 1.0
C      1  0.4884940000000  0.4117990000000  0.5434420000000 1.0
C      1  0.4766130000000  0.5683330000000  0.4654200000000 1.0
C      1  0.5172800000000  0.5720040000000  0.5325490000000 1.0
C      1  0.5272950000000  0.5725950000000  0.4659060000000 1.0
C      1  0.5568420000000  0.4785950000000  0.5160310000000 1.0
C      1  0.4629970000000  0.5346010000000  0.5662990000000 1.0
C      1  0.4766720000000  0.5593760000000  0.5631160000000 1.0
C      1  0.4845950000000  0.4621270000000  0.4526970000000 1.0
C      1  0.5251550000000  0.4627740000000  0.5486410000000 1.0
C      1  0.4520810000000  0.4599650000000  0.4815440000000 1.0
C      1  0.4270330000000  0.5456840000000  0.5227750000000 1.0
C      1  0.5515690000000  0.5647060000000  0.4787010000000 1.0
C      1  0.5424810000000  0.5154990000000  0.4174330000000 1.0
C      1  0.5470700000000  0.4832400000000  0.5456440000000 1.0
C      1  0.4607420000000  0.4770740000000  0.4599510000000 1.0
C      1  0.6023900000000  0.5009580000000  0.5395680000000 1.0
C      1  0.5081860000000  0.5580580000000  0.6058780000000 1.0
C      1  0.5606300000000  0.5969730000000  0.5195410000000 1.0
C      1  0.4124570000000  0.5017170000000  0.4435100000000 1.0
C      1  0.4008160000000  0.5051950000000  0.5564490000000 1.0
C      1  0.5981990000000  0.4838040000000  0.4512450000000 1.0
C      1  0.5145360000000  0.5618910000000  0.3914430000000 1.0
C      1  0.4808220000000  0.4499520000000  0.5803780000000 1.0
C      1  0.5067720000000  0.4417030000000  0.4083180000000 1.0
C      1  0.4512100000000  0.5937220000000  0.5003600000000 1.0
C      1  0.4500520000000  0.4102270000000  0.5100610000000 1.0
C      1  0.5461580000000  0.4121970000000  0.4871760000000 1.0
C      1  0.4370180000000  0.5493980000000  0.4251470000000 1.0
C      1  0.5593570000000  0.4177130000000  0.4388130000000 1.0
C      1  0.4111840000000  0.4473830000000  0.5570120000000 1.0
C      1  0.5492190000000  0.5587150000000  0.5770010000000 1.0
C      1  0.5502450000000  0.4248750000000  0.4130570000000 1.0
C      1  0.4336930000000  0.4370650000000  0.5706340000000 1.0
C      1  0.4433040000000  0.4129030000000  0.5595530000000 1.0
C      1  0.4272220000000  0.5724330000000  0.4643240000000 1.0
C      1  0.5633630000000  0.5608440000000  0.5529710000000 1.0
C      1  0.5823680000000  0.4335540000000  0.4448930000000 1.0
C      1  0.5868020000000  0.5466390000000  0.5476480000000 1.0
C      1  0.4201200000000  0.5507940000000  0.4479410000000 1.0
C      1  0.4961480000000  0.4295760000000  0.5654190000000 1.0
C      1  0.4276150000000  0.5932110000000  0.5157050000000 1.0
C      1  0.5898410000000  0.4963580000000  0.4265710000000 1.0
C      1  0.4984070000000  0.4227170000000  0.4291630000000 1.0
C      1  0.4901330000000  0.5801450000000  0.6033250000000 1.0
C      1  0.5215110000000  0.5760950000000  0.4128780000000 1.0
C      1  0.5808750000000  0.5955750000000  0.4996110000000 1.0
C      1  0.5732100000000  0.4211320000000  0.4933630000000 1.0
C      1  0.4266180000000  0.4272640000000  0.5003010000000 1.0
C      1  0.4242920000000  0.5067890000000  0.5729210000000 1.0
C      1  0.4355370000000  0.4967070000000  0.4252100000000 1.0
C      1  0.5932580000000  0.4918310000000  0.5648120000000 1.0
C      1  0.3602610000000  0.5045300000000  0.4921770000000 1.0
C      1  0.4994690000000  0.5135200000000  0.3852300000000 1.0
C      1  0.5121110000000  0.3706080000000  0.5354420000000 1.0
C      1  0.6136290000000  0.5489060000000  0.4813050000000 1.0
C      1  0.4906460000000  0.5137360000000  0.6140770000000 1.0
C      1  0.5175180000000  0.6124890000000  0.5058450000000 1.0
END
