TITL C-3623287-7182-1579 -33273.0614892094 125000 -599.481028948423 0 0 100 (C1) n - 1
REM
REM in /home/nfs/bkarasulu/CARBON/AIRSS/Generating-Clusters/LCBOP/Higher-Symm/SD-CG/FIRE-CG
REM
REM
REM
REM
REM
REM ./C.cell (b20cbc046b6831c77cfcea5457e17084)
REM AIRSS Version 0.9.1 bugfix July 2018 build 013d7b7c2542+ Fri, 06 Jul 2018 19:26:36 +0100
REM compiler GCC version 9.2.1 20190827 (Red Hat 9.2.1-1)
REM options -cpp -mtune=generic -march=x86-64 -g -O0 -fpre-include=/usr/include/finclude/math-vector-fortran.h
REM seed -1256896584 1628103137 -227746587 304235253 -1758545891 855644068 1234893571 1243967513 657608326 -331460076 210192761 -1303929029 1903397125 -1013011507 493182980 -1052289304 -458968840 1260632593 -1641504908 487495562 -2037687015 -611641104 697537141 201720062 26452011 -1544777818 1496176154 1727642313 1681935764 -58726113 774413714 261558706 -553187351
REM
CELL 1.54180   50.00000   50.00000   50.00000   90.00000   90.00000   90.00000
LATT -1
SFAC C  
C      1  0.5699310000000  0.5436150000000  0.5634900000000 1.0
C      1  0.4729190000000  0.4650570000000  0.4276780000000 1.0
C      1  0.4448070000000  0.5395300000000  0.5206120000000 1.0
C      1  0.5396770000000  0.4798410000000  0.4656970000000 1.0
C      1  0.4589440000000  0.4234060000000  0.5158500000000 1.0
C      1  0.5377840000000  0.5502010000000  0.4541390000000 1.0
C      1  0.5991520000000  0.5861630000000  0.4253280000000 1.0
C      1  0.3922100000000  0.3221860000000  0.6119190000000 1.0
C      1  0.3778530000000  0.3130960000000  0.6317000000000 1.0
C      1  0.5781340000000  0.5697670000000  0.4231850000000 1.0
C      1  0.4294060000000  0.5168070000000  0.5307350000000 1.0
C      1  0.5589580000000  0.4920530000000  0.4488370000000 1.0
C      1  0.4617800000000  0.5696850000000  0.4573440000000 1.0
C      1  0.5323610000000  0.4590020000000  0.5373850000000 1.0
C      1  0.5105810000000  0.4664030000000  0.5547870000000 1.0
C      1  0.4816300000000  0.5707410000000  0.4372680000000 1.0
C      1  0.4547170000000  0.4466370000000  0.5309410000000 1.0
C      1  0.5153340000000  0.5379710000000  0.4413520000000 1.0
C      1  0.4742380000000  0.5742220000000  0.5484250000000 1.0
C      1  0.5152880000000  0.4421530000000  0.4447120000000 1.0
C      1  0.4062610000000  0.4923910000000  0.4491130000000 1.0
C      1  0.6120510000000  0.5010350000000  0.5132960000000 1.0
C      1  0.4286720000000  0.5580970000000  0.5031770000000 1.0
C      1  0.5730450000000  0.4189770000000  0.5267210000000 1.0
C      1  0.4676770000000  0.5234340000000  0.4271760000000 1.0
C      1  0.5403080000000  0.5030700000000  0.5729540000000 1.0
C      1  0.5794690000000  0.5086750000000  0.4593160000000 1.0
C      1  0.4170680000000  0.4961330000000  0.5145960000000 1.0
C      1  0.4114620000000  0.4704970000000  0.4668290000000 1.0
C      1  0.6070800000000  0.5263150000000  0.5011630000000 1.0
C      1  0.5888950000000  0.5497850000000  0.5449790000000 1.0
C      1  0.4564580000000  0.4505330000000  0.4483010000000 1.0
C      1  0.5600230000000  0.4816970000000  0.5703960000000 1.0
C      1  0.4401600000000  0.5323660000000  0.4354470000000 1.0
C      1  0.5297860000000  0.5358790000000  0.5391170000000 1.0
C      1  0.4786600000000  0.4947950000000  0.4635070000000 1.0
C      1  0.4326010000000  0.3588470000000  0.5544250000000 1.0
C      1  0.5869030000000  0.5872130000000  0.4873270000000 1.0
C      1  0.5333950000000  0.4570960000000  0.5082200000000 1.0
C      1  0.4729010000000  0.5651580000000  0.4839540000000 1.0
C      1  0.4372650000000  0.5565440000000  0.4521740000000 1.0
C      1  0.5575050000000  0.4590140000000  0.5525510000000 1.0
C      1  0.5376070000000  0.4317850000000  0.4927430000000 1.0
C      1  0.4651970000000  0.5870700000000  0.5034180000000 1.0
C      1  0.4453790000000  0.5550610000000  0.5855220000000 1.0
C      1  0.5157470000000  0.4620320000000  0.4007400000000 1.0
C      1  0.5143030000000  0.4913890000000  0.5684510000000 1.0
C      1  0.4896120000000  0.5436460000000  0.4303410000000 1.0
C      1  0.4911180000000  0.4711850000000  0.4717090000000 1.0
C      1  0.5088980000000  0.5514960000000  0.5251150000000 1.0
C      1  0.4113770000000  0.4780380000000  0.4948430000000 1.0
C      1  0.5951660000000  0.5235850000000  0.4754610000000 1.0
C      1  0.4522810000000  0.3981180000000  0.5251750000000 1.0
C      1  0.5582240000000  0.5575540000000  0.4359260000000 1.0
C      1  0.4250160000000  0.5129090000000  0.4505230000000 1.0
C      1  0.5906530000000  0.4906180000000  0.5260760000000 1.0
C      1  0.4824110000000  0.5364980000000  0.4868080000000 1.0
C      1  0.5365490000000  0.4818450000000  0.4936410000000 1.0
C      1  0.4994400000000  0.5925150000000  0.4413010000000 1.0
C      1  0.4943170000000  0.4467800000000  0.5661130000000 1.0
C      1  0.4701760000000  0.4282430000000  0.4906470000000 1.0
C      1  0.5413080000000  0.5589100000000  0.4821480000000 1.0
C      1  0.5665120000000  0.5701160000000  0.4887390000000 1.0
C      1  0.4434060000000  0.3768650000000  0.5382690000000 1.0
C      1  0.4777080000000  0.5494170000000  0.5323800000000 1.0
C      1  0.5157740000000  0.4671970000000  0.4584400000000 1.0
C      1  0.5125860000000  0.5935110000000  0.4903770000000 1.0
C      1  0.4725190000000  0.4088690000000  0.5953020000000 1.0
C      1  0.5548670000000  0.4879540000000  0.4210870000000 1.0
C      1  0.4252280000000  0.5175160000000  0.5586640000000 1.0
C      1  0.4065030000000  0.3323890000000  0.5920650000000 1.0
C      1  0.6109510000000  0.5990270000000  0.4457290000000 1.0
C      1  0.4734360000000  0.4484020000000  0.4718380000000 1.0
C      1  0.5199680000000  0.5676600000000  0.5010290000000 1.0
C      1  0.4711160000000  0.4927530000000  0.5160690000000 1.0
C      1  0.5081360000000  0.5240910000000  0.4906810000000 1.0
C      1  0.4381780000000  0.5134490000000  0.4762480000000 1.0
C      1  0.5668160000000  0.5030220000000  0.5277450000000 1.0
C      1  0.5433200000000  0.5173120000000  0.5218580000000 1.0
C      1  0.4658340000000  0.5136080000000  0.4802270000000 1.0
C      1  0.4990680000000  0.4506030000000  0.4209280000000 1.0
C      1  0.4622170000000  0.5720850000000  0.5734360000000 1.0
C      1  0.4834260000000  0.4277470000000  0.5810110000000 1.0
C      1  0.5087860000000  0.6022090000000  0.4649050000000 1.0
C      1  0.4289220000000  0.4514720000000  0.4548280000000 1.0
C      1  0.6012050000000  0.5461300000000  0.5210380000000 1.0
C      1  0.4202060000000  0.3442180000000  0.5727170000000 1.0
C      1  0.6051930000000  0.5991980000000  0.4719490000000 1.0
C      1  0.4311990000000  0.5330990000000  0.5796320000000 1.0
C      1  0.5382000000000  0.4769290000000  0.4030690000000 1.0
C      1  0.4203280000000  0.5545530000000  0.4757680000000 1.0
C      1  0.5743840000000  0.4373040000000  0.5465330000000 1.0
C      1  0.4768940000000  0.5944390000000  0.5284020000000 1.0
C      1  0.5270950000000  0.4252590000000  0.4656750000000 1.0
C      1  0.5278870000000  0.5072540000000  0.5013950000000 1.0
C      1  0.4618110000000  0.4722650000000  0.5291280000000 1.0
C      1  0.5575080000000  0.4154140000000  0.5049030000000 1.0
C      1  0.4367940000000  0.5851080000000  0.5066240000000 1.0
C      1  0.5442160000000  0.5308870000000  0.5641050000000 1.0
C      1  0.4736800000000  0.4953060000000  0.4343820000000 1.0
END
