TITL C-3623289-7120-1492 -4674.43157099336 125000 -439.442911668873 0 0 75 (C1) n - 1
REM
REM in /home/nfs/bkarasulu/CARBON/AIRSS/Generating-Clusters/LCBOP/Higher-Symm/SD-CG/FIRE-CG
REM
REM
REM
REM
REM
REM ./C.cell (b20cbc046b6831c77cfcea5457e17084)
REM AIRSS Version 0.9.1 bugfix July 2018 build 013d7b7c2542+ Fri, 06 Jul 2018 19:26:36 +0100
REM compiler GCC version 9.2.1 20190827 (Red Hat 9.2.1-1)
REM options -cpp -mtune=generic -march=x86-64 -g -O0 -fpre-include=/usr/include/finclude/math-vector-fortran.h
REM seed -979216953 -1065176395 246470164 1393118674 -2090244543 -1689279246 -1979946071 -1912089623 822662991 -1564741038 -143089498 761444872 1231831434 1335049164 -1159401232 -829201317 -256221881 839542004 -1001882203 1829657396 -573112293 1574827878 -1348698554 374264132 -1599735897 985192199 -1213705828 -41027318 -520299273 -528627017 -1365033020 -669753375 -285513534
REM
CELL 1.54180   50.00000   50.00000   50.00000   90.00000   90.00000   90.00000
LATT -1
SFAC C  
C      1  0.4839860000000  0.4643310000000  0.4323940000000 1.0
C      1  0.5387820000000  0.5013170000000  0.4326740000000 1.0
C      1  0.4776220000000  0.5330440000000  0.4320700000000 1.0
C      1  0.4910940000000  0.4239930000000  0.4648570000000 1.0
C      1  0.5712340000000  0.5315350000000  0.4656990000000 1.0
C      1  0.4382060000000  0.5456200000000  0.4648310000000 1.0
C      1  0.5821110000000  0.4866620000000  0.4865350000000 1.0
C      1  0.4699230000000  0.5763760000000  0.4867650000000 1.0
C      1  0.4483680000000  0.4367730000000  0.4863600000000 1.0
C      1  0.4686300000000  0.5004380000000  0.5267650000000 1.0
C      1  0.5150800000000  0.4728170000000  0.5268850000000 1.0
C      1  0.5168970000000  0.5259870000000  0.5229880000000 1.0
C      1  0.4698420000000  0.5596840000000  0.5585660000000 1.0
C      1  0.4629850000000  0.4424080000000  0.5587440000000 1.0
C      1  0.5676640000000  0.4973170000000  0.5586260000000 1.0
C      1  0.4446540000000  0.5598010000000  0.4896260000000 1.0
C      1  0.4751820000000  0.4227070000000  0.4893130000000 1.0
C      1  0.5806260000000  0.5170400000000  0.4894120000000 1.0
C      1  0.5384230000000  0.4927470000000  0.4855820000000 1.0
C      1  0.4871830000000  0.5356150000000  0.4839480000000 1.0
C      1  0.4759330000000  0.4711410000000  0.4856280000000 1.0
C      1  0.5597990000000  0.4819930000000  0.4693260000000 1.0
C      1  0.4841310000000  0.5598040000000  0.4687660000000 1.0
C      1  0.4563610000000  0.4580080000000  0.4692550000000 1.0
C      1  0.5747150000000  0.4721080000000  0.5124280000000 1.0
C      1  0.4859860000000  0.5784360000000  0.5121900000000 1.0
C      1  0.4386450000000  0.4494700000000  0.5120960000000 1.0
C      1  0.5320950000000  0.4504470000000  0.4527560000000 1.0
C      1  0.5256330000000  0.5556490000000  0.4527730000000 1.0
C      1  0.4421660000000  0.4970590000000  0.4520360000000 1.0
C      1  0.5556650000000  0.4458080000000  0.5095270000000 1.0
C      1  0.5175200000000  0.5760700000000  0.5090300000000 1.0
C      1  0.4254430000000  0.4786120000000  0.5093640000000 1.0
C      1  0.5030260000000  0.4440600000000  0.4464430000000 1.0
C      1  0.5424300000000  0.5296440000000  0.4547070000000 1.0
C      1  0.4503890000000  0.5258710000000  0.4460190000000 1.0
C      1  0.5682660000000  0.5210080000000  0.5161720000000 1.0
C      1  0.4475030000000  0.5480340000000  0.5168560000000 1.0
C      1  0.4841470000000  0.4308930000000  0.5165460000000 1.0
C      1  0.4458410000000  0.5198870000000  0.5247480000000 1.0
C      1  0.5093960000000  0.4434380000000  0.5246410000000 1.0
C      1  0.5445910000000  0.5369870000000  0.5226280000000 1.0
C      1  0.5273550000000  0.5726620000000  0.4794340000000 1.0
C      1  0.4258520000000  0.4908680000000  0.4791110000000 1.0
C      1  0.5452280000000  0.4397490000000  0.4797180000000 1.0
C      1  0.5293240000000  0.5176010000000  0.4784420000000 1.0
C      1  0.4686000000000  0.5159150000000  0.4838680000000 1.0
C      1  0.5023810000000  0.4657440000000  0.4837050000000 1.0
C      1  0.4843660000000  0.4604650000000  0.5652400000000 1.0
C      1  0.5412050000000  0.5064260000000  0.5647480000000 1.0
C      1  0.4751990000000  0.5319120000000  0.5637120000000 1.0
C      1  0.5366670000000  0.4342960000000  0.5319460000000 1.0
C      1  0.5373180000000  0.5646850000000  0.5304580000000 1.0
C      1  0.4246150000000  0.5006180000000  0.5322020000000 1.0
C      1  0.4929340000000  0.4803390000000  0.4118410000000 1.0
C      1  0.5213790000000  0.5038920000000  0.4124290000000 1.0
C      1  0.4878650000000  0.5161370000000  0.4127370000000 1.0
C      1  0.5734160000000  0.4953410000000  0.5311170000000 1.0
C      1  0.4670800000000  0.5659530000000  0.5312680000000 1.0
C      1  0.4588680000000  0.4387020000000  0.5311020000000 1.0
C      1  0.5235640000000  0.4885640000000  0.5495780000000 1.0
C      1  0.4985280000000  0.5260570000000  0.5458120000000 1.0
C      1  0.4779500000000  0.4846010000000  0.5493080000000 1.0
C      1  0.5364960000000  0.5605940000000  0.5595730000000 1.0
C      1  0.4290760000000  0.5015780000000  0.5613950000000 1.0
C      1  0.5336200000000  0.4365110000000  0.5611480000000 1.0
C      1  0.5380470000000  0.5349390000000  0.5709380000000 1.0
C      1  0.4516320000000  0.5155350000000  0.5715910000000 1.0
C      1  0.5104260000000  0.4483870000000  0.5721150000000 1.0
C      1  0.4581510000000  0.4723680000000  0.4446900000000 1.0
C      1  0.5459640000000  0.4761100000000  0.4449080000000 1.0
C      1  0.4967510000000  0.5529340000000  0.4440730000000 1.0
C      1  0.5104060000000  0.5279010000000  0.4955950000000 1.0
C      1  0.4708930000000  0.4936610000000  0.4996960000000 1.0
C      1  0.5206700000000  0.4783200000000  0.4999320000000 1.0
END
