TITL C-3623288-6813-1818 -2.40879773047409e-07 125000 -564.243602880724 0 0 91 (C1) n - 1
REM
REM in /home/nfs/bkarasulu/CARBON/AIRSS/Generating-Clusters/LCBOP/Higher-Symm/SD-CG/FIRE-CG
REM
REM
REM
REM
REM
REM ./C.cell (b20cbc046b6831c77cfcea5457e17084)
REM AIRSS Version 0.9.1 bugfix July 2018 build 013d7b7c2542+ Fri, 06 Jul 2018 19:26:36 +0100
REM compiler GCC version 9.2.1 20190827 (Red Hat 9.2.1-1)
REM options -cpp -mtune=generic -march=x86-64 -g -O0 -fpre-include=/usr/include/finclude/math-vector-fortran.h
REM seed -1068157827 -1656339578 2046506464 596741493 1715254367 -1580730584 -479532293 241901834 1308346773 1202663280 770315542 2024108736 -1017008559 1205129240 -1123170592 345287388 -1586698845 -1955260434 -675864832 -764574406 -668287830 -741187952 960304480 -1787329510 -1643156864 -1898329066 1686677944 -1431277520 -1267853722 -699450339 1162680391 -462980014 -1615728469
REM
CELL 1.54180   50.00000   50.00000   50.00000   90.00000   90.00000   90.00000
LATT -1
SFAC C  
C      1  0.4810280000000  0.4432210000000  0.5030380000000 1.0
C      1  0.4956840000000  0.4441070000000  0.5273780000000 1.0
C      1  0.5243180000000  0.4564370000000  0.4877570000000 1.0
C      1  0.4986490000000  0.4453600000000  0.4799920000000 1.0
C      1  0.4780580000000  0.5546910000000  0.5029980000000 1.0
C      1  0.5023200000000  0.5531180000000  0.5217690000000 1.0
C      1  0.5229860000000  0.5518780000000  0.4965090000000 1.0
C      1  0.4961610000000  0.5536950000000  0.4781540000000 1.0
C      1  0.5071380000000  0.4746080000000  0.4141520000000 1.0
C      1  0.4151080000000  0.4741340000000  0.4933850000000 1.0
C      1  0.4918080000000  0.4751700000000  0.5884560000000 1.0
C      1  0.5876960000000  0.4731530000000  0.5067080000000 1.0
C      1  0.5069360000000  0.5245030000000  0.4136730000000 1.0
C      1  0.4136270000000  0.5241880000000  0.4931120000000 1.0
C      1  0.4922950000000  0.5248940000000  0.5863860000000 1.0
C      1  0.5864100000000  0.5230480000000  0.5070680000000 1.0
C      1  0.3893740000000  0.5121250000000  0.5019390000000 1.0
C      1  0.5006570000000  0.5146370000000  0.6115540000000 1.0
C      1  0.6120490000000  0.5124750000000  0.5007520000000 1.0
C      1  0.4978800000000  0.5129280000000  0.3892560000000 1.0
C      1  0.3902840000000  0.4848190000000  0.5023260000000 1.0
C      1  0.5002160000000  0.4873690000000  0.6127400000000 1.0
C      1  0.6129680000000  0.4851770000000  0.5012640000000 1.0
C      1  0.4977370000000  0.4856020000000  0.3896110000000 1.0
C      1  0.5705210000000  0.4679590000000  0.4845580000000 1.0
C      1  0.4886110000000  0.4689470000000  0.4351460000000 1.0
C      1  0.4359610000000  0.4685810000000  0.5121130000000 1.0
C      1  0.5111440000000  0.4676600000000  0.5689130000000 1.0
C      1  0.5676010000000  0.5295410000000  0.4866720000000 1.0
C      1  0.4879020000000  0.5303120000000  0.4340850000000 1.0
C      1  0.4336820000000  0.5306030000000  0.5123990000000 1.0
C      1  0.5113910000000  0.5298670000000  0.5658490000000 1.0
C      1  0.5447550000000  0.4412990000000  0.4411590000000 1.0
C      1  0.4448790000000  0.4412870000000  0.4566770000000 1.0
C      1  0.4545660000000  0.4413840000000  0.5577250000000 1.0
C      1  0.5515840000000  0.4404680000000  0.5408040000000 1.0
C      1  0.5439630000000  0.5575340000000  0.4438070000000 1.0
C      1  0.4439310000000  0.5574970000000  0.4561970000000 1.0
C      1  0.4559830000000  0.5579010000000  0.5560150000000 1.0
C      1  0.5555690000000  0.5560860000000  0.5432710000000 1.0
C      1  0.5634890000000  0.5664390000000  0.5179070000000 1.0
C      1  0.5181780000000  0.5677580000000  0.4371850000000 1.0
C      1  0.4366410000000  0.5678710000000  0.4817530000000 1.0
C      1  0.4818030000000  0.5679060000000  0.5629350000000 1.0
C      1  0.5571960000000  0.4309200000000  0.5147840000000 1.0
C      1  0.5183160000000  0.4317860000000  0.4361750000000 1.0
C      1  0.4379910000000  0.4310310000000  0.4823020000000 1.0
C      1  0.4790400000000  0.4306380000000  0.5683510000000 1.0
C      1  0.5741590000000  0.4833260000000  0.5305050000000 1.0
C      1  0.5324650000000  0.4853980000000  0.4231780000000 1.0
C      1  0.4245650000000  0.4848940000000  0.4682660000000 1.0
C      1  0.4670790000000  0.4855180000000  0.5772040000000 1.0
C      1  0.5743970000000  0.5120650000000  0.5310240000000 1.0
C      1  0.5321310000000  0.5140690000000  0.4235200000000 1.0
C      1  0.4240950000000  0.5136550000000  0.4681870000000 1.0
C      1  0.4672320000000  0.5142630000000  0.5765270000000 1.0
C      1  0.4655350000000  0.4848650000000  0.4416870000000 1.0
C      1  0.4414600000000  0.4848900000000  0.5353650000000 1.0
C      1  0.5332300000000  0.4836740000000  0.5589560000000 1.0
C      1  0.5633210000000  0.4845870000000  0.4616740000000 1.0
C      1  0.4651670000000  0.5141130000000  0.4413050000000 1.0
C      1  0.4407090000000  0.5143630000000  0.5353450000000 1.0
C      1  0.5336540000000  0.5130400000000  0.5585480000000 1.0
C      1  0.5614990000000  0.5139950000000  0.4630160000000 1.0
C      1  0.4927240000000  0.5569050000000  0.4486040000000 1.0
C      1  0.4483440000000  0.5572920000000  0.5072600000000 1.0
C      1  0.5068750000000  0.5564400000000  0.5511360000000 1.0
C      1  0.5523730000000  0.5556710000000  0.4922370000000 1.0
C      1  0.4935960000000  0.4421890000000  0.4498240000000 1.0
C      1  0.4505820000000  0.4416920000000  0.5072390000000 1.0
C      1  0.5046030000000  0.4408240000000  0.5559460000000 1.0
C      1  0.5520940000000  0.4436980000000  0.4887130000000 1.0
C      1  0.5566960000000  0.4285890000000  0.4635810000000 1.0
C      1  0.4674970000000  0.4285730000000  0.4451050000000 1.0
C      1  0.4451890000000  0.4285100000000  0.5339060000000 1.0
C      1  0.5311080000000  0.4273680000000  0.5555630000000 1.0
C      1  0.5563020000000  0.5699570000000  0.4662680000000 1.0
C      1  0.4662990000000  0.5703440000000  0.4439960000000 1.0
C      1  0.4439000000000  0.5707800000000  0.5336320000000 1.0
C      1  0.5334810000000  0.5694500000000  0.5553080000000 1.0
C      1  0.4515930000000  0.4704860000000  0.5586540000000 1.0
C      1  0.5547080000000  0.4689400000000  0.5454790000000 1.0
C      1  0.5498140000000  0.4701900000000  0.4396410000000 1.0
C      1  0.4429890000000  0.4701020000000  0.4526770000000 1.0
C      1  0.4518380000000  0.5290690000000  0.5579180000000 1.0
C      1  0.5563820000000  0.5271250000000  0.5468260000000 1.0
C      1  0.5483910000000  0.5288070000000  0.4414400000000 1.0
C      1  0.4424110000000  0.5286050000000  0.4525050000000 1.0
C      1  0.5224580000000  0.4829680000000  0.4970180000000 1.0
C      1  0.4774610000000  0.5051260000000  0.4982450000000 1.0
C      1  0.5027770000000  0.5001710000000  0.5009790000000 1.0
END
