TITL C-3623288-6813-2010 50611.0439652651 125000 -884.369594147141 0 0 146 (C1) n - 1
REM
REM in /home/nfs/bkarasulu/CARBON/AIRSS/Generating-Clusters/LCBOP/Higher-Symm/SD-CG/FIRE-CG
REM
REM
REM
REM
REM
REM ./C.cell (b20cbc046b6831c77cfcea5457e17084)
REM AIRSS Version 0.9.1 bugfix July 2018 build 013d7b7c2542+ Fri, 06 Jul 2018 19:26:36 +0100
REM compiler GCC version 9.2.1 20190827 (Red Hat 9.2.1-1)
REM options -cpp -mtune=generic -march=x86-64 -g -O0 -fpre-include=/usr/include/finclude/math-vector-fortran.h
REM seed 852108220 1742017602 1828179261 -1821757216 -1975556972 -461455767 78422197 -1812615767 -1252324335 -315594609 -1986998156 -297467093 -354956127 -543612838 -560770725 1308451958 1839228990 -1290415811 1107762429 1280389597 1563375789 -445060581 -27592917 -856373180 -771125673 -1213400493 1889884485 -31499933 729740827 -1182905320 1575497605 2119808390 1330581869
REM
CELL 1.54180   50.00000   50.00000   50.00000   90.00000   90.00000   90.00000
LATT -1
SFAC C  
C      1  0.5186060000000  0.5147490000000  0.4394060000000 1.0
C      1  0.5156720000000  0.4451930000000  0.4707110000000 1.0
C      1  0.5147190000000  0.4542350000000  0.5417700000000 1.0
C      1  0.5137410000000  0.5262010000000  0.5584330000000 1.0
C      1  0.5137120000000  0.5630010000000  0.4924820000000 1.0
C      1  0.3978120000000  0.4865360000000  0.5332240000000 1.0
C      1  0.3988810000000  0.5144150000000  0.5216440000000 1.0
C      1  0.4022560000000  0.5212430000000  0.4908700000000 1.0
C      1  0.4027310000000  0.5037580000000  0.4654720000000 1.0
C      1  0.4062640000000  0.4740860000000  0.4605930000000 1.0
C      1  0.4053380000000  0.5985750000000  0.5865470000000 1.0
C      1  0.4070750000000  0.6130210000000  0.4305260000000 1.0
C      1  0.4057670000000  0.4657850000000  0.4331240000000 1.0
C      1  0.4007680000000  0.3827300000000  0.4882900000000 1.0
C      1  0.4020830000000  0.4473530000000  0.6119810000000 1.0
C      1  0.4941840000000  0.5147720000000  0.5184460000000 1.0
C      1  0.4963000000000  0.5207040000000  0.4910660000000 1.0
C      1  0.4954800000000  0.4963500000000  0.4772040000000 1.0
C      1  0.4924950000000  0.4759270000000  0.4954230000000 1.0
C      1  0.4912850000000  0.4871660000000  0.5205290000000 1.0
C      1  0.5267780000000  0.5820770000000  0.5197990000000 1.0
C      1  0.5283440000000  0.5412730000000  0.4325840000000 1.0
C      1  0.5276520000000  0.4464760000000  0.4366990000000 1.0
C      1  0.5261700000000  0.4266730000000  0.5302140000000 1.0
C      1  0.5255970000000  0.5067640000000  0.5805330000000 1.0
C      1  0.5421060000000  0.5183880000000  0.4802320000000 1.0
C      1  0.5460810000000  0.4774210000000  0.4625290000000 1.0
C      1  0.5458340000000  0.4612000000000  0.5089040000000 1.0
C      1  0.5450080000000  0.4981220000000  0.5408910000000 1.0
C      1  0.5438240000000  0.5412760000000  0.5178900000000 1.0
C      1  0.4641950000000  0.5149500000000  0.4504160000000 1.0
C      1  0.4695920000000  0.4496620000000  0.4647350000000 1.0
C      1  0.4664600000000  0.4503850000000  0.5363670000000 1.0
C      1  0.4653160000000  0.5176680000000  0.5533020000000 1.0
C      1  0.4660790000000  0.5527170000000  0.5009460000000 1.0
C      1  0.5573050000000  0.5445790000000  0.4358700000000 1.0
C      1  0.5552820000000  0.4585990000000  0.4412950000000 1.0
C      1  0.5544520000000  0.4344540000000  0.5204710000000 1.0
C      1  0.5539040000000  0.5002110000000  0.5698160000000 1.0
C      1  0.5542730000000  0.5687900000000  0.5227780000000 1.0
C      1  0.5207940000000  0.5877450000000  0.4528280000000 1.0
C      1  0.5213620000000  0.4822410000000  0.4002940000000 1.0
C      1  0.5217710000000  0.4004200000000  0.4853600000000 1.0
C      1  0.5211090000000  0.4557680000000  0.5898610000000 1.0
C      1  0.5206900000000  0.5731060000000  0.5702060000000 1.0
C      1  0.5492010000000  0.5656960000000  0.5725940000000 1.0
C      1  0.5488410000000  0.5870790000000  0.4605710000000 1.0
C      1  0.5498020000000  0.4894090000000  0.4019190000000 1.0
C      1  0.5499720000000  0.4056680000000  0.4790300000000 1.0
C      1  0.5493450000000  0.4516880000000  0.5830160000000 1.0
C      1  0.4826200000000  0.4071380000000  0.5165540000000 1.0
C      1  0.4816030000000  0.4872110000000  0.5922850000000 1.0
C      1  0.4818190000000  0.5835590000000  0.5398250000000 1.0
C      1  0.4826860000000  0.5616720000000  0.4329120000000 1.0
C      1  0.4834960000000  0.4550860000000  0.4176820000000 1.0
C      1  0.4876170000000  0.4703240000000  0.5442570000000 1.0
C      1  0.4878500000000  0.5322200000000  0.5419580000000 1.0
C      1  0.4884750000000  0.5484000000000  0.4822760000000 1.0
C      1  0.4882270000000  0.4964960000000  0.4490300000000 1.0
C      1  0.4891370000000  0.4480270000000  0.4870030000000 1.0
C      1  0.5825840000000  0.5353810000000  0.5474220000000 1.0
C      1  0.5808680000000  0.5541210000000  0.4818040000000 1.0
C      1  0.5826280000000  0.5009010000000  0.4396740000000 1.0
C      1  0.5831280000000  0.4448300000000  0.4807560000000 1.0
C      1  0.5825770000000  0.4662650000000  0.5467030000000 1.0
C      1  0.4256120000000  0.6017960000000  0.4450070000000 1.0
C      1  0.4231300000000  0.4702460000000  0.4125930000000 1.0
C      1  0.4229030000000  0.3950220000000  0.4821120000000 1.0
C      1  0.4233710000000  0.4474000000000  0.5969450000000 1.0
C      1  0.4244220000000  0.5816620000000  0.5811510000000 1.0
C      1  0.4803520000000  0.5475020000000  0.4061780000000 1.0
C      1  0.4812720000000  0.4244650000000  0.4235150000000 1.0
C      1  0.4811310000000  0.4036530000000  0.5477290000000 1.0
C      1  0.4793240000000  0.5159800000000  0.6045060000000 1.0
C      1  0.4787780000000  0.6034420000000  0.5160590000000 1.0
C      1  0.5123140000000  0.5843090000000  0.5439430000000 1.0
C      1  0.5131390000000  0.5652820000000  0.4353850000000 1.0
C      1  0.5136760000000  0.4578940000000  0.4150770000000 1.0
C      1  0.5132770000000  0.4074320000000  0.5129230000000 1.0
C      1  0.5122860000000  0.4839880000000  0.5920890000000 1.0
C      1  0.4713800000000  0.5758780000000  0.5683760000000 1.0
C      1  0.4719810000000  0.5867690000000  0.4480800000000 1.0
C      1  0.4717330000000  0.4787500000000  0.4009020000000 1.0
C      1  0.4723760000000  0.3984140000000  0.4879770000000 1.0
C      1  0.4719430000000  0.4572090000000  0.5929780000000 1.0
C      1  0.5673260000000  0.4231140000000  0.4967110000000 1.0
C      1  0.5668800000000  0.4741220000000  0.5725410000000 1.0
C      1  0.5676230000000  0.5633120000000  0.5483870000000 1.0
C      1  0.5654840000000  0.5620010000000  0.4564670000000 1.0
C      1  0.5677830000000  0.4782340000000  0.4235800000000 1.0
C      1  0.4959250000000  0.3978300000000  0.4692010000000 1.0
C      1  0.4955030000000  0.4393380000000  0.5872670000000 1.0
C      1  0.4945150000000  0.5649410000000  0.5841320000000 1.0
C      1  0.4945310000000  0.5988150000000  0.4636300000000 1.0
C      1  0.4950510000000  0.4965250000000  0.3941840000000 1.0
C      1  0.4203990000000  0.5282940000000  0.5380890000000 1.0
C      1  0.4225090000000  0.5436170000000  0.4881640000000 1.0
C      1  0.4161260000000  0.5160750000000  0.4418430000000 1.0
C      1  0.4273320000000  0.4620250000000  0.4762020000000 1.0
C      1  0.4231950000000  0.4717590000000  0.5365590000000 1.0
C      1  0.4760000000000  0.4364180000000  0.5131530000000 1.0
C      1  0.4751110000000  0.4917660000000  0.5632070000000 1.0
C      1  0.4768270000000  0.5568610000000  0.5272090000000 1.0
C      1  0.4769720000000  0.5418920000000  0.4545280000000 1.0
C      1  0.4784870000000  0.4675250000000  0.4446310000000 1.0
C      1  0.5341810000000  0.5240470000000  0.5369270000000 1.0
C      1  0.5334440000000  0.5420610000000  0.4913460000000 1.0
C      1  0.5364140000000  0.5032390000000  0.4577060000000 1.0
C      1  0.5357210000000  0.4614590000000  0.4831750000000 1.0
C      1  0.5345650000000  0.4742640000000  0.5314710000000 1.0
C      1  0.4511720000000  0.5072900000000  0.4779960000000 1.0
C      1  0.4415870000000  0.4825340000000  0.4899840000000 1.0
C      1  0.4396720000000  0.4860930000000  0.5177240000000 1.0
C      1  0.4445680000000  0.5141940000000  0.5247490000000 1.0
C      1  0.4476920000000  0.5297210000000  0.4991480000000 1.0
C      1  0.4898620000000  0.4161070000000  0.5707550000000 1.0
C      1  0.4882020000000  0.5417620000000  0.6004820000000 1.0
C      1  0.4876460000000  0.6075050000000  0.4903640000000 1.0
C      1  0.4892570000000  0.5246610000000  0.3940630000000 1.0
C      1  0.4902000000000  0.4061440000000  0.4420400000000 1.0
C      1  0.5734810000000  0.5248590000000  0.4236650000000 1.0
C      1  0.5735730000000  0.4382220000000  0.4529370000000 1.0
C      1  0.5726620000000  0.4381110000000  0.5435980000000 1.0
C      1  0.5720560000000  0.5235570000000  0.5732580000000 1.0
C      1  0.5724360000000  0.5765400000000  0.5003950000000 1.0
C      1  0.5614550000000  0.5979820000000  0.4841370000000 1.0
C      1  0.5619820000000  0.5153820000000  0.3985020000000 1.0
C      1  0.5618540000000  0.4114860000000  0.4532050000000 1.0
C      1  0.5609950000000  0.4292820000000  0.5687570000000 1.0
C      1  0.5603470000000  0.5447980000000  0.5893690000000 1.0
C      1  0.5915100000000  0.4736600000000  0.4905820000000 1.0
C      1  0.5912970000000  0.4842050000000  0.5223040000000 1.0
C      1  0.5913510000000  0.5173580000000  0.5222430000000 1.0
C      1  0.5912920000000  0.5268120000000  0.4905330000000 1.0
C      1  0.5915030000000  0.5004310000000  0.4706680000000 1.0
C      1  0.4454550000000  0.4523600000000  0.5805190000000 1.0
C      1  0.4440610000000  0.5649760000000  0.5701120000000 1.0
C      1  0.4444210000000  0.5854010000000  0.4578130000000 1.0
C      1  0.4454660000000  0.4881470000000  0.4110860000000 1.0
C      1  0.4461450000000  0.4104560000000  0.4798150000000 1.0
C      1  0.4441440000000  0.4385080000000  0.4713240000000 1.0
C      1  0.4417930000000  0.4545120000000  0.5514540000000 1.0
C      1  0.4360970000000  0.5398710000000  0.5595250000000 1.0
C      1  0.4347140000000  0.5673230000000  0.4779130000000 1.0
C      1  0.4422740000000  0.5100830000000  0.4304590000000 1.0
C      1  0.5555430000000  0.5032880000000  0.4984860000000 1.0
END
