TITL C-3623285-6872-1758 0.00113581044274902 125000 -1206.15485999973 0 0 194 (C1) n - 1
REM
REM in /home/nfs/bkarasulu/CARBON/AIRSS/Generating-Clusters/LCBOP/Higher-Symm/SD-CG/FIRE-CG
REM
REM
REM
REM
REM
REM ./C.cell (b20cbc046b6831c77cfcea5457e17084)
REM AIRSS Version 0.9.1 bugfix July 2018 build 013d7b7c2542+ Fri, 06 Jul 2018 19:26:36 +0100
REM compiler GCC version 9.2.1 20190827 (Red Hat 9.2.1-1)
REM options -cpp -mtune=generic -march=x86-64 -g -O0 -fpre-include=/usr/include/finclude/math-vector-fortran.h
REM seed -411153621 746853829 897804925 971559949 820803293 -1679011683 -85314655 2003839597 -694161333 705080426 -623983939 -368991559 1786570897 -319303876 169568394 1576891063 2134147156 -189914391 287471901 477293347 -2132794387 -192346694 -1788019976 -1442666283 1369489158 -1337220605 -1855410651 1592654480 610188311 1230262073 719595513 -1353430874 -2097625417
REM
CELL 1.54180   50.00000   50.00000   50.00000   90.00000   90.00000   90.00000
LATT -1
SFAC C  
C      1  0.5188680000000  0.5959400000000  0.4932900000000 1.0
C      1  0.4915000000000  0.6011030000000  0.4835560000000 1.0
C      1  0.4903740000000  0.5973940000000  0.5294750000000 1.0
C      1  0.5302960000000  0.4023040000000  0.5064360000000 1.0
C      1  0.4846730000000  0.4037840000000  0.5131050000000 1.0
C      1  0.4898520000000  0.3985670000000  0.4845480000000 1.0
C      1  0.4757070000000  0.3829880000000  0.4287510000000 1.0
C      1  0.4503320000000  0.3835950000000  0.5550860000000 1.0
C      1  0.5798110000000  0.3846090000000  0.5145460000000 1.0
C      1  0.4727360000000  0.6151840000000  0.5763480000000 1.0
C      1  0.4499890000000  0.6160680000000  0.4429620000000 1.0
C      1  0.5724560000000  0.6161200000000  0.4845560000000 1.0
C      1  0.4758830000000  0.3754630000000  0.5516620000000 1.0
C      1  0.5667690000000  0.3757640000000  0.4923360000000 1.0
C      1  0.4631850000000  0.3744590000000  0.4510490000000 1.0
C      1  0.4755080000000  0.6247220000000  0.4435160000000 1.0
C      1  0.5566740000000  0.6242750000000  0.5049270000000 1.0
C      1  0.4599490000000  0.6239570000000  0.5539590000000 1.0
C      1  0.4043450000000  0.4976240000000  0.4065620000000 1.0
C      1  0.4666370000000  0.4966950000000  0.6297790000000 1.0
C      1  0.6305070000000  0.4940500000000  0.4620640000000 1.0
C      1  0.4018960000000  0.5055620000000  0.5943020000000 1.0
C      1  0.4676850000000  0.5045280000000  0.3686040000000 1.0
C      1  0.6289920000000  0.5030060000000  0.5358730000000 1.0
C      1  0.3927230000000  0.5620120000000  0.5349660000000 1.0
C      1  0.5833800000000  0.5616420000000  0.5754800000000 1.0
C      1  0.5237390000000  0.5603700000000  0.3900140000000 1.0
C      1  0.3927540000000  0.4397020000000  0.4656360000000 1.0
C      1  0.5837270000000  0.4377380000000  0.4244960000000 1.0
C      1  0.5237040000000  0.4380650000000  0.6099670000000 1.0
C      1  0.5560810000000  0.4441610000000  0.4669230000000 1.0
C      1  0.4432300000000  0.4467110000000  0.4675890000000 1.0
C      1  0.5002280000000  0.4455710000000  0.5659270000000 1.0
C      1  0.5569290000000  0.5541290000000  0.5331460000000 1.0
C      1  0.4432890000000  0.5555950000000  0.5323230000000 1.0
C      1  0.5001820000000  0.5530370000000  0.4346750000000 1.0
C      1  0.5386110000000  0.6017040000000  0.5461440000000 1.0
C      1  0.5214230000000  0.6025740000000  0.4392940000000 1.0
C      1  0.4379450000000  0.6027920000000  0.5132590000000 1.0
C      1  0.5425330000000  0.3968820000000  0.4529770000000 1.0
C      1  0.5206460000000  0.3980130000000  0.5565490000000 1.0
C      1  0.4365190000000  0.3971630000000  0.4883290000000 1.0
C      1  0.4524250000000  0.4937380000000  0.3897060000000 1.0
C      1  0.4271290000000  0.4934250000000  0.5974960000000 1.0
C      1  0.6175840000000  0.4950700000000  0.5113520000000 1.0
C      1  0.4510710000000  0.5046670000000  0.6076770000000 1.0
C      1  0.4313100000000  0.5055690000000  0.4044600000000 1.0
C      1  0.6207620000000  0.5062730000000  0.4855130000000 1.0
C      1  0.4890590000000  0.4452320000000  0.4697180000000 1.0
C      1  0.4784760000000  0.4487570000000  0.5261740000000 1.0
C      1  0.5324590000000  0.4479470000000  0.5058500000000 1.0
C      1  0.4888020000000  0.5517540000000  0.5311360000000 1.0
C      1  0.4791630000000  0.5544370000000  0.4755260000000 1.0
C      1  0.5333440000000  0.5509460000000  0.4944300000000 1.0
C      1  0.4943070000000  0.5052330000000  0.3641850000000 1.0
C      1  0.3851210000000  0.5070160000000  0.5732220000000 1.0
C      1  0.6199000000000  0.5048170000000  0.5611930000000 1.0
C      1  0.4931180000000  0.4948820000000  0.6345220000000 1.0
C      1  0.3868830000000  0.4961570000000  0.4270660000000 1.0
C      1  0.6205840000000  0.4925910000000  0.4370200000000 1.0
C      1  0.4835760000000  0.4093640000000  0.4236180000000 1.0
C      1  0.4411070000000  0.4099810000000  0.5526740000000 1.0
C      1  0.5782160000000  0.4109790000000  0.5244940000000 1.0
C      1  0.4821440000000  0.5888260000000  0.5800520000000 1.0
C      1  0.4414610000000  0.5897330000000  0.4472350000000 1.0
C      1  0.5749650000000  0.5897320000000  0.4753740000000 1.0
C      1  0.4294090000000  0.5287190000000  0.4922420000000 1.0
C      1  0.5282780000000  0.5277920000000  0.5650620000000 1.0
C      1  0.5424260000000  0.5268990000000  0.4431440000000 1.0
C      1  0.4294790000000  0.4728130000000  0.5084480000000 1.0
C      1  0.5281110000000  0.4709810000000  0.4347560000000 1.0
C      1  0.5421570000000  0.4719290000000  0.5570170000000 1.0
C      1  0.5236180000000  0.5709980000000  0.4778740000000 1.0
C      1  0.4730990000000  0.5769920000000  0.4926700000000 1.0
C      1  0.5081220000000  0.5727290000000  0.5302850000000 1.0
C      1  0.5221250000000  0.4269770000000  0.5222000000000 1.0
C      1  0.4689540000000  0.4287190000000  0.5094940000000 1.0
C      1  0.5069250000000  0.4226780000000  0.4730950000000 1.0
C      1  0.4982510000000  0.4719630000000  0.4726250000000 1.0
C      1  0.4774850000000  0.4748280000000  0.5157150000000 1.0
C      1  0.5245810000000  0.4740470000000  0.5116090000000 1.0
C      1  0.4977460000000  0.5256690000000  0.5271790000000 1.0
C      1  0.4770850000000  0.5277120000000  0.4849900000000 1.0
C      1  0.5247730000000  0.5248520000000  0.4883480000000 1.0
C      1  0.5447680000000  0.5857430000000  0.4305290000000 1.0
C      1  0.4183520000000  0.5869420000000  0.4966750000000 1.0
C      1  0.5363600000000  0.5863030000000  0.5724400000000 1.0
C      1  0.5445610000000  0.4134280000000  0.5677000000000 1.0
C      1  0.4172780000000  0.4140750000000  0.5041020000000 1.0
C      1  0.5378590000000  0.4127050000000  0.4277370000000 1.0
C      1  0.5805460000000  0.5156230000000  0.4149700000000 1.0
C      1  0.3861430000000  0.5177550000000  0.4731940000000 1.0
C      1  0.5332420000000  0.5166730000000  0.6121490000000 1.0
C      1  0.5804960000000  0.4830360000000  0.5848160000000 1.0
C      1  0.3859900000000  0.4840670000000  0.5274750000000 1.0
C      1  0.5335260000000  0.4822620000000  0.3877870000000 1.0
C      1  0.5732580000000  0.5479560000000  0.4046420000000 1.0
C      1  0.3809540000000  0.5499720000000  0.4845840000000 1.0
C      1  0.5454940000000  0.5491820000000  0.6107910000000 1.0
C      1  0.5732100000000  0.4505410000000  0.5947600000000 1.0
C      1  0.3806090000000  0.4518470000000  0.5159170000000 1.0
C      1  0.5459510000000  0.4498140000000  0.3890710000000 1.0
C      1  0.3935050000000  0.4311600000000  0.4950360000000 1.0
C      1  0.5484770000000  0.4297230000000  0.5937050000000 1.0
C      1  0.5575960000000  0.4291850000000  0.4108880000000 1.0
C      1  0.3939550000000  0.5705280000000  0.5055430000000 1.0
C      1  0.5488340000000  0.5687800000000  0.4053840000000 1.0
C      1  0.5569280000000  0.5699980000000  0.5888240000000 1.0
C      1  0.4973470000000  0.5733920000000  0.3941890000000 1.0
C      1  0.4094150000000  0.5744330000000  0.5561490000000 1.0
C      1  0.5932320000000  0.5746560000000  0.5506320000000 1.0
C      1  0.4972510000000  0.4250450000000  0.6061030000000 1.0
C      1  0.4094980000000  0.4264230000000  0.4449570000000 1.0
C      1  0.5937430000000  0.4253920000000  0.4495490000000 1.0
C      1  0.6040260000000  0.5279540000000  0.4803410000000 1.0
C      1  0.4396320000000  0.5221690000000  0.4253480000000 1.0
C      1  0.4649690000000  0.5206600000000  0.5894560000000 1.0
C      1  0.5948050000000  0.4791530000000  0.5143030000000 1.0
C      1  0.4310650000000  0.4718110000000  0.5803410000000 1.0
C      1  0.4653960000000  0.4728990000000  0.4029460000000 1.0
C      1  0.4306850000000  0.5485770000000  0.4684370000000 1.0
C      1  0.5065290000000  0.5475110000000  0.5762410000000 1.0
C      1  0.5630530000000  0.5472700000000  0.4559220000000 1.0
C      1  0.4302260000000  0.4524430000000  0.5326750000000 1.0
C      1  0.5069400000000  0.4509510000000  0.4238230000000 1.0
C      1  0.5626940000000  0.4522380000000  0.5437400000000 1.0
C      1  0.4959860000000  0.3915300000000  0.5389390000000 1.0
C      1  0.5440130000000  0.3901410000000  0.4823100000000 1.0
C      1  0.4624390000000  0.3886060000000  0.4755700000000 1.0
C      1  0.4972910000000  0.6109750000000  0.4552780000000 1.0
C      1  0.5356220000000  0.6081950000000  0.5159910000000 1.0
C      1  0.4626020000000  0.6095510000000  0.5292420000000 1.0
C      1  0.5179480000000  0.4651240000000  0.5750380000000 1.0
C      1  0.5553890000000  0.4638550000000  0.4469850000000 1.0
C      1  0.4262980000000  0.4661830000000  0.4783220000000 1.0
C      1  0.5180560000000  0.5337260000000  0.4253110000000 1.0
C      1  0.5559720000000  0.5345940000000  0.5530650000000 1.0
C      1  0.4263870000000  0.5358030000000  0.5219300000000 1.0
C      1  0.4659800000000  0.5629040000000  0.5182950000000 1.0
C      1  0.5332710000000  0.5607700000000  0.5209100000000 1.0
C      1  0.5023560000000  0.5608700000000  0.4608990000000 1.0
C      1  0.4648340000000  0.4388360000000  0.4825890000000 1.0
C      1  0.5326680000000  0.4367930000000  0.4796690000000 1.0
C      1  0.5014560000000  0.4389320000000  0.5393210000000 1.0
C      1  0.5384250000000  0.4890200000000  0.4142700000000 1.0
C      1  0.4064790000000  0.4908100000000  0.5099980000000 1.0
C      1  0.5550690000000  0.4899250000000  0.5761010000000 1.0
C      1  0.5383760000000  0.5097890000000  0.5857660000000 1.0
C      1  0.4064380000000  0.5108160000000  0.4908510000000 1.0
C      1  0.5551710000000  0.5088680000000  0.4239780000000 1.0
C      1  0.5800210000000  0.5324400000000  0.5701070000000 1.0
C      1  0.5208300000000  0.5313680000000  0.3959620000000 1.0
C      1  0.3996480000000  0.5330640000000  0.5343620000000 1.0
C      1  0.5795940000000  0.4666700000000  0.4301270000000 1.0
C      1  0.5207210000000  0.4672710000000  0.6043820000000 1.0
C      1  0.3995420000000  0.4686730000000  0.4658910000000 1.0
C      1  0.4282130000000  0.5779880000000  0.4708110000000 1.0
C      1  0.5093010000000  0.5771300000000  0.5785130000000 1.0
C      1  0.5621670000000  0.5769630000000  0.4520430000000 1.0
C      1  0.4272430000000  0.4227790000000  0.5299550000000 1.0
C      1  0.5104550000000  0.4214340000000  0.4234920000000 1.0
C      1  0.5633180000000  0.4226280000000  0.5472790000000 1.0
C      1  0.5184190000000  0.5065930000000  0.3790380000000 1.0
C      1  0.3860810000000  0.5083690000000  0.5449380000000 1.0
C      1  0.5956960000000  0.5072200000000  0.5758250000000 1.0
C      1  0.5178670000000  0.4924860000000  0.6208310000000 1.0
C      1  0.3865280000000  0.4937640000000  0.4553310000000 1.0
C      1  0.5956060000000  0.4913150000000  0.4237210000000 1.0
C      1  0.4545500000000  0.5130250000000  0.4925370000000 1.0
C      1  0.5160650000000  0.5118800000000  0.5430160000000 1.0
C      1  0.5292940000000  0.5107940000000  0.4646400000000 1.0
C      1  0.4546710000000  0.4888960000000  0.5079400000000 1.0
C      1  0.5159050000000  0.4866890000000  0.4567600000000 1.0
C      1  0.5291450000000  0.4878250000000  0.5354180000000 1.0
C      1  0.5812200000000  0.4323640000000  0.4754080000000 1.0
C      1  0.4383170000000  0.4328140000000  0.4426600000000 1.0
C      1  0.4807910000000  0.4319760000000  0.5824880000000 1.0
C      1  0.5809890000000  0.5677190000000  0.5245880000000 1.0
C      1  0.4380810000000  0.5674750000000  0.5582830000000 1.0
C      1  0.4809250000000  0.5667270000000  0.4179130000000 1.0
C      1  0.4617890000000  0.5675030000000  0.5755000000000 1.0
C      1  0.5831950000000  0.5691130000000  0.4952400000000 1.0
C      1  0.4544650000000  0.5685430000000  0.4307220000000 1.0
C      1  0.4626230000000  0.4304390000000  0.4262550000000 1.0
C      1  0.5843170000000  0.4323150000000  0.5045490000000 1.0
C      1  0.4542550000000  0.4305870000000  0.5697270000000 1.0
C      1  0.5799970000000  0.4568230000000  0.5203280000000 1.0
C      1  0.4780350000000  0.4545170000000  0.4190120000000 1.0
C      1  0.4403290000000  0.4550360000000  0.5605480000000 1.0
C      1  0.5822030000000  0.5446780000000  0.4785630000000 1.0
C      1  0.4775990000000  0.5429760000000  0.5796220000000 1.0
C      1  0.4419820000000  0.5441370000000  0.4416680000000 1.0
C      1  0.4997260000000  0.5210620000000  0.4997760000000 1.0
C      1  0.4998360000000  0.4786250000000  0.4996320000000 1.0
END
