TITL C-3623286-7563-1332 11543.3613080313 125000 -768.459654361845 0 0 127 (C1) n - 1
REM
REM in /home/nfs/bkarasulu/CARBON/AIRSS/Generating-Clusters/LCBOP/Higher-Symm/SD-CG/FIRE-CG
REM
REM
REM
REM
REM
REM ./C.cell (b20cbc046b6831c77cfcea5457e17084)
REM AIRSS Version 0.9.1 bugfix July 2018 build 013d7b7c2542+ Fri, 06 Jul 2018 19:26:36 +0100
REM compiler GCC version 9.2.1 20190827 (Red Hat 9.2.1-1)
REM options -cpp -mtune=generic -march=x86-64 -g -O0 -fpre-include=/usr/include/finclude/math-vector-fortran.h
REM seed -1472313255 -1360956087 1451391330 943294340 1597655567 145913904 1507988726 -930135775 -2113410334 211978774 -601428812 1817888183 1077971043 1190297057 -926773719 -1291232887 29268698 -656412386 -166932312 13859183 107694681 122080078 -1310058403 1016909555 1210165310 -1200218552 -247969293 843953261 -927840796 -712095381 -1253910186 644801023 1708605334
REM
CELL 1.54180   50.00000   50.00000   50.00000   90.00000   90.00000   90.00000
LATT -1
SFAC C  
C      1  0.5630540000000  0.4488400000000  0.5231560000000 1.0
C      1  0.4270170000000  0.4710230000000  0.5234010000000 1.0
C      1  0.5124070000000  0.5771980000000  0.5227120000000 1.0
C      1  0.5627240000000  0.4329850000000  0.4636730000000 1.0
C      1  0.4083440000000  0.4786040000000  0.4644160000000 1.0
C      1  0.5306930000000  0.5917090000000  0.4649890000000 1.0
C      1  0.5339020000000  0.4847300000000  0.4570120000000 1.0
C      1  0.4630880000000  0.4687800000000  0.4584100000000 1.0
C      1  0.4998500000000  0.5546710000000  0.4540220000000 1.0
C      1  0.4837930000000  0.5353570000000  0.5687540000000 1.0
C      1  0.5357220000000  0.4919000000000  0.5759140000000 1.0
C      1  0.4802040000000  0.4724700000000  0.5771540000000 1.0
C      1  0.5274200000000  0.5868110000000  0.4345820000000 1.0
C      1  0.5607640000000  0.4377670000000  0.4344100000000 1.0
C      1  0.4136840000000  0.4776110000000  0.4349510000000 1.0
C      1  0.4628190000000  0.5233930000000  0.5496540000000 1.0
C      1  0.5390950000000  0.5201660000000  0.5512640000000 1.0
C      1  0.5011100000000  0.4551560000000  0.5516960000000 1.0
C      1  0.5624470000000  0.5239410000000  0.5876600000000 1.0
C      1  0.4911970000000  0.4299050000000  0.5856270000000 1.0
C      1  0.4449430000000  0.5450760000000  0.5855220000000 1.0
C      1  0.4363030000000  0.5344450000000  0.5412580000000 1.0
C      1  0.5618520000000  0.5383810000000  0.5435170000000 1.0
C      1  0.5041700000000  0.4265880000000  0.5424470000000 1.0
C      1  0.5271270000000  0.5641830000000  0.4141760000000 1.0
C      1  0.5410260000000  0.4468410000000  0.4143230000000 1.0
C      1  0.4328720000000  0.4891020000000  0.4155160000000 1.0
C      1  0.5552500000000  0.5629800000000  0.5037070000000 1.0
C      1  0.5280360000000  0.4206710000000  0.5025420000000 1.0
C      1  0.4195480000000  0.5147190000000  0.5020560000000 1.0
C      1  0.4212280000000  0.4474710000000  0.5083750000000 1.0
C      1  0.4952670000000  0.5949780000000  0.5085630000000 1.0
C      1  0.5847190000000  0.4581800000000  0.5068660000000 1.0
C      1  0.5125080000000  0.5521340000000  0.5079990000000 1.0
C      1  0.5407270000000  0.4622540000000  0.5099770000000 1.0
C      1  0.4492300000000  0.4825130000000  0.5081950000000 1.0
C      1  0.5372130000000  0.4757040000000  0.4093230000000 1.0
C      1  0.4594480000000  0.4766180000000  0.4107220000000 1.0
C      1  0.5027140000000  0.5469040000000  0.4093160000000 1.0
C      1  0.4163270000000  0.5151440000000  0.5321170000000 1.0
C      1  0.5555350000000  0.5653620000000  0.5339750000000 1.0
C      1  0.5305470000000  0.4170620000000  0.5326170000000 1.0
C      1  0.5021320000000  0.5213940000000  0.3972720000000 1.0
C      1  0.5159680000000  0.4874760000000  0.3955510000000 1.0
C      1  0.4804690000000  0.4904710000000  0.3982150000000 1.0
C      1  0.4563240000000  0.4118910000000  0.4925780000000 1.0
C      1  0.4481050000000  0.5808480000000  0.4920410000000 1.0
C      1  0.5942380000000  0.5060310000000  0.4920260000000 1.0
C      1  0.5601430000000  0.4797890000000  0.4720450000000 1.0
C      1  0.4436020000000  0.4485330000000  0.4681540000000 1.0
C      1  0.4874820000000  0.5763260000000  0.4670400000000 1.0
C      1  0.4558430000000  0.4232240000000  0.5417880000000 1.0
C      1  0.4543480000000  0.5797110000000  0.5414440000000 1.0
C      1  0.5900890000000  0.4995260000000  0.5419610000000 1.0
C      1  0.4398380000000  0.4253980000000  0.5151270000000 1.0
C      1  0.4665900000000  0.5903400000000  0.5147660000000 1.0
C      1  0.5939770000000  0.4849640000000  0.5145750000000 1.0
C      1  0.5140610000000  0.4612500000000  0.4598650000000 1.0
C      1  0.4607080000000  0.4982920000000  0.4583600000000 1.0
C      1  0.5221340000000  0.5378640000000  0.4592180000000 1.0
C      1  0.5860860000000  0.5272520000000  0.5331270000000 1.0
C      1  0.4815090000000  0.4123110000000  0.5323450000000 1.0
C      1  0.4336420000000  0.5611950000000  0.5316380000000 1.0
C      1  0.5526810000000  0.4325600000000  0.5445790000000 1.0
C      1  0.4199230000000  0.4887090000000  0.5452890000000 1.0
C      1  0.5303790000000  0.5755300000000  0.5455950000000 1.0
C      1  0.5018960000000  0.4227170000000  0.4349160000000 1.0
C      1  0.4372300000000  0.5341560000000  0.4372190000000 1.0
C      1  0.5634520000000  0.5389210000000  0.4366410000000 1.0
C      1  0.4347820000000  0.4858070000000  0.5711390000000 1.0
C      1  0.5187240000000  0.5657090000000  0.5707750000000 1.0
C      1  0.5489420000000  0.4463500000000  0.5703900000000 1.0
C      1  0.4912280000000  0.3769230000000  0.4984900000000 1.0
C      1  0.3999900000000  0.5683970000000  0.4953560000000 1.0
C      1  0.6108100000000  0.5526970000000  0.4978600000000 1.0
C      1  0.4138480000000  0.5056960000000  0.4749770000000 1.0
C      1  0.5514020000000  0.5730930000000  0.4764040000000 1.0
C      1  0.5377170000000  0.4205900000000  0.4745900000000 1.0
C      1  0.4740790000000  0.4976560000000  0.5403840000000 1.0
C      1  0.5128330000000  0.5225420000000  0.5398730000000 1.0
C      1  0.5148680000000  0.4773380000000  0.5413070000000 1.0
C      1  0.4668080000000  0.4566620000000  0.4302870000000 1.0
C      1  0.4830340000000  0.5511090000000  0.4300780000000 1.0
C      1  0.5479990000000  0.4922900000000  0.4299930000000 1.0
C      1  0.5293220000000  0.5379070000000  0.5894920000000 1.0
C      1  0.5224860000000  0.4455240000000  0.5880830000000 1.0
C      1  0.4478500000000  0.5100720000000  0.5881070000000 1.0
C      1  0.5047610000000  0.5948790000000  0.4802740000000 1.0
C      1  0.5732970000000  0.4551670000000  0.4792410000000 1.0
C      1  0.4187450000000  0.4554880000000  0.4797980000000 1.0
C      1  0.5170710000000  0.4479210000000  0.5035680000000 1.0
C      1  0.4487370000000  0.5104690000000  0.5016010000000 1.0
C      1  0.5375350000000  0.5391710000000  0.5021770000000 1.0
C      1  0.5179900000000  0.4292310000000  0.4117020000000 1.0
C      1  0.4318100000000  0.5182120000000  0.4136750000000 1.0
C      1  0.5528220000000  0.5505560000000  0.4126840000000 1.0
C      1  0.4919570000000  0.4623150000000  0.5016710000000 1.0
C      1  0.4718520000000  0.5263360000000  0.5049120000000 1.0
C      1  0.5395260000000  0.5110100000000  0.5069700000000 1.0
C      1  0.4788890000000  0.4984690000000  0.5923780000000 1.0
C      1  0.4982130000000  0.5202300000000  0.5888470000000 1.0
C      1  0.5208040000000  0.4748390000000  0.5944800000000 1.0
C      1  0.5789370000000  0.5017520000000  0.4676050000000 1.0
C      1  0.4573400000000  0.4226480000000  0.4651430000000 1.0
C      1  0.4586810000000  0.5735540000000  0.4662520000000 1.0
C      1  0.4595520000000  0.4343150000000  0.5684650000000 1.0
C      1  0.4619150000000  0.5728470000000  0.5685400000000 1.0
C      1  0.5787220000000  0.4964740000000  0.5687560000000 1.0
C      1  0.4956900000000  0.5331910000000  0.5185760000000 1.0
C      1  0.5337100000000  0.4865070000000  0.5208050000000 1.0
C      1  0.4741140000000  0.4770890000000  0.5190670000000 1.0
C      1  0.5151780000000  0.5103950000000  0.4603530000000 1.0
C      1  0.4891680000000  0.4657780000000  0.4735400000000 1.0
C      1  0.4871110000000  0.5080290000000  0.4587480000000 1.0
C      1  0.5696550000000  0.5110640000000  0.4401730000000 1.0
C      1  0.4735960000000  0.4280510000000  0.4386570000000 1.0
C      1  0.4554320000000  0.5559440000000  0.4411780000000 1.0
C      1  0.4371360000000  0.5148430000000  0.4584170000000 1.0
C      1  0.5487170000000  0.5491600000000  0.4588280000000 1.0
C      1  0.5175870000000  0.4323890000000  0.4568790000000 1.0
C      1  0.5597240000000  0.4754370000000  0.5716500000000 1.0
C      1  0.4533990000000  0.4619000000000  0.5733890000000 1.0
C      1  0.4889070000000  0.5635900000000  0.5706540000000 1.0
C      1  0.5970120000000  0.5310140000000  0.5067130000000 1.0
C      1  0.4782810000000  0.3993000000000  0.5069100000000 1.0
C      1  0.4252740000000  0.5689260000000  0.5052430000000 1.0
C      1  0.5005120000000  0.4994090000000  0.5478810000000 1.0
END
