TITL C-3623285-6872-932 4.38049843425363e-07 125000 -604.26310283606 0 0 104 (C1) n - 1
REM
REM in /home/nfs/bkarasulu/CARBON/AIRSS/Generating-Clusters/LCBOP/Higher-Symm/SD-CG/FIRE-CG
REM
REM
REM
REM
REM
REM ./C.cell (b20cbc046b6831c77cfcea5457e17084)
REM AIRSS Version 0.9.1 bugfix July 2018 build 013d7b7c2542+ Fri, 06 Jul 2018 19:26:36 +0100
REM compiler GCC version 9.2.1 20190827 (Red Hat 9.2.1-1)
REM options -cpp -mtune=generic -march=x86-64 -g -O0 -fpre-include=/usr/include/finclude/math-vector-fortran.h
REM seed 1360031863 -263138278 -1023803226 -56770313 733843289 -627035968 -711277826 -1045000767 -124158745 481752068 849223102 1953128106 1133449811 640631369 -868640454 1843354306 213632318 112078629 -1381912963 -639361956 -2101441515 1273180432 -1196030942 1531524212 755660365 -695925946 -1069252703 1040075451 -1039457513 -1123315042 371842967 -2056945506 1281909412
REM
CELL 1.54180   50.00000   50.00000   50.00000   90.00000   90.00000   90.00000
LATT -1
SFAC C  
C      1  0.5365560000000  0.4215240000000  0.5244620000000 1.0
C      1  0.5344640000000  0.5456470000000  0.4103330000000 1.0
C      1  0.4122830000000  0.5309930000000  0.5385110000000 1.0
C      1  0.4605830000000  0.4085450000000  0.4755490000000 1.0
C      1  0.5438090000000  0.5912360000000  0.4699760000000 1.0
C      1  0.4613810000000  0.5893570000000  0.5330840000000 1.0
C      1  0.4722770000000  0.5360520000000  0.5867530000000 1.0
C      1  0.5319370000000  0.4581750000000  0.5846740000000 1.0
C      1  0.4693780000000  0.4589250000000  0.4175990000000 1.0
C      1  0.5858260000000  0.5272420000000  0.4604790000000 1.0
C      1  0.4092500000000  0.4645510000000  0.4627570000000 1.0
C      1  0.5909230000000  0.4693690000000  0.5444010000000 1.0
C      1  0.5342550000000  0.5795150000000  0.5268450000000 1.0
C      1  0.5239890000000  0.4612530000000  0.4121010000000 1.0
C      1  0.4120000000000  0.4719100000000  0.5362470000000 1.0
C      1  0.4639520000000  0.5832460000000  0.4722180000000 1.0
C      1  0.5406860000000  0.4143540000000  0.4717340000000 1.0
C      1  0.4575230000000  0.4099510000000  0.5330820000000 1.0
C      1  0.4726950000000  0.4643920000000  0.5842810000000 1.0
C      1  0.5329780000000  0.5421610000000  0.5886320000000 1.0
C      1  0.4787240000000  0.5379860000000  0.4175400000000 1.0
C      1  0.5895570000000  0.4723390000000  0.4513660000000 1.0
C      1  0.4165180000000  0.5290870000000  0.4569760000000 1.0
C      1  0.5920750000000  0.5327600000000  0.5451660000000 1.0
C      1  0.5673200000000  0.5495870000000  0.4705100000000 1.0
C      1  0.4668180000000  0.5750830000000  0.5583340000000 1.0
C      1  0.5516230000000  0.4728650000000  0.5695170000000 1.0
C      1  0.4341870000000  0.5504710000000  0.5296940000000 1.0
C      1  0.5719250000000  0.4528500000000  0.5296790000000 1.0
C      1  0.4228110000000  0.4388730000000  0.4689540000000 1.0
C      1  0.5385410000000  0.5793070000000  0.4439920000000 1.0
C      1  0.4708980000000  0.4285730000000  0.4554470000000 1.0
C      1  0.5223170000000  0.4436070000000  0.5390110000000 1.0
C      1  0.4500390000000  0.4674670000000  0.4390760000000 1.0
C      1  0.5593580000000  0.5385990000000  0.4228890000000 1.0
C      1  0.4502430000000  0.5278760000000  0.5678510000000 1.0
C      1  0.5712490000000  0.4530840000000  0.4667480000000 1.0
C      1  0.4652690000000  0.4257980000000  0.5562660000000 1.0
C      1  0.5541330000000  0.5298650000000  0.5730100000000 1.0
C      1  0.4329610000000  0.4515420000000  0.5264690000000 1.0
C      1  0.5726280000000  0.5510080000000  0.5325910000000 1.0
C      1  0.4364100000000  0.5415350000000  0.4759750000000 1.0
C      1  0.5282800000000  0.4311350000000  0.4496690000000 1.0
C      1  0.4815000000000  0.5617210000000  0.4606390000000 1.0
C      1  0.5230130000000  0.5568840000000  0.5433350000000 1.0
C      1  0.4630910000000  0.5205590000000  0.4369630000000 1.0
C      1  0.5442210000000  0.4732930000000  0.4314970000000 1.0
C      1  0.4509400000000  0.4735250000000  0.5652620000000 1.0
C      1  0.4411280000000  0.5761830000000  0.5151420000000 1.0
C      1  0.5134080000000  0.4417270000000  0.5686000000000 1.0
C      1  0.5749370000000  0.5169550000000  0.4346860000000 1.0
C      1  0.5626490000000  0.5756100000000  0.4871890000000 1.0
C      1  0.4355170000000  0.4193060000000  0.4876450000000 1.0
C      1  0.5624450000000  0.4305450000000  0.5132630000000 1.0
C      1  0.4846180000000  0.4349390000000  0.4270250000000 1.0
C      1  0.5196500000000  0.5662720000000  0.4256310000000 1.0
C      1  0.4857310000000  0.5606500000000  0.5766230000000 1.0
C      1  0.4216220000000  0.5151030000000  0.5622140000000 1.0
C      1  0.5778450000000  0.4864380000000  0.5653500000000 1.0
C      1  0.4241820000000  0.4824580000000  0.4433640000000 1.0
C      1  0.4375360000000  0.4235050000000  0.5153980000000 1.0
C      1  0.5138070000000  0.5582770000000  0.5727390000000 1.0
C      1  0.5718080000000  0.4888550000000  0.4332980000000 1.0
C      1  0.5636790000000  0.4286100000000  0.4848240000000 1.0
C      1  0.4411630000000  0.5714750000000  0.4870130000000 1.0
C      1  0.5609340000000  0.5728120000000  0.5155690000000 1.0
C      1  0.4928350000000  0.5600590000000  0.4318810000000 1.0
C      1  0.5127200000000  0.4354240000000  0.4229820000000 1.0
C      1  0.4854010000000  0.4394650000000  0.5736820000000 1.0
C      1  0.4223440000000  0.4868070000000  0.5602990000000 1.0
C      1  0.5791840000000  0.5150650000000  0.5664470000000 1.0
C      1  0.4280740000000  0.5097360000000  0.4396190000000 1.0
C      1  0.4670480000000  0.4784510000000  0.4640470000000 1.0
C      1  0.4517940000000  0.4898510000000  0.4898490000000 1.0
C      1  0.4842080000000  0.4529580000000  0.4736310000000 1.0
C      1  0.4968140000000  0.4850470000000  0.5368530000000 1.0
C      1  0.4638560000000  0.5157580000000  0.5430280000000 1.0
C      1  0.5101880000000  0.5048980000000  0.4593760000000 1.0
C      1  0.5572130000000  0.4903170000000  0.5014870000000 1.0
C      1  0.4583850000000  0.5320290000000  0.5183580000000 1.0
C      1  0.5445710000000  0.5327830000000  0.4823230000000 1.0
C      1  0.5025980000000  0.4600890000000  0.5237400000000 1.0
C      1  0.4865750000000  0.5432830000000  0.5089660000000 1.0
C      1  0.5179640000000  0.5293210000000  0.4729490000000 1.0
C      1  0.4825860000000  0.5009300000000  0.4508120000000 1.0
C      1  0.4451250000000  0.5179990000000  0.4949840000000 1.0
C      1  0.4976970000000  0.5476840000000  0.4822780000000 1.0
C      1  0.5031210000000  0.5115370000000  0.5387620000000 1.0
C      1  0.4656870000000  0.4863500000000  0.5407710000000 1.0
C      1  0.5284750000000  0.4806510000000  0.4594400000000 1.0
C      1  0.5525150000000  0.5162950000000  0.5035600000000 1.0
C      1  0.4556690000000  0.4706840000000  0.5139370000000 1.0
C      1  0.5521820000000  0.4752390000000  0.4791500000000 1.0
C      1  0.5060690000000  0.5370130000000  0.5290410000000 1.0
C      1  0.4816760000000  0.4547930000000  0.5043640000000 1.0
C      1  0.5129290000000  0.4543080000000  0.4651260000000 1.0
C      1  0.4601150000000  0.5408950000000  0.4577090000000 1.0
C      1  0.4444690000000  0.4460560000000  0.5546140000000 1.0
C      1  0.5545190000000  0.4453060000000  0.4419350000000 1.0
C      1  0.4443310000000  0.5565780000000  0.5577860000000 1.0
C      1  0.5468570000000  0.4619620000000  0.5427130000000 1.0
C      1  0.5609610000000  0.5604940000000  0.4427840000000 1.0
C      1  0.5490260000000  0.5422850000000  0.5473520000000 1.0
C      1  0.4430150000000  0.4398570000000  0.4484510000000 1.0
END
