TITL C-3623288-6813-1032 4.42729761567435e-08 125000 -31.1856428631267 0 0 6 (D(inf)h) n - 1
REM
REM in /home/nfs/bkarasulu/CARBON/AIRSS/Generating-Clusters/LCBOP/Higher-Symm/SD-CG/FIRE-CG
REM
REM
REM
REM
REM
REM ./C.cell (b20cbc046b6831c77cfcea5457e17084)
REM AIRSS Version 0.9.1 bugfix July 2018 build 013d7b7c2542+ Fri, 06 Jul 2018 19:26:36 +0100
REM compiler GCC version 9.2.1 20190827 (Red Hat 9.2.1-1)
REM options -cpp -mtune=generic -march=x86-64 -g -O0 -fpre-include=/usr/include/finclude/math-vector-fortran.h
REM seed -864231847 -286676000 -370258 265858017 -272903263 1501080268 1939109298 616288267 1358623359 1728497644 1077632598 392019330 -970196706 -1489835609 1248196415 -1470255908 -1549257518 1330384179 -2025926979 -1433727269 606293513 -1118065366 -351973759 1918792281 2071534094 596787299 -720949931 -727171271 -1134761910 -2039648501 -782296185 288020793 1281361063
REM
CELL 1.54180   50.00000   50.00000   50.00000   90.00000   90.00000   90.00000
LATT -1
SFAC C  
C      1  0.5028390000000  0.4994120000000  0.5132500000000 1.0
C      1  0.5028390000000  0.4994120000000  0.4341740000000 1.0
C      1  0.5028390000000  0.4994120000000  0.5397560000000 1.0
C      1  0.5028390000000  0.4994120000000  0.5658260000000 1.0
C      1  0.5028390000000  0.4994120000000  0.4602440000000 1.0
C      1  0.5028390000000  0.4994120000000  0.4867500000000 1.0
END
