TITL C-3623286-7563-1005 4.58795251223067e-07 125000 -483.29379206651 0 0 81 (Cs) n - 1
REM
REM in /home/nfs/bkarasulu/CARBON/AIRSS/Generating-Clusters/LCBOP/Higher-Symm/SD-CG/FIRE-CG
REM
REM
REM
REM
REM
REM ./C.cell (b20cbc046b6831c77cfcea5457e17084)
REM AIRSS Version 0.9.1 bugfix July 2018 build 013d7b7c2542+ Fri, 06 Jul 2018 19:26:36 +0100
REM compiler GCC version 9.2.1 20190827 (Red Hat 9.2.1-1)
REM options -cpp -mtune=generic -march=x86-64 -g -O0 -fpre-include=/usr/include/finclude/math-vector-fortran.h
REM seed 575037324 2030700814 -380119991 1718378864 1256761042 934644460 639958154 -67661160 2142425439 -1197868150 2061904811 2008572734 454712350 -684608542 -1513790356 1054202884 1520492230 1218361546 -1150177609 662925243 -2025020268 1149196450 1863549514 957860496 -7297621 -1156922491 1001881878 -1401582804 1741703595 183518304 1079655335 1441233315 1805966466
REM
CELL 1.54180   50.00000   50.00000   50.00000   90.00000   90.00000   90.00000
LATT -1
SFAC C  
C      1  0.5681250000000  0.5214960000000  0.4695790000000 1.0
C      1  0.5669590000000  0.5150400000000  0.5269500000000 1.0
C      1  0.5718710000000  0.4616560000000  0.5054500000000 1.0
C      1  0.4322080000000  0.5214980000000  0.4695810000000 1.0
C      1  0.4333750000000  0.5150420000000  0.5269510000000 1.0
C      1  0.4284610000000  0.4616580000000  0.5054510000000 1.0
C      1  0.4780610000000  0.5098660000000  0.5294660000000 1.0
C      1  0.4731900000000  0.4532680000000  0.4967890000000 1.0
C      1  0.4775170000000  0.5289200000000  0.4690740000000 1.0
C      1  0.5222730000000  0.5098660000000  0.5294660000000 1.0
C      1  0.5271430000000  0.4532670000000  0.4967880000000 1.0
C      1  0.5228160000000  0.5289190000000  0.4690740000000 1.0
C      1  0.5149100000000  0.5370530000000  0.5371110000000 1.0
C      1  0.5147280000000  0.4312920000000  0.5104070000000 1.0
C      1  0.5150220000000  0.5259420000000  0.4411730000000 1.0
C      1  0.4854250000000  0.5370530000000  0.5371110000000 1.0
C      1  0.4856050000000  0.4312930000000  0.5104070000000 1.0
C      1  0.4853110000000  0.5259430000000  0.4411730000000 1.0
C      1  0.5137780000000  0.4026520000000  0.4489680000000 1.0
C      1  0.5138800000000  0.5971060000000  0.4413590000000 1.0
C      1  0.5138770000000  0.5114540000000  0.6033770000000 1.0
C      1  0.4865530000000  0.4026530000000  0.4489680000000 1.0
C      1  0.4864540000000  0.5971060000000  0.4413600000000 1.0
C      1  0.4864590000000  0.5114540000000  0.6033770000000 1.0
C      1  0.4286370000000  0.4984600000000  0.5500110000000 1.0
C      1  0.4198530000000  0.4606090000000  0.4782250000000 1.0
C      1  0.4267880000000  0.5488270000000  0.4769650000000 1.0
C      1  0.5716970000000  0.4984580000000  0.5500100000000 1.0
C      1  0.5804800000000  0.4606080000000  0.4782240000000 1.0
C      1  0.5735460000000  0.5488250000000  0.4769630000000 1.0
C      1  0.5682920000000  0.5436560000000  0.5236180000000 1.0
C      1  0.5751970000000  0.4545700000000  0.5330810000000 1.0
C      1  0.5745000000000  0.5005050000000  0.4518890000000 1.0
C      1  0.4320420000000  0.5436570000000  0.5236190000000 1.0
C      1  0.4251360000000  0.4545710000000  0.5330820000000 1.0
C      1  0.4258320000000  0.5005060000000  0.4518900000000 1.0
C      1  0.5259870000000  0.5716770000000  0.4465210000000 1.0
C      1  0.5258610000000  0.5157780000000  0.5777500000000 1.0
C      1  0.5296150000000  0.4141800000000  0.4695240000000 1.0
C      1  0.4743460000000  0.5716770000000  0.4465210000000 1.0
C      1  0.4744740000000  0.5157780000000  0.5777500000000 1.0
C      1  0.4707160000000  0.4141800000000  0.4695240000000 1.0
C      1  0.4566480000000  0.5030430000000  0.5102100000000 1.0
C      1  0.4554240000000  0.4732140000000  0.5054160000000 1.0
C      1  0.4574280000000  0.5159270000000  0.4830710000000 1.0
C      1  0.5436860000000  0.5030420000000  0.5102090000000 1.0
C      1  0.5449090000000  0.4732130000000  0.5054150000000 1.0
C      1  0.5429050000000  0.5159270000000  0.4830700000000 1.0
C      1  0.5323780000000  0.4686090000000  0.5588260000000 1.0
C      1  0.5387300000000  0.4629090000000  0.4507560000000 1.0
C      1  0.5321120000000  0.5697850000000  0.4978870000000 1.0
C      1  0.4679560000000  0.4686090000000  0.5588270000000 1.0
C      1  0.4616010000000  0.4629090000000  0.4507570000000 1.0
C      1  0.4682220000000  0.5697860000000  0.4978880000000 1.0
C      1  0.5139160000000  0.4473830000000  0.5644150000000 1.0
C      1  0.5140110000000  0.4718230000000  0.4380940000000 1.0
C      1  0.5139230000000  0.5843920000000  0.5146330000000 1.0
C      1  0.4864170000000  0.4473830000000  0.5644160000000 1.0
C      1  0.4863210000000  0.4718230000000  0.4380940000000 1.0
C      1  0.4864130000000  0.5843930000000  0.5146340000000 1.0
C      1  0.4769820000000  0.4052400000000  0.4970890000000 1.0
C      1  0.4771320000000  0.5505890000000  0.4256370000000 1.0
C      1  0.4771720000000  0.5427450000000  0.5656070000000 1.0
C      1  0.5233490000000  0.4052400000000  0.4970890000000 1.0
C      1  0.5232000000000  0.5505890000000  0.4256360000000 1.0
C      1  0.5231630000000  0.5427450000000  0.5656060000000 1.0
C      1  0.5328950000000  0.4427040000000  0.4699730000000 1.0
C      1  0.5167720000000  0.5590330000000  0.4740720000000 1.0
C      1  0.5167910000000  0.4944260000000  0.5561120000000 1.0
C      1  0.4674370000000  0.4427050000000  0.4699740000000 1.0
C      1  0.4835620000000  0.5590330000000  0.4740720000000 1.0
C      1  0.4835430000000  0.4944270000000  0.5561120000000 1.0
C      1  0.4406610000000  0.5591170000000  0.5007510000000 1.0
C      1  0.4390830000000  0.4712840000000  0.5523780000000 1.0
C      1  0.4341110000000  0.4733640000000  0.4556820000000 1.0
C      1  0.5596730000000  0.5591160000000  0.5007500000000 1.0
C      1  0.5612510000000  0.4712830000000  0.5523770000000 1.0
C      1  0.5662210000000  0.4733630000000  0.4556800000000 1.0
C      1  0.5001660000000  0.3881380000000  0.4999840000000 1.0
C      1  0.5001680000000  0.5575780000000  0.5761330000000 1.0
C      1  0.5001660000000  0.5550940000000  0.4080900000000 1.0
END
