TITL C-3623287-7182-7 2951.20390342552 125000 -563.766521945278 0 0 92 (C1) n - 1
REM
REM in /home/nfs/bkarasulu/CARBON/AIRSS/Generating-Clusters/LCBOP/Higher-Symm/SD-CG/FIRE-CG
REM
REM
REM
REM
REM
REM ./C.cell (b20cbc046b6831c77cfcea5457e17084)
REM AIRSS Version 0.9.1 bugfix July 2018 build 013d7b7c2542+ Fri, 06 Jul 2018 19:26:36 +0100
REM compiler GCC version 9.2.1 20190827 (Red Hat 9.2.1-1)
REM options -cpp -mtune=generic -march=x86-64 -g -O0 -fpre-include=/usr/include/finclude/math-vector-fortran.h
REM seed -1387411075 1372349900 408376110 1181935627 1001097346 1694501278 -1469527101 1789744077 2122052057 -1754008249 -651415718 -424410884 -1932553311 1617698429 796092451 -1292974398 -541369303 -1875513213 677767041 1293973774 -841041205 -344138323 2009253566 302652906 -132763139 996552340 -1862250780 -1331124253 255921388 -923439671 -1175639706 1612202847 -1948925710
REM
CELL 1.54180   50.00000   50.00000   50.00000   90.00000   90.00000   90.00000
LATT -1
SFAC C  
C      1  0.5625630000000  0.4594430000000  0.5357680000000 1.0
C      1  0.4855810000000  0.4288160000000  0.5333340000000 1.0
C      1  0.4319630000000  0.4853020000000  0.5410820000000 1.0
C      1  0.4747490000000  0.5721840000000  0.5343750000000 1.0
C      1  0.5492870000000  0.5485480000000  0.5340210000000 1.0
C      1  0.5607990000000  0.4662000000000  0.4673060000000 1.0
C      1  0.4844430000000  0.4295390000000  0.4649400000000 1.0
C      1  0.4269910000000  0.4906400000000  0.4679490000000 1.0
C      1  0.4671420000000  0.5653150000000  0.4646680000000 1.0
C      1  0.5637990000000  0.5484920000000  0.4659600000000 1.0
C      1  0.4416200000000  0.5520370000000  0.4687820000000 1.0
C      1  0.5515390000000  0.5742260000000  0.4710260000000 1.0
C      1  0.5659120000000  0.4924480000000  0.4774880000000 1.0
C      1  0.5117630000000  0.4325540000000  0.4749270000000 1.0
C      1  0.4369690000000  0.4646400000000  0.4787150000000 1.0
C      1  0.4467650000000  0.5669780000000  0.5296280000000 1.0
C      1  0.5265040000000  0.5606590000000  0.5208460000000 1.0
C      1  0.5841900000000  0.4776800000000  0.5318350000000 1.0
C      1  0.5123530000000  0.4325890000000  0.5250780000000 1.0
C      1  0.4431740000000  0.4574730000000  0.5419010000000 1.0
C      1  0.5782750000000  0.5365840000000  0.4899490000000 1.0
C      1  0.5621410000000  0.4443290000000  0.4859720000000 1.0
C      1  0.4651880000000  0.4218730000000  0.4859720000000 1.0
C      1  0.4201510000000  0.5094730000000  0.4907510000000 1.0
C      1  0.4750310000000  0.5840150000000  0.4851740000000 1.0
C      1  0.5721030000000  0.5471400000000  0.5164400000000 1.0
C      1  0.5593620000000  0.4394090000000  0.5146870000000 1.0
C      1  0.4650710000000  0.4227130000000  0.5147420000000 1.0
C      1  0.4181760000000  0.4964220000000  0.5175210000000 1.0
C      1  0.4887760000000  0.5857010000000  0.5106950000000 1.0
C      1  0.5155290000000  0.5446920000000  0.4116260000000 1.0
C      1  0.5278850000000  0.4988760000000  0.4113400000000 1.0
C      1  0.5133500000000  0.4531360000000  0.4113470000000 1.0
C      1  0.4775000000000  0.4851680000000  0.4087030000000 1.0
C      1  0.4658700000000  0.5316130000000  0.4120790000000 1.0
C      1  0.5089340000000  0.5332070000000  0.5921040000000 1.0
C      1  0.5306130000000  0.4946030000000  0.5918330000000 1.0
C      1  0.5087570000000  0.4522190000000  0.5876340000000 1.0
C      1  0.4761910000000  0.4878920000000  0.5935790000000 1.0
C      1  0.4615450000000  0.5341780000000  0.5905400000000 1.0
C      1  0.5950910000000  0.4955020000000  0.5145500000000 1.0
C      1  0.5359200000000  0.4196840000000  0.5141910000000 1.0
C      1  0.4396850000000  0.4378710000000  0.5202810000000 1.0
C      1  0.4292820000000  0.5527590000000  0.5147580000000 1.0
C      1  0.5183910000000  0.5850100000000  0.5082750000000 1.0
C      1  0.5859120000000  0.5080850000000  0.4906760000000 1.0
C      1  0.5328670000000  0.4170140000000  0.4851660000000 1.0
C      1  0.4302530000000  0.4416570000000  0.4935130000000 1.0
C      1  0.4272710000000  0.5384160000000  0.4900290000000 1.0
C      1  0.5346050000000  0.5899420000000  0.4853940000000 1.0
C      1  0.5360780000000  0.5258020000000  0.4200300000000 1.0
C      1  0.5335080000000  0.4718800000000  0.4204620000000 1.0
C      1  0.4855680000000  0.4583400000000  0.4178790000000 1.0
C      1  0.4571370000000  0.5044560000000  0.4185460000000 1.0
C      1  0.4885910000000  0.5467270000000  0.4212220000000 1.0
C      1  0.5343970000000  0.5229810000000  0.5814410000000 1.0
C      1  0.5317440000000  0.4685340000000  0.5806930000000 1.0
C      1  0.4813450000000  0.4607260000000  0.5826810000000 1.0
C      1  0.4563680000000  0.5068140000000  0.5830630000000 1.0
C      1  0.4861490000000  0.5462060000000  0.5817090000000 1.0
C      1  0.4813380000000  0.4771010000000  0.4620130000000 1.0
C      1  0.4695480000000  0.5049750000000  0.4618500000000 1.0
C      1  0.5062570000000  0.5344470000000  0.4643720000000 1.0
C      1  0.5198460000000  0.5083770000000  0.4659240000000 1.0
C      1  0.5108720000000  0.4800860000000  0.4654460000000 1.0
C      1  0.4875780000000  0.4776270000000  0.5411570000000 1.0
C      1  0.4725770000000  0.5107540000000  0.5379840000000 1.0
C      1  0.4969100000000  0.5274670000000  0.5376000000000 1.0
C      1  0.5224320000000  0.5087720000000  0.5371310000000 1.0
C      1  0.5159830000000  0.4791060000000  0.5368920000000 1.0
C      1  0.4452820000000  0.5017280000000  0.4459970000000 1.0
C      1  0.4883770000000  0.5520810000000  0.4489730000000 1.0
C      1  0.5551790000000  0.5349640000000  0.4407690000000 1.0
C      1  0.5424990000000  0.4674300000000  0.4459790000000 1.0
C      1  0.4789510000000  0.4514090000000  0.4447730000000 1.0
C      1  0.4491750000000  0.5042510000000  0.5555260000000 1.0
C      1  0.4871510000000  0.5525120000000  0.5536330000000 1.0
C      1  0.5414040000000  0.5271560000000  0.5538890000000 1.0
C      1  0.5398290000000  0.4672380000000  0.5529600000000 1.0
C      1  0.4725570000000  0.4559720000000  0.5538110000000 1.0
C      1  0.4652650000000  0.4673780000000  0.4851670000000 1.0
C      1  0.4717230000000  0.5189110000000  0.4869820000000 1.0
C      1  0.4937980000000  0.5358380000000  0.4898720000000 1.0
C      1  0.5417010000000  0.5066100000000  0.4838000000000 1.0
C      1  0.5150070000000  0.4598100000000  0.4858840000000 1.0
C      1  0.4714610000000  0.4784670000000  0.5089850000000 1.0
C      1  0.4651290000000  0.5056640000000  0.5100150000000 1.0
C      1  0.5052410000000  0.5426740000000  0.5135460000000 1.0
C      1  0.5364390000000  0.5103480000000  0.5105440000000 1.0
C      1  0.5165570000000  0.4599600000000  0.5138230000000 1.0
C      1  0.4991910000000  0.5007550000000  0.6046540000000 1.0
C      1  0.5015230000000  0.4984120000000  0.3983680000000 1.0
END
