TITL C-3623288-6813-1457 0.448179474445556 125000 -199.376634702614 0 0 37 (C1) n - 1
REM
REM in /home/nfs/bkarasulu/CARBON/AIRSS/Generating-Clusters/LCBOP/Higher-Symm/SD-CG/FIRE-CG
REM
REM
REM
REM
REM
REM ./C.cell (b20cbc046b6831c77cfcea5457e17084)
REM AIRSS Version 0.9.1 bugfix July 2018 build 013d7b7c2542+ Fri, 06 Jul 2018 19:26:36 +0100
REM compiler GCC version 9.2.1 20190827 (Red Hat 9.2.1-1)
REM options -cpp -mtune=generic -march=x86-64 -g -O0 -fpre-include=/usr/include/finclude/math-vector-fortran.h
REM seed -1485430884 -70542852 -1919097256 -727976563 575766611 148645962 1181874015 110391642 1726923049 -605904661 -954960279 2030817671 -1744138313 253156628 -1378583736 -854397495 1379373836 740896046 119175895 -81524489 344244054 -1494064780 -633471019 88849310 -1021506942 -945303267 1908217830 2075659762 1484705057 307454818 -2066593476 -476640061 1757760407
REM
CELL 1.54180   50.00000   50.00000   50.00000   90.00000   90.00000   90.00000
LATT -1
SFAC C  
C      1  0.4568470000000  0.4335250000000  0.5236820000000 1.0
C      1  0.5547000000000  0.5595840000000  0.5119260000000 1.0
C      1  0.4242750000000  0.4676290000000  0.4696500000000 1.0
C      1  0.5598570000000  0.4892380000000  0.4940390000000 1.0
C      1  0.4791760000000  0.4307340000000  0.5097070000000 1.0
C      1  0.5641490000000  0.5507400000000  0.5350370000000 1.0
C      1  0.5031650000000  0.4918130000000  0.4154440000000 1.0
C      1  0.4893080000000  0.5285480000000  0.5484110000000 1.0
C      1  0.4859150000000  0.4871910000000  0.4369110000000 1.0
C      1  0.5009510000000  0.5170630000000  0.5257850000000 1.0
C      1  0.4935430000000  0.4691640000000  0.3674030000000 1.0
C      1  0.5056720000000  0.5771460000000  0.5652650000000 1.0
C      1  0.4482890000000  0.4769410000000  0.4656690000000 1.0
C      1  0.5350660000000  0.4955170000000  0.4990520000000 1.0
C      1  0.5863890000000  0.5476070000000  0.4309060000000 1.0
C      1  0.4146300000000  0.4789460000000  0.5962260000000 1.0
C      1  0.4304110000000  0.4565640000000  0.5567890000000 1.0
C      1  0.5524680000000  0.5555310000000  0.4639240000000 1.0
C      1  0.5758070000000  0.5296130000000  0.5817270000000 1.0
C      1  0.5206860000000  0.4283010000000  0.4775810000000 1.0
C      1  0.4315120000000  0.4779620000000  0.5747410000000 1.0
C      1  0.5613430000000  0.5427060000000  0.4407270000000 1.0
C      1  0.4977820000000  0.5535820000000  0.5574110000000 1.0
C      1  0.4982000000000  0.4801050000000  0.3905950000000 1.0
C      1  0.4108520000000  0.4215680000000  0.5304240000000 1.0
C      1  0.5190940000000  0.5806160000000  0.4875860000000 1.0
C      1  0.5418770000000  0.5654870000000  0.4877930000000 1.0
C      1  0.4324600000000  0.4370290000000  0.5369100000000 1.0
C      1  0.4743060000000  0.4864740000000  0.4622940000000 1.0
C      1  0.5083630000000  0.5026620000000  0.5030620000000 1.0
C      1  0.4501520000000  0.4983420000000  0.5703700000000 1.0
C      1  0.5442810000000  0.5247630000000  0.4277330000000 1.0
C      1  0.5004710000000  0.4288890000000  0.4940320000000 1.0
C      1  0.5706500000000  0.5402300000000  0.5584840000000 1.0
C      1  0.4690190000000  0.5148740000000  0.5618910000000 1.0
C      1  0.5254530000000  0.5082660000000  0.4190980000000 1.0
C      1  0.4890350000000  0.4953120000000  0.4843090000000 1.0
END
