TITL C-3623283-6828-455 0.368182267684624 125000 -180.275632641152 0 0 31 (C1) n - 1
REM
REM in /home/nfs/bkarasulu/CARBON/AIRSS/Generating-Clusters/LCBOP/Higher-Symm/SD-CG/FIRE-CG
REM
REM
REM
REM
REM
REM ./C.cell (b20cbc046b6831c77cfcea5457e17084)
REM AIRSS Version 0.9.1 bugfix July 2018 build 013d7b7c2542+ Fri, 06 Jul 2018 19:26:36 +0100
REM compiler GCC version 9.2.1 20190827 (Red Hat 9.2.1-1)
REM options -cpp -mtune=generic -march=x86-64 -g -O0 -fpre-include=/usr/include/finclude/math-vector-fortran.h
REM seed -65993575 -131209595 779108500 -2106938341 1074462880 84418124 1632187948 -425898700 -217439099 1653151520 860423834 -735652038 -2026814126 1954840112 1470201573 -273922538 -541853611 -1364625602 1141713000 755247148 46507661 1318082121 -569290412 381789753 -1503299612 -1101277636 1303987128 1108614618 2040176111 -1163099155 2095473565 1081607544 -513737408
REM
CELL 1.54180   50.00000   50.00000   50.00000   90.00000   90.00000   90.00000
LATT -1
SFAC C  
C      1  0.5531050000000  0.4522430000000  0.4571220000000 1.0
C      1  0.5068080000000  0.4395680000000  0.5228230000000 1.0
C      1  0.5296180000000  0.4643760000000  0.4668810000000 1.0
C      1  0.5760880000000  0.4798200000000  0.5037280000000 1.0
C      1  0.5285680000000  0.4726060000000  0.4943310000000 1.0
C      1  0.5074710000000  0.4690750000000  0.4498130000000 1.0
C      1  0.4663220000000  0.5024420000000  0.5168010000000 1.0
C      1  0.3911000000000  0.5419260000000  0.5066700000000 1.0
C      1  0.4845120000000  0.4815240000000  0.5132040000000 1.0
C      1  0.4587930000000  0.5494690000000  0.5040520000000 1.0
C      1  0.4923900000000  0.5201680000000  0.4416120000000 1.0
C      1  0.5894350000000  0.4643450000000  0.4862070000000 1.0
C      1  0.5788960000000  0.4517550000000  0.4648000000000 1.0
C      1  0.4998160000000  0.4953000000000  0.4439790000000 1.0
C      1  0.4931520000000  0.4475300000000  0.4393050000000 1.0
C      1  0.5493580000000  0.4883840000000  0.5062360000000 1.0
C      1  0.5012720000000  0.5359170000000  0.5228430000000 1.0
C      1  0.4753730000000  0.5294660000000  0.5145360000000 1.0
C      1  0.5077720000000  0.4160620000000  0.5340330000000 1.0
C      1  0.4358940000000  0.5618580000000  0.4984760000000 1.0
C      1  0.3932070000000  0.5170520000000  0.5164750000000 1.0
C      1  0.5287050000000  0.5345870000000  0.5279630000000 1.0
C      1  0.5657590000000  0.5938190000000  0.5678680000000 1.0
C      1  0.5537550000000  0.5746230000000  0.5549430000000 1.0
C      1  0.4092170000000  0.5602220000000  0.4991620000000 1.0
C      1  0.4395060000000  0.4966090000000  0.5224730000000 1.0
C      1  0.5064420000000  0.4644970000000  0.5102650000000 1.0
C      1  0.4131310000000  0.5002560000000  0.5224550000000 1.0
C      1  0.4799250000000  0.4270280000000  0.4301480000000 1.0
C      1  0.5430540000000  0.5123610000000  0.5189870000000 1.0
C      1  0.5415550000000  0.5551150000000  0.5418070000000 1.0
END
