TITL C-3623282-6910-1585 2.28117301527634e-07 125000 -852.111365213868 0 0 136 (C1) n - 1
REM
REM in /home/nfs/bkarasulu/CARBON/AIRSS/Generating-Clusters/LCBOP/Higher-Symm/SD-CG/FIRE-CG
REM
REM
REM
REM
REM
REM ./C.cell (b20cbc046b6831c77cfcea5457e17084)
REM AIRSS Version 0.9.1 bugfix July 2018 build 013d7b7c2542+ Fri, 06 Jul 2018 19:26:36 +0100
REM compiler GCC version 9.2.1 20190827 (Red Hat 9.2.1-1)
REM options -cpp -mtune=generic -march=x86-64 -g -O0 -fpre-include=/usr/include/finclude/math-vector-fortran.h
REM seed -2051998571 -1970326821 1356024217 -1947948625 -1078429572 1869864154 2053942344 1626283419 1988359803 -140590901 1186733983 -110632964 -1449850339 1765689556 -1505846607 285752986 -1084881523 -192351381 -406752693 -1511970651 820379447 -51281507 -1707582682 -1520403384 -212516425 -1376668686 -1805524519 1739181566 -1084549244 -1959936838 -553764063 1236697851 605599206
REM
CELL 1.54180   50.00000   50.00000   50.00000   90.00000   90.00000   90.00000
LATT -1
SFAC C  
C      1  0.5190420000000  0.4178360000000  0.5484740000000 1.0
C      1  0.4732130000000  0.4231830000000  0.4419340000000 1.0
C      1  0.4886980000000  0.4214720000000  0.5514900000000 1.0
C      1  0.5042260000000  0.4247740000000  0.4424310000000 1.0
C      1  0.5337460000000  0.4826640000000  0.4127010000000 1.0
C      1  0.4794560000000  0.4820600000000  0.5891160000000 1.0
C      1  0.4822580000000  0.4815640000000  0.4107200000000 1.0
C      1  0.5331480000000  0.4815570000000  0.5765080000000 1.0
C      1  0.5721080000000  0.4722180000000  0.5486360000000 1.0
C      1  0.4172630000000  0.4695970000000  0.4433360000000 1.0
C      1  0.4234280000000  0.4655720000000  0.5581030000000 1.0
C      1  0.5743110000000  0.4610290000000  0.4560550000000 1.0
C      1  0.5348260000000  0.4513890000000  0.5808600000000 1.0
C      1  0.4721480000000  0.4553100000000  0.4043780000000 1.0
C      1  0.4772230000000  0.4528010000000  0.5911990000000 1.0
C      1  0.5321120000000  0.4534530000000  0.4096340000000 1.0
C      1  0.4271960000000  0.5493830000000  0.5382600000000 1.0
C      1  0.5705330000000  0.5442170000000  0.4666200000000 1.0
C      1  0.5702030000000  0.5532380000000  0.5343050000000 1.0
C      1  0.4294990000000  0.5441320000000  0.4735050000000 1.0
C      1  0.5167240000000  0.4421540000000  0.3884750000000 1.0
C      1  0.4958600000000  0.4398420000000  0.6081220000000 1.0
C      1  0.4895290000000  0.4409600000000  0.3870470000000 1.0
C      1  0.5224550000000  0.4394730000000  0.6031630000000 1.0
C      1  0.4438460000000  0.4611300000000  0.4435950000000 1.0
C      1  0.5527650000000  0.4548540000000  0.5356750000000 1.0
C      1  0.5474660000000  0.4511170000000  0.4578910000000 1.0
C      1  0.4487620000000  0.4538680000000  0.5520210000000 1.0
C      1  0.4967290000000  0.4946630000000  0.6080430000000 1.0
C      1  0.5223770000000  0.4977310000000  0.3910920000000 1.0
C      1  0.5232300000000  0.4955350000000  0.6011450000000 1.0
C      1  0.4949100000000  0.4976950000000  0.3907680000000 1.0
C      1  0.4618230000000  0.4689830000000  0.5310100000000 1.0
C      1  0.5311450000000  0.4659990000000  0.4816030000000 1.0
C      1  0.5362580000000  0.4689140000000  0.5129400000000 1.0
C      1  0.4598120000000  0.4754790000000  0.4628110000000 1.0
C      1  0.4044520000000  0.4654410000000  0.4684220000000 1.0
C      1  0.5989670000000  0.4733730000000  0.5401690000000 1.0
C      1  0.5905420000000  0.4620680000000  0.4796060000000 1.0
C      1  0.4040590000000  0.4663840000000  0.5367200000000 1.0
C      1  0.4006300000000  0.5420820000000  0.5299920000000 1.0
C      1  0.5964810000000  0.5390530000000  0.4774930000000 1.0
C      1  0.5976370000000  0.5477350000000  0.5285120000000 1.0
C      1  0.4020750000000  0.5384520000000  0.4782400000000 1.0
C      1  0.6011290000000  0.4882870000000  0.4845070000000 1.0
C      1  0.3913150000000  0.4914830000000  0.5338230000000 1.0
C      1  0.3918310000000  0.4885700000000  0.4787820000000 1.0
C      1  0.6104120000000  0.4989780000000  0.5380890000000 1.0
C      1  0.4385430000000  0.4288300000000  0.4855220000000 1.0
C      1  0.5584960000000  0.4054860000000  0.5200990000000 1.0
C      1  0.5767360000000  0.4195070000000  0.5057500000000 1.0
C      1  0.4489450000000  0.4249400000000  0.5126300000000 1.0
C      1  0.6118440000000  0.5617440000000  0.4858730000000 1.0
C      1  0.3856480000000  0.5621330000000  0.5158510000000 1.0
C      1  0.3862770000000  0.5601660000000  0.4884830000000 1.0
C      1  0.6119090000000  0.5668500000000  0.5127570000000 1.0
C      1  0.5044190000000  0.5400770000000  0.4684260000000 1.0
C      1  0.4853740000000  0.5398280000000  0.5272200000000 1.0
C      1  0.4766460000000  0.5459290000000  0.4632690000000 1.0
C      1  0.5130860000000  0.5408970000000  0.5236840000000 1.0
C      1  0.4237310000000  0.4890070000000  0.5744940000000 1.0
C      1  0.5792200000000  0.4821560000000  0.4376330000000 1.0
C      1  0.5598330000000  0.4908630000000  0.5664380000000 1.0
C      1  0.4145690000000  0.4948190000000  0.4306530000000 1.0
C      1  0.5100650000000  0.5537270000000  0.5830650000000 1.0
C      1  0.4760340000000  0.5630070000000  0.4099800000000 1.0
C      1  0.4843900000000  0.5662030000000  0.5844880000000 1.0
C      1  0.5361680000000  0.5673410000000  0.4096230000000 1.0
C      1  0.5261440000000  0.4938990000000  0.4673890000000 1.0
C      1  0.4681650000000  0.4955810000000  0.5392640000000 1.0
C      1  0.4589770000000  0.5022500000000  0.4726720000000 1.0
C      1  0.5428050000000  0.4989300000000  0.5148300000000 1.0
C      1  0.5143010000000  0.3939090000000  0.5067210000000 1.0
C      1  0.4711330000000  0.3940220000000  0.4833020000000 1.0
C      1  0.4864580000000  0.3991330000000  0.5072370000000 1.0
C      1  0.5229110000000  0.4033740000000  0.4816440000000 1.0
C      1  0.5582510000000  0.5432040000000  0.5591420000000 1.0
C      1  0.4500070000000  0.5274380000000  0.4563610000000 1.0
C      1  0.4380030000000  0.5403150000000  0.5641320000000 1.0
C      1  0.5662790000000  0.5343510000000  0.4398650000000 1.0
C      1  0.5243930000000  0.6048080000000  0.5545220000000 1.0
C      1  0.4773710000000  0.6012910000000  0.4385590000000 1.0
C      1  0.4719900000000  0.6019790000000  0.5556860000000 1.0
C      1  0.5268150000000  0.5993020000000  0.4435380000000 1.0
C      1  0.5235460000000  0.5615180000000  0.4727090000000 1.0
C      1  0.4713160000000  0.5641140000000  0.5267500000000 1.0
C      1  0.4678090000000  0.5714680000000  0.4749550000000 1.0
C      1  0.5262050000000  0.5660980000000  0.5233650000000 1.0
C      1  0.5375030000000  0.4386110000000  0.5554970000000 1.0
C      1  0.4588410000000  0.4433000000000  0.4266910000000 1.0
C      1  0.4689330000000  0.4386830000000  0.5674760000000 1.0
C      1  0.5301230000000  0.4394420000000  0.4347530000000 1.0
C      1  0.5506910000000  0.5571620000000  0.4835240000000 1.0
C      1  0.4445100000000  0.5619150000000  0.5181660000000 1.0
C      1  0.4432910000000  0.5642980000000  0.4893610000000 1.0
C      1  0.5525480000000  0.5624690000000  0.5128150000000 1.0
C      1  0.5761720000000  0.5085340000000  0.4336750000000 1.0
C      1  0.4283770000000  0.5155360000000  0.5744650000000 1.0
C      1  0.4308050000000  0.5158180000000  0.4355820000000 1.0
C      1  0.5668820000000  0.5177780000000  0.5677090000000 1.0
C      1  0.3955380000000  0.5134630000000  0.4910220000000 1.0
C      1  0.6044590000000  0.5205990000000  0.5213570000000 1.0
C      1  0.6013950000000  0.5151000000000  0.4930100000000 1.0
C      1  0.3951380000000  0.5154170000000  0.5199420000000 1.0
C      1  0.4795290000000  0.5075860000000  0.4925720000000 1.0
C      1  0.5241650000000  0.5192160000000  0.5088470000000 1.0
C      1  0.5091090000000  0.5140770000000  0.4830570000000 1.0
C      1  0.4737930000000  0.5149820000000  0.5198200000000 1.0
C      1  0.5187260000000  0.5875310000000  0.4184960000000 1.0
C      1  0.4854020000000  0.5950260000000  0.5801420000000 1.0
C      1  0.4897870000000  0.5866200000000  0.4168090000000 1.0
C      1  0.5117310000000  0.6067440000000  0.5789060000000 1.0
C      1  0.6071880000000  0.4521920000000  0.5234350000000 1.0
C      1  0.4145800000000  0.4457200000000  0.4870490000000 1.0
C      1  0.4048180000000  0.4494270000000  0.5140090000000 1.0
C      1  0.5928820000000  0.4424490000000  0.5007160000000 1.0
C      1  0.4779230000000  0.4241980000000  0.5221750000000 1.0
C      1  0.5086310000000  0.4247930000000  0.4710940000000 1.0
C      1  0.5311280000000  0.4010140000000  0.5280140000000 1.0
C      1  0.4580070000000  0.4143540000000  0.4669310000000 1.0
C      1  0.5136800000000  0.5879510000000  0.4663550000000 1.0
C      1  0.4837620000000  0.5885540000000  0.5333150000000 1.0
C      1  0.4843920000000  0.5923810000000  0.4651780000000 1.0
C      1  0.5130870000000  0.5892050000000  0.5331820000000 1.0
C      1  0.5351400000000  0.5524810000000  0.5730500000000 1.0
C      1  0.4628760000000  0.5433000000000  0.4207910000000 1.0
C      1  0.4597950000000  0.5528070000000  0.5781580000000 1.0
C      1  0.5531950000000  0.5494750000000  0.4200810000000 1.0
C      1  0.5043410000000  0.4524800000000  0.4771230000000 1.0
C      1  0.4847300000000  0.4549290000000  0.5197920000000 1.0
C      1  0.4867520000000  0.4678460000000  0.4603840000000 1.0
C      1  0.5093770000000  0.4681680000000  0.5275950000000 1.0
C      1  0.4849200000000  0.4920010000000  0.5624540000000 1.0
C      1  0.5225210000000  0.4912880000000  0.4385370000000 1.0
C      1  0.5109410000000  0.4827360000000  0.5537270000000 1.0
C      1  0.4952110000000  0.4821000000000  0.4365660000000 1.0
END
