TITL C-3623289-7120-593 -7.54504230287469e-07 125000 -1244.2159244124 0 0 199 (C1) n - 1
REM
REM in /home/nfs/bkarasulu/CARBON/AIRSS/Generating-Clusters/LCBOP/Higher-Symm/SD-CG/FIRE-CG
REM
REM
REM
REM
REM
REM ./C.cell (b20cbc046b6831c77cfcea5457e17084)
REM AIRSS Version 0.9.1 bugfix July 2018 build 013d7b7c2542+ Fri, 06 Jul 2018 19:26:36 +0100
REM compiler GCC version 9.2.1 20190827 (Red Hat 9.2.1-1)
REM options -cpp -mtune=generic -march=x86-64 -g -O0 -fpre-include=/usr/include/finclude/math-vector-fortran.h
REM seed -1356947020 923801747 -1450514956 -459186883 1969130824 355767795 1771908511 -194869342 -576905992 1479194349 -908828572 -321551422 1813900579 1709089765 -1834442513 -707753093 -2102768468 -1422605266 -1967909558 287290290 303058948 -809036151 -585528072 -946599344 1302840271 -1224702647 1994824153 1391771682 -1547733736 702179979 -1694425620 -64253665 -968294675
REM
CELL 1.54180   50.00000   50.00000   50.00000   90.00000   90.00000   90.00000
LATT -1
SFAC C  
C      1  0.5325450000000  0.5330280000000  0.5123020000000 1.0
C      1  0.5154960000000  0.4826500000000  0.4686940000000 1.0
C      1  0.4788530000000  0.5088820000000  0.5160060000000 1.0
C      1  0.4538440000000  0.4709840000000  0.4636120000000 1.0
C      1  0.4264790000000  0.5208770000000  0.4325360000000 1.0
C      1  0.4206420000000  0.4688180000000  0.5512450000000 1.0
C      1  0.5638600000000  0.5409550000000  0.4280570000000 1.0
C      1  0.5616210000000  0.4781700000000  0.5580270000000 1.0
C      1  0.4846990000000  0.3612830000000  0.5434490000000 1.0
C      1  0.4812290000000  0.6399860000000  0.4735360000000 1.0
C      1  0.5404080000000  0.3844510000000  0.5406210000000 1.0
C      1  0.5516710000000  0.6269610000000  0.4742560000000 1.0
C      1  0.5603130000000  0.5859400000000  0.4480020000000 1.0
C      1  0.5285980000000  0.4296500000000  0.5500160000000 1.0
C      1  0.4700950000000  0.5979310000000  0.4538020000000 1.0
C      1  0.4623940000000  0.3697800000000  0.5859680000000 1.0
C      1  0.5197190000000  0.4436980000000  0.5271520000000 1.0
C      1  0.5198070000000  0.5449440000000  0.4583250000000 1.0
C      1  0.4767060000000  0.4349900000000  0.4993240000000 1.0
C      1  0.4781710000000  0.5766250000000  0.4704420000000 1.0
C      1  0.5579560000000  0.5652180000000  0.3611040000000 1.0
C      1  0.5621020000000  0.4454840000000  0.6209550000000 1.0
C      1  0.4232180000000  0.5758230000000  0.3855900000000 1.0
C      1  0.4133980000000  0.4326170000000  0.6125120000000 1.0
C      1  0.4704280000000  0.4359350000000  0.4349330000000 1.0
C      1  0.4772170000000  0.5353810000000  0.5566420000000 1.0
C      1  0.5184960000000  0.4437460000000  0.4377410000000 1.0
C      1  0.5266280000000  0.5451420000000  0.5605260000000 1.0
C      1  0.5148130000000  0.5344570000000  0.5836300000000 1.0
C      1  0.5086340000000  0.4448450000000  0.4112750000000 1.0
C      1  0.4866410000000  0.5307660000000  0.5819730000000 1.0
C      1  0.4813700000000  0.4406750000000  0.4098430000000 1.0
C      1  0.5584960000000  0.5402340000000  0.5058700000000 1.0
C      1  0.5386000000000  0.4853030000000  0.4841160000000 1.0
C      1  0.4589400000000  0.5265320000000  0.5029160000000 1.0
C      1  0.4338810000000  0.4667010000000  0.4828960000000 1.0
C      1  0.4726800000000  0.5046740000000  0.3869150000000 1.0
C      1  0.4736900000000  0.4794750000000  0.6089690000000 1.0
C      1  0.5132310000000  0.5063540000000  0.3854470000000 1.0
C      1  0.5018920000000  0.4890840000000  0.6099530000000 1.0
C      1  0.4479870000000  0.5608770000000  0.6312960000000 1.0
C      1  0.4389710000000  0.4169980000000  0.3791740000000 1.0
C      1  0.5526980000000  0.5623410000000  0.6360570000000 1.0
C      1  0.5551970000000  0.4267080000000  0.3778910000000 1.0
C      1  0.3985720000000  0.5313220000000  0.5186930000000 1.0
C      1  0.3820190000000  0.4855650000000  0.4695230000000 1.0
C      1  0.6080550000000  0.5136910000000  0.5391490000000 1.0
C      1  0.5992000000000  0.5018670000000  0.4667730000000 1.0
C      1  0.4246070000000  0.4036240000000  0.5350840000000 1.0
C      1  0.4142580000000  0.6004590000000  0.4819140000000 1.0
C      1  0.5913680000000  0.4423790000000  0.5288270000000 1.0
C      1  0.6112640000000  0.5757260000000  0.4867110000000 1.0
C      1  0.5381570000000  0.4238850000000  0.4401380000000 1.0
C      1  0.5367520000000  0.5712790000000  0.5639940000000 1.0
C      1  0.4577180000000  0.4122400000000  0.4408620000000 1.0
C      1  0.4713550000000  0.5621230000000  0.5517230000000 1.0
C      1  0.4405260000000  0.3851590000000  0.5459550000000 1.0
C      1  0.4330050000000  0.6187520000000  0.4746270000000 1.0
C      1  0.5758440000000  0.4224480000000  0.5392690000000 1.0
C      1  0.5945980000000  0.5961600000000  0.4792780000000 1.0
C      1  0.5327910000000  0.3966100000000  0.4388770000000 1.0
C      1  0.5216070000000  0.5934370000000  0.5572390000000 1.0
C      1  0.4689560000000  0.3954740000000  0.4600470000000 1.0
C      1  0.4834540000000  0.5724200000000  0.5292920000000 1.0
C      1  0.4332490000000  0.5566350000000  0.5785670000000 1.0
C      1  0.4206200000000  0.4359510000000  0.4230900000000 1.0
C      1  0.5699570000000  0.5530310000000  0.5894940000000 1.0
C      1  0.5687410000000  0.4526050000000  0.4197000000000 1.0
C      1  0.6104190000000  0.5566750000000  0.5078460000000 1.0
C      1  0.5851790000000  0.4674000000000  0.5112630000000 1.0
C      1  0.4125470000000  0.5771230000000  0.4978840000000 1.0
C      1  0.4180470000000  0.4260820000000  0.5195820000000 1.0
C      1  0.5134410000000  0.4801800000000  0.5830200000000 1.0
C      1  0.5178510000000  0.5260470000000  0.4049510000000 1.0
C      1  0.4640520000000  0.4722040000000  0.5819690000000 1.0
C      1  0.4690240000000  0.5239090000000  0.4065900000000 1.0
C      1  0.4369320000000  0.4643850000000  0.5753570000000 1.0
C      1  0.4425400000000  0.5330500000000  0.4122930000000 1.0
C      1  0.5410580000000  0.4727710000000  0.5786480000000 1.0
C      1  0.5433670000000  0.5400860000000  0.4070080000000 1.0
C      1  0.4602440000000  0.6211420000000  0.4668450000000 1.0
C      1  0.4620050000000  0.3714060000000  0.5579180000000 1.0
C      1  0.5691860000000  0.6039840000000  0.4685070000000 1.0
C      1  0.5501400000000  0.4112870000000  0.5449930000000 1.0
C      1  0.5377250000000  0.5712200000000  0.6563350000000 1.0
C      1  0.5372320000000  0.4098750000000  0.3668060000000 1.0
C      1  0.4715650000000  0.5508380000000  0.6455210000000 1.0
C      1  0.4594140000000  0.4037080000000  0.3675830000000 1.0
C      1  0.4952290000000  0.3995780000000  0.4688750000000 1.0
C      1  0.5021030000000  0.5854730000000  0.5141670000000 1.0
C      1  0.5145920000000  0.3852470000000  0.4547720000000 1.0
C      1  0.5198680000000  0.6001740000000  0.5302740000000 1.0
C      1  0.4853720000000  0.6625580000000  0.4586860000000 1.0
C      1  0.4963290000000  0.3375900000000  0.5509110000000 1.0
C      1  0.5547180000000  0.6495650000000  0.4588020000000 1.0
C      1  0.5477130000000  0.3636940000000  0.5568480000000 1.0
C      1  0.5475280000000  0.5960570000000  0.4252870000000 1.0
C      1  0.5148110000000  0.4268710000000  0.5740650000000 1.0
C      1  0.4777000000000  0.5991400000000  0.4269550000000 1.0
C      1  0.4729320000000  0.3816880000000  0.6073940000000 1.0
C      1  0.5718200000000  0.4288800000000  0.4713520000000 1.0
C      1  0.5790320000000  0.5866000000000  0.5455040000000 1.0
C      1  0.4258550000000  0.4049900000000  0.4729500000000 1.0
C      1  0.4421570000000  0.5922240000000  0.5367380000000 1.0
C      1  0.5121300000000  0.4015540000000  0.3623490000000 1.0
C      1  0.5132030000000  0.5720840000000  0.6669040000000 1.0
C      1  0.4854230000000  0.3995000000000  0.3625890000000 1.0
C      1  0.4877480000000  0.5645580000000  0.6636220000000 1.0
C      1  0.5662190000000  0.6088300000000  0.5317260000000 1.0
C      1  0.5612510000000  0.4047050000000  0.4837560000000 1.0
C      1  0.4584590000000  0.6155080000000  0.5308600000000 1.0
C      1  0.4505360000000  0.3893500000000  0.4816690000000 1.0
C      1  0.5516940000000  0.4577860000000  0.6004680000000 1.0
C      1  0.5506070000000  0.5540270000000  0.3834620000000 1.0
C      1  0.4240370000000  0.4488670000000  0.5951380000000 1.0
C      1  0.4323120000000  0.5548190000000  0.3980490000000 1.0
C      1  0.5636300000000  0.5575880000000  0.4517940000000 1.0
C      1  0.5615610000000  0.4798690000000  0.5283360000000 1.0
C      1  0.4363970000000  0.5216340000000  0.4587880000000 1.0
C      1  0.4256950000000  0.4526990000000  0.5284500000000 1.0
C      1  0.5230130000000  0.5655280000000  0.4755850000000 1.0
C      1  0.5206610000000  0.4286410000000  0.5030570000000 1.0
C      1  0.5017080000000  0.5797720000000  0.4867790000000 1.0
C      1  0.4982320000000  0.4199110000000  0.4888080000000 1.0
C      1  0.5320090000000  0.6276250000000  0.4955060000000 1.0
C      1  0.5236020000000  0.3807120000000  0.5165100000000 1.0
C      1  0.4973830000000  0.6338970000000  0.4966060000000 1.0
C      1  0.4931810000000  0.3746440000000  0.5189920000000 1.0
C      1  0.4460600000000  0.5507150000000  0.6040330000000 1.0
C      1  0.4374390000000  0.4396500000000  0.3970810000000 1.0
C      1  0.5515550000000  0.5477490000000  0.6120520000000 1.0
C      1  0.5522370000000  0.4493700000000  0.3948920000000 1.0
C      1  0.5861650000000  0.5290740000000  0.5499470000000 1.0
C      1  0.5795500000000  0.4851220000000  0.4543110000000 1.0
C      1  0.4218720000000  0.5364790000000  0.5349080000000 1.0
C      1  0.3938140000000  0.4607630000000  0.4592310000000 1.0
C      1  0.5648390000000  0.4335770000000  0.4424880000000 1.0
C      1  0.5648530000000  0.5742600000000  0.5692570000000 1.0
C      1  0.4290040000000  0.4152610000000  0.4437700000000 1.0
C      1  0.4474590000000  0.5751550000000  0.5606060000000 1.0
C      1  0.4951270000000  0.5395480000000  0.4462500000000 1.0
C      1  0.5142870000000  0.4716010000000  0.5226380000000 1.0
C      1  0.4739570000000  0.5495250000000  0.4623240000000 1.0
C      1  0.4697890000000  0.4598300000000  0.5107360000000 1.0
C      1  0.4632880000000  0.4553980000000  0.3931470000000 1.0
C      1  0.4693770000000  0.5329480000000  0.6035310000000 1.0
C      1  0.5247160000000  0.4592720000000  0.3934330000000 1.0
C      1  0.5280190000000  0.5309040000000  0.6086490000000 1.0
C      1  0.5653510000000  0.5466110000000  0.4786840000000 1.0
C      1  0.5375460000000  0.4843300000000  0.5127760000000 1.0
C      1  0.4568590000000  0.5311360000000  0.4749400000000 1.0
C      1  0.4426410000000  0.4652590000000  0.5094760000000 1.0
C      1  0.5791730000000  0.4782080000000  0.4266180000000 1.0
C      1  0.5825960000000  0.5302490000000  0.5783480000000 1.0
C      1  0.4024950000000  0.4572360000000  0.4313550000000 1.0
C      1  0.4192160000000  0.5359210000000  0.5636570000000 1.0
C      1  0.4022830000000  0.4814090000000  0.4162500000000 1.0
C      1  0.4052210000000  0.5115990000000  0.5689090000000 1.0
C      1  0.5854760000000  0.5007200000000  0.4107020000000 1.0
C      1  0.5860040000000  0.5046860000000  0.5900440000000 1.0
C      1  0.4357970000000  0.5739490000000  0.5145530000000 1.0
C      1  0.4138270000000  0.4242930000000  0.4906950000000 1.0
C      1  0.5915580000000  0.5669640000000  0.5279890000000 1.0
C      1  0.5741320000000  0.4532850000000  0.4863960000000 1.0
C      1  0.4020770000000  0.5066860000000  0.4291660000000 1.0
C      1  0.4027110000000  0.4916620000000  0.5476780000000 1.0
C      1  0.5879040000000  0.5253920000000  0.4250580000000 1.0
C      1  0.5877590000000  0.4838660000000  0.5703390000000 1.0
C      1  0.5086780000000  0.4790870000000  0.3809200000000 1.0
C      1  0.5080300000000  0.5146190000000  0.6234190000000 1.0
C      1  0.4782620000000  0.4776710000000  0.3820040000000 1.0
C      1  0.4835240000000  0.5298920000000  0.6292060000000 1.0
C      1  0.4921370000000  0.5231680000000  0.5363030000000 1.0
C      1  0.4756310000000  0.4573370000000  0.4529000000000 1.0
C      1  0.5186840000000  0.5324250000000  0.5361050000000 1.0
C      1  0.5037220000000  0.4615840000000  0.4549920000000 1.0
C      1  0.5739340000000  0.5441740000000  0.5294110000000 1.0
C      1  0.5616750000000  0.4748530000000  0.4724540000000 1.0
C      1  0.4431000000000  0.5455560000000  0.5184160000000 1.0
C      1  0.4115840000000  0.4498070000000  0.4779250000000 1.0
C      1  0.5255830000000  0.6015770000000  0.4113420000000 1.0
C      1  0.5053210000000  0.4181930000000  0.5972830000000 1.0
C      1  0.4989710000000  0.6017140000000  0.4111400000000 1.0
C      1  0.4902140000000  0.4016020000000  0.6115910000000 1.0
C      1  0.5422110000000  0.3880770000000  0.4946320000000 1.0
C      1  0.5409600000000  0.6148570000000  0.5193570000000 1.0
C      1  0.4686840000000  0.3797820000000  0.5027320000000 1.0
C      1  0.4800120000000  0.6281910000000  0.5195270000000 1.0
C      1  0.3917830000000  0.5029700000000  0.5215290000000 1.0
C      1  0.3833360000000  0.5070910000000  0.4508580000000 1.0
C      1  0.6098340000000  0.4887400000000  0.5525580000000 1.0
C      1  0.6051270000000  0.5230970000000  0.4484490000000 1.0
C      1  0.6021940000000  0.4980400000000  0.4950880000000 1.0
C      1  0.6115910000000  0.5202680000000  0.5115630000000 1.0
C      1  0.3817690000000  0.4904330000000  0.4978710000000 1.0
C      1  0.3943020000000  0.5543140000000  0.5010480000000 1.0
C      1  0.4935470000000  0.5318480000000  0.4195960000000 1.0
C      1  0.4893130000000  0.4729240000000  0.5675030000000 1.0
C      1  0.4877010000000  0.4809300000000  0.5157860000000 1.0
END
