TITL C-3623288-6813-127 -1.109779510117e-06 125000 -603.46037986502 0 0 105 (C1) n - 1
REM
REM in /home/nfs/bkarasulu/CARBON/AIRSS/Generating-Clusters/LCBOP/Higher-Symm/SD-CG/FIRE-CG
REM
REM
REM
REM
REM
REM ./C.cell (b20cbc046b6831c77cfcea5457e17084)
REM AIRSS Version 0.9.1 bugfix July 2018 build 013d7b7c2542+ Fri, 06 Jul 2018 19:26:36 +0100
REM compiler GCC version 9.2.1 20190827 (Red Hat 9.2.1-1)
REM options -cpp -mtune=generic -march=x86-64 -g -O0 -fpre-include=/usr/include/finclude/math-vector-fortran.h
REM seed -2004938881 305919130 1302838110 -1978817595 1099704806 1744429857 -1942074988 -1632582162 195299296 2122007690 -1713033484 1341085724 -83537011 1161882745 992388547 1464686383 -1062198309 30115028 -128488253 -1214086385 1172631132 287183950 581365867 496734287 1467569422 -1581208641 859902233 -1736913201 463803782 -827130980 26683619 -1317957417 -666214855
REM
CELL 1.54180   50.00000   50.00000   50.00000   90.00000   90.00000   90.00000
LATT -1
SFAC C  
C      1  0.5726110000000  0.4596850000000  0.5345320000000 1.0
C      1  0.5405580000000  0.5327880000000  0.4243700000000 1.0
C      1  0.4211900000000  0.4589520000000  0.4639240000000 1.0
C      1  0.4661670000000  0.5350940000000  0.5707000000000 1.0
C      1  0.4737040000000  0.3845450000000  0.4514690000000 1.0
C      1  0.4507010000000  0.6112870000000  0.5222170000000 1.0
C      1  0.5241650000000  0.3848510000000  0.5518320000000 1.0
C      1  0.5535220000000  0.6087420000000  0.4734400000000 1.0
C      1  0.4707650000000  0.4641470000000  0.5875680000000 1.0
C      1  0.5854460000000  0.5606760000000  0.5188100000000 1.0
C      1  0.5329730000000  0.4686910000000  0.4075580000000 1.0
C      1  0.4072200000000  0.5426090000000  0.4803560000000 1.0
C      1  0.5083420000000  0.5335730000000  0.5407350000000 1.0
C      1  0.5421800000000  0.4571700000000  0.4918960000000 1.0
C      1  0.4939240000000  0.5314320000000  0.4521360000000 1.0
C      1  0.4523080000000  0.4668150000000  0.5044930000000 1.0
C      1  0.5020950000000  0.4746640000000  0.4470730000000 1.0
C      1  0.4516430000000  0.5216290000000  0.4930360000000 1.0
C      1  0.4966490000000  0.4760560000000  0.5479390000000 1.0
C      1  0.5483980000000  0.5166620000000  0.4987930000000 1.0
C      1  0.5578770000000  0.4406300000000  0.5473290000000 1.0
C      1  0.5503110000000  0.5536450000000  0.4390140000000 1.0
C      1  0.4374360000000  0.4392880000000  0.4539830000000 1.0
C      1  0.4552790000000  0.5553340000000  0.5559960000000 1.0
C      1  0.6036620000000  0.4619350000000  0.4975380000000 1.0
C      1  0.4999400000000  0.5333080000000  0.3987360000000 1.0
C      1  0.3905610000000  0.4712000000000  0.4988590000000 1.0
C      1  0.5013750000000  0.5264290000000  0.6017810000000 1.0
C      1  0.4720850000000  0.5070860000000  0.4813330000000 1.0
C      1  0.4839820000000  0.4885640000000  0.5258450000000 1.0
C      1  0.5270670000000  0.5053400000000  0.5128070000000 1.0
C      1  0.5150120000000  0.4848930000000  0.4707960000000 1.0
C      1  0.5458430000000  0.5493340000000  0.5846790000000 1.0
C      1  0.6020140000000  0.4654250000000  0.4483480000000 1.0
C      1  0.4504820000000  0.5449520000000  0.4164060000000 1.0
C      1  0.4045680000000  0.4571730000000  0.5474770000000 1.0
C      1  0.4850770000000  0.4852290000000  0.5735240000000 1.0
C      1  0.5745980000000  0.5030720000000  0.5041670000000 1.0
C      1  0.5154800000000  0.4868890000000  0.4222730000000 1.0
C      1  0.4205970000000  0.5143670000000  0.4772230000000 1.0
C      1  0.4348220000000  0.4923330000000  0.4354420000000 1.0
C      1  0.4325620000000  0.5061140000000  0.5674880000000 1.0
C      1  0.5740870000000  0.5045700000000  0.5572120000000 1.0
C      1  0.5764700000000  0.5142670000000  0.4596360000000 1.0
C      1  0.4898790000000  0.5888360000000  0.5041930000000 1.0
C      1  0.5042520000000  0.4072220000000  0.5133910000000 1.0
C      1  0.5133910000000  0.5877810000000  0.4908730000000 1.0
C      1  0.4904230000000  0.4086380000000  0.4900840000000 1.0
C      1  0.4648520000000  0.5881470000000  0.5183430000000 1.0
C      1  0.5196130000000  0.4079940000000  0.5378600000000 1.0
C      1  0.5384560000000  0.5861020000000  0.4769070000000 1.0
C      1  0.4765450000000  0.4083750000000  0.4648080000000 1.0
C      1  0.5232580000000  0.4562660000000  0.5111650000000 1.0
C      1  0.5122160000000  0.5358570000000  0.4712670000000 1.0
C      1  0.4702130000000  0.4625570000000  0.4845680000000 1.0
C      1  0.4891740000000  0.5368500000000  0.5218370000000 1.0
C      1  0.5459710000000  0.5012420000000  0.5587490000000 1.0
C      1  0.5934320000000  0.5188380000000  0.4847640000000 1.0
C      1  0.4623600000000  0.4947740000000  0.4321450000000 1.0
C      1  0.4361180000000  0.5016660000000  0.5394610000000 1.0
C      1  0.4187100000000  0.4875590000000  0.5818240000000 1.0
C      1  0.5850320000000  0.5272310000000  0.5673510000000 1.0
C      1  0.5626060000000  0.4892080000000  0.4561050000000 1.0
C      1  0.4237140000000  0.5150390000000  0.4466500000000 1.0
C      1  0.4811200000000  0.4561920000000  0.4581890000000 1.0
C      1  0.4619640000000  0.5405830000000  0.5120430000000 1.0
C      1  0.5145840000000  0.4555200000000  0.5387530000000 1.0
C      1  0.5388770000000  0.5380170000000  0.4815670000000 1.0
C      1  0.4169020000000  0.5580400000000  0.4570800000000 1.0
C      1  0.4472770000000  0.4517070000000  0.5764790000000 1.0
C      1  0.5734320000000  0.5652580000000  0.5427670000000 1.0
C      1  0.5595120000000  0.4639250000000  0.4167650000000 1.0
C      1  0.4544270000000  0.5630630000000  0.5282640000000 1.0
C      1  0.5300820000000  0.4331830000000  0.5478140000000 1.0
C      1  0.5481240000000  0.5608820000000  0.4667130000000 1.0
C      1  0.4656330000000  0.4324730000000  0.4528830000000 1.0
C      1  0.4922610000000  0.5350710000000  0.6260470000000 1.0
C      1  0.6141220000000  0.4379170000000  0.5054640000000 1.0
C      1  0.5094240000000  0.5508230000000  0.3799000000000 1.0
C      1  0.3667220000000  0.4602640000000  0.4914490000000 1.0
C      1  0.4800710000000  0.4558210000000  0.6120130000000 1.0
C      1  0.5951210000000  0.5455160000000  0.4984810000000 1.0
C      1  0.5236240000000  0.4562840000000  0.3849880000000 1.0
C      1  0.3902330000000  0.5504050000000  0.4998770000000 1.0
C      1  0.4682730000000  0.5019340000000  0.4057540000000 1.0
C      1  0.4100320000000  0.5005560000000  0.5286390000000 1.0
C      1  0.5375780000000  0.5023000000000  0.5855850000000 1.0
C      1  0.6175420000000  0.5025050000000  0.4778630000000 1.0
C      1  0.4717200000000  0.5300630000000  0.4028150000000 1.0
C      1  0.3979150000000  0.4751200000000  0.5258220000000 1.0
C      1  0.5287790000000  0.5278020000000  0.5944700000000 1.0
C      1  0.6126100000000  0.4745930000000  0.4735310000000 1.0
C      1  0.4099310000000  0.4802300000000  0.4799680000000 1.0
C      1  0.4833450000000  0.5146430000000  0.5820750000000 1.0
C      1  0.5833950000000  0.4758930000000  0.5132710000000 1.0
C      1  0.5185670000000  0.5166820000000  0.4146380000000 1.0
C      1  0.4754110000000  0.5100030000000  0.4533400000000 1.0
C      1  0.4556980000000  0.4862200000000  0.5251930000000 1.0
C      1  0.5274980000000  0.5125080000000  0.5400810000000 1.0
C      1  0.5423850000000  0.4775340000000  0.4722710000000 1.0
C      1  0.4297910000000  0.5419950000000  0.4365670000000 1.0
C      1  0.4207470000000  0.4609930000000  0.5711570000000 1.0
C      1  0.5690660000000  0.5510330000000  0.5671020000000 1.0
C      1  0.5759620000000  0.4712160000000  0.4383350000000 1.0
C      1  0.5000140000000  0.4962860000000  0.4981160000000 1.0
END
