TITL C-3623282-6910-1924 -4.1059483069341e-07 125000 -579.058189988326 0 0 96 (C3) n - 1
REM
REM in /home/nfs/bkarasulu/CARBON/AIRSS/Generating-Clusters/LCBOP/Higher-Symm/SD-CG/FIRE-CG
REM
REM
REM
REM
REM
REM ./C.cell (b20cbc046b6831c77cfcea5457e17084)
REM AIRSS Version 0.9.1 bugfix July 2018 build 013d7b7c2542+ Fri, 06 Jul 2018 19:26:36 +0100
REM compiler GCC version 9.2.1 20190827 (Red Hat 9.2.1-1)
REM options -cpp -mtune=generic -march=x86-64 -g -O0 -fpre-include=/usr/include/finclude/math-vector-fortran.h
REM seed -183340357 -886577941 1835978590 2030695093 -1613243871 -700600210 -282579404 -112467991 -1029928686 870666287 633557608 -840905375 1648294282 763001692 -1347442185 -849182226 -1645504971 -783123338 -559028663 -649719381 957736980 619297606 241016146 616233972 -848498201 1693166510 388850353 -1885231604 -997763075 -611188016 -835267086 1819787438 -745827460
REM
CELL 1.54180   50.00000   50.00000   50.00000   90.00000   90.00000   90.00000
LATT -1
SFAC C  
C      1  0.5125020000000  0.4783500000000  0.5246800000000 1.0
C      1  0.4723760000000  0.4783510000000  0.4984790000000 1.0
C      1  0.5151290000000  0.4783590000000  0.4768290000000 1.0
C      1  0.4827690000000  0.4068340000000  0.4660580000000 1.0
C      1  0.5380100000000  0.4068330000000  0.5020140000000 1.0
C      1  0.4792510000000  0.4068220000000  0.5318760000000 1.0
C      1  0.5822800000000  0.4437890000000  0.4411660000000 1.0
C      1  0.5098120000000  0.4437520000000  0.6006530000000 1.0
C      1  0.4079260000000  0.4437680000000  0.4581500000000 1.0
C      1  0.5576140000000  0.4972520000000  0.5617030000000 1.0
C      1  0.4177570000000  0.4972450000000  0.5190430000000 1.0
C      1  0.5246300000000  0.4972750000000  0.4192530000000 1.0
C      1  0.4963820000000  0.5884570000000  0.5372060000000 1.0
C      1  0.4695880000000  0.5884650000000  0.4782960000000 1.0
C      1  0.5340020000000  0.5884700000000  0.4845470000000 1.0
C      1  0.5223440000000  0.5877660000000  0.5304750000000 1.0
C      1  0.4624360000000  0.5877650000000  0.5041450000000 1.0
C      1  0.5151920000000  0.5877770000000  0.4654290000000 1.0
C      1  0.4723340000000  0.5241460000000  0.5148720000000 1.0
C      1  0.5009530000000  0.5241580000000  0.4686140000000 1.0
C      1  0.5267050000000  0.5241520000000  0.5165280000000 1.0
C      1  0.4590440000000  0.5567590000000  0.5440270000000 1.0
C      1  0.4823500000000  0.5567810000000  0.4425380000000 1.0
C      1  0.5585890000000  0.5567750000000  0.5134660000000 1.0
C      1  0.4061850000000  0.4407300000000  0.4846880000000 1.0
C      1  0.5601680000000  0.4407570000000  0.4263880000000 1.0
C      1  0.5336660000000  0.4407240000000  0.5888910000000 1.0
C      1  0.4185410000000  0.5562520000000  0.4360370000000 1.0
C      1  0.5961230000000  0.5562650000000  0.4614570000000 1.0
C      1  0.4853180000000  0.5562280000000  0.6025370000000 1.0
C      1  0.5506620000000  0.4445320000000  0.5666650000000 1.0
C      1  0.4169360000000  0.4445280000000  0.5105220000000 1.0
C      1  0.5324200000000  0.4445560000000  0.4227830000000 1.0
C      1  0.5340550000000  0.5035560000000  0.5773450000000 1.0
C      1  0.4159900000000  0.5035600000000  0.4908210000000 1.0
C      1  0.5499540000000  0.5035850000000  0.4318360000000 1.0
C      1  0.4795080000000  0.5405450000000  0.5571940000000 1.0
C      1  0.4607150000000  0.5405620000000  0.4536720000000 1.0
C      1  0.5597640000000  0.5405660000000  0.4891570000000 1.0
C      1  0.5294310000000  0.4063250000000  0.4768120000000 1.0
C      1  0.5053660000000  0.4063110000000  0.5370470000000 1.0
C      1  0.4652330000000  0.4063160000000  0.4860890000000 1.0
C      1  0.4203900000000  0.4995530000000  0.4642170000000 1.0
C      1  0.5707940000000  0.4995720000000  0.4489470000000 1.0
C      1  0.5088160000000  0.4995400000000  0.5868360000000 1.0
C      1  0.5864660000000  0.4851350000000  0.4688790000000 1.0
C      1  0.4837190000000  0.4851020000000  0.5904360000000 1.0
C      1  0.4298200000000  0.4851240000000  0.4406760000000 1.0
C      1  0.5221460000000  0.5069340000000  0.4724920000000 1.0
C      1  0.5127490000000  0.5069210000000  0.5329360000000 1.0
C      1  0.4651020000000  0.5069240000000  0.4945760000000 1.0
C      1  0.5813210000000  0.4894710000000  0.4973340000000 1.0
C      1  0.4616480000000  0.4894450000000  0.5717550000000 1.0
C      1  0.4570340000000  0.4894700000000  0.4309050000000 1.0
C      1  0.5408420000000  0.5797400000000  0.5107040000000 1.0
C      1  0.4703090000000  0.5797290000000  0.5300480000000 1.0
C      1  0.4888230000000  0.5797440000000  0.4592920000000 1.0
C      1  0.5517130000000  0.5549420000000  0.4427940000000 1.0
C      1  0.5236850000000  0.5549150000000  0.5734080000000 1.0
C      1  0.4245840000000  0.5549210000000  0.4838280000000 1.0
C      1  0.5027480000000  0.5429830000000  0.4259960000000 1.0
C      1  0.5627150000000  0.5429680000000  0.5393980000000 1.0
C      1  0.4345230000000  0.5429550000000  0.5346300000000 1.0
C      1  0.5091740000000  0.4116940000000  0.4580610000000 1.0
C      1  0.5317330000000  0.4116830000000  0.5288820000000 1.0
C      1  0.4591210000000  0.4116780000000  0.5130080000000 1.0
C      1  0.4357140000000  0.4256260000000  0.5192490000000 1.0
C      1  0.5154730000000  0.4256510000000  0.4346750000000 1.0
C      1  0.5488360000000  0.4256330000000  0.5460350000000 1.0
C      1  0.5224070000000  0.4694120000000  0.4138430000000 1.0
C      1  0.5634110000000  0.4693890000000  0.5624720000000 1.0
C      1  0.4141920000000  0.4693800000000  0.5236680000000 1.0
C      1  0.5474810000000  0.5531220000000  0.5612290000000 1.0
C      1  0.4232340000000  0.5531180000000  0.5105250000000 1.0
C      1  0.5292680000000  0.5531450000000  0.4282760000000 1.0
C      1  0.4872840000000  0.4725390000000  0.4736240000000 1.0
C      1  0.5292000000000  0.4725380000000  0.5021660000000 1.0
C      1  0.4835240000000  0.4725290000000  0.5241950000000 1.0
C      1  0.4881020000000  0.4596300000000  0.6019870000000 1.0
C      1  0.4176260000000  0.4596530000000  0.4386880000000 1.0
C      1  0.5942850000000  0.4596680000000  0.4593030000000 1.0
C      1  0.4742400000000  0.5029760000000  0.4116110000000 1.0
C      1  0.5894280000000  0.5029680000000  0.5218870000000 1.0
C      1  0.4363320000000  0.5029430000000  0.5665040000000 1.0
C      1  0.4272130000000  0.5149790000000  0.5411780000000 1.0
C      1  0.5007320000000  0.5150100000000  0.4163810000000 1.0
C      1  0.5720500000000  0.5149940000000  0.5424490000000 1.0
C      1  0.4720900000000  0.5164960000000  0.4673940000000 1.0
C      1  0.5421920000000  0.5164990000000  0.4921380000000 1.0
C      1  0.4857120000000  0.5164840000000  0.5404770000000 1.0
C      1  0.5530530000000  0.4889670000000  0.5003300000000 1.0
C      1  0.4731880000000  0.4889500000000  0.5457770000000 1.0
C      1  0.4737620000000  0.4889670000000  0.4538880000000 1.0
C      1  0.4961360000000  0.5505160000000  0.5780380000000 1.0
C      1  0.4343490000000  0.5505320000000  0.4576530000000 1.0
C      1  0.5694990000000  0.5505450000000  0.4643360000000 1.0
END
