TITL C-3623288-6813-357 169075.066837237 125000 -505.37467041682 0 0 92 (C2) n - 1
REM
REM in /home/nfs/bkarasulu/CARBON/AIRSS/Generating-Clusters/LCBOP/Higher-Symm/SD-CG/FIRE-CG
REM
REM
REM
REM
REM
REM ./C.cell (b20cbc046b6831c77cfcea5457e17084)
REM AIRSS Version 0.9.1 bugfix July 2018 build 013d7b7c2542+ Fri, 06 Jul 2018 19:26:36 +0100
REM compiler GCC version 9.2.1 20190827 (Red Hat 9.2.1-1)
REM options -cpp -mtune=generic -march=x86-64 -g -O0 -fpre-include=/usr/include/finclude/math-vector-fortran.h
REM seed 64533061 -555562773 726816307 -153004062 1739083926 542192287 -1773372551 280071518 1471248322 1466765113 -1886443509 896216465 1264731764 -1252234314 1821017499 -752842748 137957273 -519842715 2026990411 488746736 -1786131079 -36484191 513983986 1400056798 649353383 -766978968 1911941677 2054774754 336799188 -2076061144 -519369661 543208513 -525917027
REM
CELL 1.54180   50.00000   50.00000   50.00000   90.00000   90.00000   90.00000
LATT -1
SFAC C  
C      1  0.5674840000000  0.4612010000000  0.5405500000000 1.0
C      1  0.4593640000000  0.4611030000000  0.5675420000000 1.0
C      1  0.4324580000000  0.4611600000000  0.4594740000000 1.0
C      1  0.5406230000000  0.4611600000000  0.4325060000000 1.0
C      1  0.4324580000000  0.5398000000000  0.5406360000000 1.0
C      1  0.5405260000000  0.5397430000000  0.5675420000000 1.0
C      1  0.5674940000000  0.5397430000000  0.4593770000000 1.0
C      1  0.4594500000000  0.5397020000000  0.4325160000000 1.0
C      1  0.4897040000000  0.5683420000000  0.5188300000000 1.0
C      1  0.4809900000000  0.5686520000000  0.4900730000000 1.0
C      1  0.5113730000000  0.5693760000000  0.4802740000000 1.0
C      1  0.5188210000000  0.5688310000000  0.5113100000000 1.0
C      1  0.5099280000000  0.4322510000000  0.5190100000000 1.0
C      1  0.5197260000000  0.4315270000000  0.4886270000000 1.0
C      1  0.4886900000000  0.4320720000000  0.4811790000000 1.0
C      1  0.4811700000000  0.4325600000000  0.5102960000000 1.0
C      1  0.5384700000000  0.4499030000000  0.4815410000000 1.0
C      1  0.5182180000000  0.4499990000000  0.5380930000000 1.0
C      1  0.4617760000000  0.4501080000000  0.5183880000000 1.0
C      1  0.4814900000000  0.4499670000000  0.4618600000000 1.0
C      1  0.4619070000000  0.5509040000000  0.4817830000000 1.0
C      1  0.4816120000000  0.5507940000000  0.5382230000000 1.0
C      1  0.5381400000000  0.5509360000000  0.5185100000000 1.0
C      1  0.5184590000000  0.5510000000000  0.4615300000000 1.0
C      1  0.5147760000000  0.5585630000000  0.4337230000000 1.0
C      1  0.5658580000000  0.5587320000000  0.5147450000000 1.0
C      1  0.4851950000000  0.5586800000000  0.5659560000000 1.0
C      1  0.4341460000000  0.5587440000000  0.4852810000000 1.0
C      1  0.4852550000000  0.4421710000000  0.4341420000000 1.0
C      1  0.4340440000000  0.4422220000000  0.5148050000000 1.0
C      1  0.5147200000000  0.4421580000000  0.5658540000000 1.0
C      1  0.5662770000000  0.4423400000000  0.4852240000000 1.0
C      1  0.5781260000000  0.4674880000000  0.4820280000000 1.0
C      1  0.5179520000000  0.4672390000000  0.5779080000000 1.0
C      1  0.4219440000000  0.4672960000000  0.5180180000000 1.0
C      1  0.4820360000000  0.4672540000000  0.4220690000000 1.0
C      1  0.4220880000000  0.5336660000000  0.4820500000000 1.0
C      1  0.4819830000000  0.5336070000000  0.5780570000000 1.0
C      1  0.5779320000000  0.5336500000000  0.5179630000000 1.0
C      1  0.5179720000000  0.5334150000000  0.4218750000000 1.0
C      1  0.5167310000000  0.4793680000000  0.4304870000000 1.0
C      1  0.5695270000000  0.4794890000000  0.5167320000000 1.0
C      1  0.4832310000000  0.4793400000000  0.5695670000000 1.0
C      1  0.4304460000000  0.4794220000000  0.4833290000000 1.0
C      1  0.4832680000000  0.5214140000000  0.4304740000000 1.0
C      1  0.4304320000000  0.5215630000000  0.5167690000000 1.0
C      1  0.5166710000000  0.5214810000000  0.5695530000000 1.0
C      1  0.5695130000000  0.5215350000000  0.4832680000000 1.0
C      1  0.5072590000000  0.5748830000000  0.5732330000000 1.0
C      1  0.4268470000000  0.5749400000000  0.5073520000000 1.0
C      1  0.4927080000000  0.5747570000000  0.4264460000000 1.0
C      1  0.5730900000000  0.5749000000000  0.4926400000000 1.0
C      1  0.4926490000000  0.4259630000000  0.5731530000000 1.0
C      1  0.5735540000000  0.4261460000000  0.5072920000000 1.0
C      1  0.5073590000000  0.4260030000000  0.4269100000000 1.0
C      1  0.4267670000000  0.4260200000000  0.4927410000000 1.0
C      1  0.5332960000000  0.5666360000000  0.5731600000000 1.0
C      1  0.4269220000000  0.5667070000000  0.5333950000000 1.0
C      1  0.4666610000000  0.5665660000000  0.4267760000000 1.0
C      1  0.5730440000000  0.5666540000000  0.4666020000000 1.0
C      1  0.4666050000000  0.4341950000000  0.5730780000000 1.0
C      1  0.5732240000000  0.4343370000000  0.5333390000000 1.0
C      1  0.5333970000000  0.4342500000000  0.4269560000000 1.0
C      1  0.4268390000000  0.4342670000000  0.4667040000000 1.0
C      1  0.5512220000000  0.5010190000000  0.4793020000000 1.0
C      1  0.5206300000000  0.5009710000000  0.5512270000000 1.0
C      1  0.4486660000000  0.5010050000000  0.5208040000000 1.0
C      1  0.4792660000000  0.5009390000000  0.4488070000000 1.0
C      1  0.4487740000000  0.4999310000000  0.4793700000000 1.0
C      1  0.4791970000000  0.4998970000000  0.5513340000000 1.0
C      1  0.5511930000000  0.4999630000000  0.5207340000000 1.0
C      1  0.5206980000000  0.4998840000000  0.4487780000000 1.0
C      1  0.5533660000000  0.4741690000000  0.5658800000000 1.0
C      1  0.4339880000000  0.4741550000000  0.5534830000000 1.0
C      1  0.4465750000000  0.4741520000000  0.4341050000000 1.0
C      1  0.5659960000000  0.4742250000000  0.4465620000000 1.0
C      1  0.4465170000000  0.5267470000000  0.5660120000000 1.0
C      1  0.5658960000000  0.5267510000000  0.5534250000000 1.0
C      1  0.5534380000000  0.5266780000000  0.4340030000000 1.0
C      1  0.4341200000000  0.5267330000000  0.4466330000000 1.0
C      1  0.4631860000000  0.5224330000000  0.4786320000000 1.0
C      1  0.5214540000000  0.5224840000000  0.4630770000000 1.0
C      1  0.5368140000000  0.5224670000000  0.5214670000000 1.0
C      1  0.4785080000000  0.5223820000000  0.5369730000000 1.0
C      1  0.5369230000000  0.4784190000000  0.4785460000000 1.0
C      1  0.4785330000000  0.4784360000000  0.4631860000000 1.0
C      1  0.4630260000000  0.4785200000000  0.5214920000000 1.0
C      1  0.5213680000000  0.4784690000000  0.5368160000000 1.0
C      1  0.5672320000000  0.5004500000000  0.5672740000000 1.0
C      1  0.4327260000000  0.5004530000000  0.4327690000000 1.0
C      1  0.5673560000000  0.5004510000000  0.4326440000000 1.0
C      1  0.4326580000000  0.5004510000000  0.5673430000000 1.0
END
