TITL C-3623284-6838-608 -4.82258209746419e-07 125000 -774.748194590657 0 0 128 (C1) n - 1
REM
REM in /home/nfs/bkarasulu/CARBON/AIRSS/Generating-Clusters/LCBOP/Higher-Symm/SD-CG/FIRE-CG
REM
REM
REM
REM
REM
REM ./C.cell (b20cbc046b6831c77cfcea5457e17084)
REM AIRSS Version 0.9.1 bugfix July 2018 build 013d7b7c2542+ Fri, 06 Jul 2018 19:26:36 +0100
REM compiler GCC version 9.2.1 20190827 (Red Hat 9.2.1-1)
REM options -cpp -mtune=generic -march=x86-64 -g -O0 -fpre-include=/usr/include/finclude/math-vector-fortran.h
REM seed -1109532167 -1651604705 2100046540 -1413847613 304519287 1847070997 -1220597957 -2025762989 -1291360703 -807536903 2021503708 1430578307 1137081162 404164455 594619168 -881004141 -1213148889 -1974258385 1558214705 -1691971586 1553078043 -906736247 -783866389 2147455025 1341845843 -582905366 -185670701 1724016329 634654717 -310494667 2087697924 -450930106 1552024761
REM
CELL 1.54180   50.00000   50.00000   50.00000   90.00000   90.00000   90.00000
LATT -1
SFAC C  
C      1  0.4390680000000  0.4373420000000  0.4137020000000 1.0
C      1  0.4414210000000  0.4974510000000  0.3982240000000 1.0
C      1  0.5163020000000  0.5078900000000  0.4685040000000 1.0
C      1  0.6241480000000  0.5069640000000  0.4606310000000 1.0
C      1  0.5385680000000  0.5067050000000  0.5945370000000 1.0
C      1  0.5130700000000  0.5899530000000  0.5792290000000 1.0
C      1  0.5165840000000  0.5578310000000  0.5224060000000 1.0
C      1  0.4976930000000  0.4780270000000  0.4297210000000 1.0
C      1  0.4136920000000  0.4160990000000  0.4697770000000 1.0
C      1  0.5342210000000  0.5451230000000  0.5709760000000 1.0
C      1  0.4368880000000  0.5024530000000  0.5505170000000 1.0
C      1  0.5874300000000  0.5282210000000  0.5800790000000 1.0
C      1  0.5200450000000  0.4951240000000  0.5155040000000 1.0
C      1  0.5207060000000  0.4528610000000  0.5480910000000 1.0
C      1  0.4205850000000  0.4802550000000  0.5439410000000 1.0
C      1  0.5467290000000  0.4561170000000  0.5296900000000 1.0
C      1  0.4652000000000  0.5209690000000  0.4320030000000 1.0
C      1  0.4169630000000  0.5540780000000  0.4691440000000 1.0
C      1  0.4764700000000  0.6003250000000  0.4798920000000 1.0
C      1  0.4310620000000  0.6157160000000  0.5372700000000 1.0
C      1  0.4268490000000  0.6311130000000  0.5578700000000 1.0
C      1  0.3929020000000  0.5551870000000  0.4562400000000 1.0
C      1  0.5285660000000  0.5334670000000  0.4682670000000 1.0
C      1  0.5250810000000  0.4114510000000  0.5262120000000 1.0
C      1  0.5557350000000  0.4828050000000  0.4825770000000 1.0
C      1  0.4804620000000  0.5516920000000  0.5551010000000 1.0
C      1  0.5484570000000  0.5439750000000  0.4873410000000 1.0
C      1  0.4258700000000  0.3912120000000  0.4749120000000 1.0
C      1  0.4174670000000  0.5001700000000  0.4983550000000 1.0
C      1  0.4745290000000  0.5275170000000  0.5646460000000 1.0
C      1  0.4919630000000  0.3764980000000  0.5062200000000 1.0
C      1  0.6153910000000  0.5541810000000  0.4625970000000 1.0
C      1  0.5156440000000  0.5438770000000  0.4042370000000 1.0
C      1  0.5128020000000  0.4256400000000  0.5475950000000 1.0
C      1  0.4845240000000  0.4536290000000  0.4234760000000 1.0
C      1  0.4820750000000  0.4814010000000  0.5491120000000 1.0
C      1  0.5080370000000  0.4743460000000  0.5625780000000 1.0
C      1  0.4411350000000  0.5562620000000  0.4551700000000 1.0
C      1  0.4994790000000  0.5390880000000  0.5095450000000 1.0
C      1  0.4642140000000  0.5020670000000  0.5586350000000 1.0
C      1  0.4973860000000  0.5701480000000  0.5417440000000 1.0
C      1  0.6326370000000  0.5329170000000  0.4629660000000 1.0
C      1  0.5653920000000  0.4505140000000  0.5769380000000 1.0
C      1  0.5346330000000  0.4995720000000  0.4120000000000 1.0
C      1  0.5253470000000  0.5922310000000  0.4735110000000 1.0
C      1  0.4764280000000  0.4734120000000  0.5201300000000 1.0
C      1  0.5818650000000  0.5235930000000  0.4492240000000 1.0
C      1  0.4305620000000  0.4005900000000  0.5231380000000 1.0
C      1  0.5278450000000  0.4808640000000  0.4338400000000 1.0
C      1  0.4251200000000  0.4282900000000  0.5232460000000 1.0
C      1  0.5593670000000  0.3933830000000  0.4326190000000 1.0
C      1  0.5874880000000  0.5501940000000  0.4588710000000 1.0
C      1  0.4166760000000  0.4764130000000  0.5154580000000 1.0
C      1  0.5687160000000  0.4517370000000  0.5500870000000 1.0
C      1  0.5836630000000  0.4840650000000  0.4785320000000 1.0
C      1  0.5748750000000  0.5702140000000  0.5490740000000 1.0
C      1  0.6114760000000  0.4904380000000  0.5205150000000 1.0
C      1  0.4093310000000  0.4713270000000  0.4330670000000 1.0
C      1  0.4877320000000  0.5052270000000  0.4234990000000 1.0
C      1  0.4203660000000  0.4989140000000  0.4704610000000 1.0
C      1  0.5430270000000  0.5419670000000  0.3939010000000 1.0
C      1  0.3988450000000  0.4496310000000  0.5826140000000 1.0
C      1  0.5138590000000  0.3882300000000  0.5158440000000 1.0
C      1  0.5148490000000  0.4138100000000  0.4217150000000 1.0
C      1  0.4781870000000  0.4482410000000  0.5075790000000 1.0
C      1  0.4789580000000  0.4956620000000  0.5010350000000 1.0
C      1  0.5937510000000  0.5357650000000  0.5215570000000 1.0
C      1  0.5303300000000  0.4198380000000  0.4641880000000 1.0
C      1  0.4889840000000  0.4984060000000  0.4741930000000 1.0
C      1  0.5845560000000  0.5561470000000  0.5725890000000 1.0
C      1  0.4981400000000  0.5122420000000  0.5144070000000 1.0
C      1  0.5470440000000  0.4262060000000  0.4854730000000 1.0
C      1  0.5443390000000  0.5767740000000  0.4577400000000 1.0
C      1  0.5540550000000  0.5169420000000  0.3995030000000 1.0
C      1  0.5102510000000  0.5584180000000  0.4276610000000 1.0
C      1  0.5455790000000  0.5259650000000  0.5514920000000 1.0
C      1  0.5297580000000  0.5537600000000  0.4472140000000 1.0
C      1  0.4616200000000  0.4528730000000  0.4065640000000 1.0
C      1  0.5056740000000  0.5392330000000  0.6120740000000 1.0
C      1  0.5655700000000  0.5625720000000  0.4713820000000 1.0
C      1  0.4248590000000  0.3852440000000  0.5457890000000 1.0
C      1  0.5269410000000  0.4816980000000  0.5852680000000 1.0
C      1  0.4661420000000  0.3769610000000  0.4998110000000 1.0
C      1  0.4369420000000  0.5987990000000  0.5159230000000 1.0
C      1  0.6005900000000  0.4769530000000  0.5000570000000 1.0
C      1  0.5673130000000  0.5125210000000  0.5938660000000 1.0
C      1  0.5136810000000  0.6150630000000  0.5392650000000 1.0
C      1  0.4163000000000  0.4494270000000  0.5065060000000 1.0
C      1  0.4234210000000  0.3703530000000  0.4574420000000 1.0
C      1  0.4576520000000  0.6047510000000  0.4980500000000 1.0
C      1  0.5357250000000  0.5743070000000  0.5716090000000 1.0
C      1  0.5432530000000  0.4301280000000  0.5127470000000 1.0
C      1  0.4994270000000  0.5961830000000  0.5545730000000 1.0
C      1  0.4195340000000  0.5263480000000  0.5106010000000 1.0
C      1  0.4183030000000  0.5514200000000  0.4974140000000 1.0
C      1  0.5382530000000  0.6040930000000  0.5285190000000 1.0
C      1  0.5371690000000  0.4075630000000  0.4388640000000 1.0
C      1  0.5354810000000  0.4867060000000  0.4619130000000 1.0
C      1  0.4223230000000  0.4945490000000  0.4428880000000 1.0
C      1  0.6057090000000  0.5145030000000  0.5630940000000 1.0
C      1  0.4226700000000  0.5750630000000  0.5119040000000 1.0
C      1  0.4965330000000  0.5870680000000  0.4651370000000 1.0
C      1  0.4146000000000  0.3841920000000  0.5703450000000 1.0
C      1  0.4276380000000  0.5259150000000  0.5376730000000 1.0
C      1  0.4954170000000  0.4304930000000  0.4350510000000 1.0
C      1  0.4654100000000  0.5481540000000  0.4434890000000 1.0
C      1  0.5447830000000  0.4599260000000  0.5917790000000 1.0
C      1  0.4550050000000  0.4753150000000  0.3904140000000 1.0
C      1  0.4403380000000  0.5079810000000  0.4248070000000 1.0
C      1  0.5960490000000  0.5010590000000  0.4591700000000 1.0
C      1  0.5237170000000  0.5309770000000  0.5936290000000 1.0
C      1  0.5026260000000  0.4293520000000  0.4634050000000 1.0
C      1  0.5091180000000  0.5158490000000  0.4079600000000 1.0
C      1  0.5522520000000  0.5877470000000  0.5505820000000 1.0
C      1  0.4094070000000  0.4402130000000  0.4808550000000 1.0
C      1  0.3974450000000  0.4252730000000  0.5932420000000 1.0
C      1  0.5467730000000  0.4841510000000  0.5175630000000 1.0
C      1  0.6067920000000  0.5140910000000  0.5347760000000 1.0
C      1  0.4868860000000  0.4357240000000  0.4855390000000 1.0
C      1  0.4878750000000  0.5670460000000  0.4437860000000 1.0
C      1  0.4406580000000  0.3885770000000  0.4992550000000 1.0
C      1  0.5570780000000  0.5048780000000  0.5375780000000 1.0
C      1  0.4065580000000  0.4666710000000  0.5637860000000 1.0
C      1  0.5453870000000  0.5525950000000  0.5142850000000 1.0
C      1  0.5724550000000  0.5539330000000  0.5260610000000 1.0
C      1  0.4157840000000  0.4472230000000  0.4230970000000 1.0
C      1  0.4035740000000  0.3996440000000  0.5891010000000 1.0
C      1  0.5358460000000  0.6015080000000  0.4993640000000 1.0
END
