TITL C-3623287-7182-1352 -1.24412258566097e-07 125000 -254.991107034485 0 0 42 (C3i) n - 1
REM
REM in /home/nfs/bkarasulu/CARBON/AIRSS/Generating-Clusters/LCBOP/Higher-Symm/SD-CG/FIRE-CG
REM
REM
REM
REM
REM
REM ./C.cell (b20cbc046b6831c77cfcea5457e17084)
REM AIRSS Version 0.9.1 bugfix July 2018 build 013d7b7c2542+ Fri, 06 Jul 2018 19:26:36 +0100
REM compiler GCC version 9.2.1 20190827 (Red Hat 9.2.1-1)
REM options -cpp -mtune=generic -march=x86-64 -g -O0 -fpre-include=/usr/include/finclude/math-vector-fortran.h
REM seed -1979992831 1062666740 -1203620718 -1577964451 1659061109 -223423818 -541956139 907254878 759960220 -1272317627 -298354707 931670295 1713767420 1668405499 -129304610 1086895079 1526874346 540509788 1317107093 -2059805608 1304687867 893343599 -83092579 587353474 -1898515115 -1518936675 1941920735 875077145 -1991275086 521454359 62633937 -1450736761 1323772609
REM
CELL 1.54180   50.00000   50.00000   50.00000   90.00000   90.00000   90.00000
LATT -1
SFAC C  
C      1  0.4916290000000  0.4928450000000  0.5718580000000 1.0
C      1  0.5084220000000  0.4342000000000  0.5297360000000 1.0
C      1  0.4916510000000  0.4413400000000  0.4578800000000 1.0
C      1  0.5083710000000  0.5071550000000  0.4281420000000 1.0
C      1  0.4915780000000  0.5658000000000  0.4702640000000 1.0
C      1  0.5083490000000  0.5586600000000  0.5421200000000 1.0
C      1  0.5489560000000  0.4639980000000  0.5061280000000 1.0
C      1  0.4510780000000  0.4766450000000  0.4718660000000 1.0
C      1  0.5489240000000  0.5127340000000  0.4657270000000 1.0
C      1  0.4510440000000  0.5360020000000  0.4938720000000 1.0
C      1  0.5489220000000  0.5233550000000  0.5281340000000 1.0
C      1  0.4510760000000  0.4872660000000  0.5342730000000 1.0
C      1  0.4663390000000  0.4999280000000  0.4663120000000 1.0
C      1  0.5336400000000  0.5291710000000  0.4831070000000 1.0
C      1  0.4663260000000  0.5291830000000  0.5168030000000 1.0
C      1  0.5336610000000  0.5000720000000  0.5336880000000 1.0
C      1  0.4663600000000  0.4708290000000  0.5168930000000 1.0
C      1  0.5336740000000  0.4708170000000  0.4831970000000 1.0
C      1  0.5405460000000  0.5422230000000  0.5081480000000 1.0
C      1  0.4594240000000  0.5140160000000  0.5406240000000 1.0
C      1  0.5405900000000  0.4718650000000  0.5324670000000 1.0
C      1  0.4594540000000  0.4577770000000  0.4918520000000 1.0
C      1  0.5405760000000  0.4859840000000  0.4593760000000 1.0
C      1  0.4594100000000  0.5281350000000  0.4675330000000 1.0
C      1  0.4951790000000  0.4276070000000  0.5066730000000 1.0
C      1  0.5048850000000  0.4580290000000  0.4406440000000 1.0
C      1  0.4951120000000  0.5304140000000  0.4339720000000 1.0
C      1  0.5048210000000  0.5723930000000  0.4933270000000 1.0
C      1  0.4951150000000  0.5419710000000  0.5593560000000 1.0
C      1  0.5048880000000  0.4695860000000  0.5660280000000 1.0
C      1  0.4941800000000  0.4782430000000  0.5151600000000 1.0
C      1  0.5058470000000  0.4759980000000  0.4887400000000 1.0
C      1  0.4941650000000  0.4977450000000  0.4735810000000 1.0
C      1  0.5058200000000  0.5217570000000  0.4848400000000 1.0
C      1  0.4941530000000  0.5240020000000  0.5112600000000 1.0
C      1  0.5058350000000  0.5022550000000  0.5264190000000 1.0
C      1  0.4798530000000  0.5173490000000  0.5617700000000 1.0
C      1  0.5201710000000  0.4551990000000  0.5459170000000 1.0
C      1  0.4798950000000  0.4378150000000  0.4841520000000 1.0
C      1  0.5201470000000  0.4826510000000  0.4382300000000 1.0
C      1  0.4798290000000  0.5448010000000  0.4540830000000 1.0
C      1  0.5201050000000  0.5621850000000  0.5158480000000 1.0
END
