TITL C-3623284-6838-465 0.0655487544504759 125000 -451.943657112108 0 0 73 (C1) n - 1
REM
REM in /home/nfs/bkarasulu/CARBON/AIRSS/Generating-Clusters/LCBOP/Higher-Symm/SD-CG/FIRE-CG
REM
REM
REM
REM
REM
REM ./C.cell (b20cbc046b6831c77cfcea5457e17084)
REM AIRSS Version 0.9.1 bugfix July 2018 build 013d7b7c2542+ Fri, 06 Jul 2018 19:26:36 +0100
REM compiler GCC version 9.2.1 20190827 (Red Hat 9.2.1-1)
REM options -cpp -mtune=generic -march=x86-64 -g -O0 -fpre-include=/usr/include/finclude/math-vector-fortran.h
REM seed -724540034 1765118099 -370849997 403238426 1134333816 1647791357 1235666958 -203965685 1805578313 1552205937 1343455720 533873553 1010231236 -1882309128 369399023 -925577357 -2101921950 1859086252 -1061871101 -109778732 1916135866 -1570330589 1241459510 445123696 -1324084425 -55033689 1229771248 -1155754620 -227170317 298516698 105987923 -1502660574 1350174173
REM
CELL 1.54180   50.00000   50.00000   50.00000   90.00000   90.00000   90.00000
LATT -1
SFAC C  
C      1  0.5026720000000  0.5603010000000  0.4817640000000 1.0
C      1  0.4407090000000  0.5213800000000  0.4837810000000 1.0
C      1  0.4582200000000  0.4510100000000  0.4753640000000 1.0
C      1  0.5286880000000  0.4524970000000  0.4723240000000 1.0
C      1  0.5587320000000  0.5162700000000  0.4727610000000 1.0
C      1  0.4516250000000  0.4770680000000  0.4630100000000 1.0
C      1  0.5056620000000  0.4477170000000  0.4546540000000 1.0
C      1  0.5473310000000  0.4954270000000  0.4552430000000 1.0
C      1  0.5185990000000  0.5435730000000  0.4636260000000 1.0
C      1  0.4637330000000  0.5329120000000  0.4690270000000 1.0
C      1  0.4846710000000  0.5952800000000  0.5230640000000 1.0
C      1  0.4034980000000  0.5094390000000  0.5267680000000 1.0
C      1  0.4613000000000  0.4098140000000  0.5217440000000 1.0
C      1  0.5550810000000  0.4368960000000  0.5280950000000 1.0
C      1  0.5891430000000  0.5375930000000  0.5158630000000 1.0
C      1  0.5483140000000  0.5608040000000  0.4968260000000 1.0
C      1  0.4556120000000  0.5608310000000  0.5057770000000 1.0
C      1  0.4282610000000  0.4751490000000  0.5039740000000 1.0
C      1  0.4974140000000  0.4262440000000  0.4946740000000 1.0
C      1  0.5691890000000  0.4723540000000  0.4915300000000 1.0
C      1  0.4354950000000  0.5399670000000  0.5062400000000 1.0
C      1  0.4426700000000  0.4503580000000  0.5009320000000 1.0
C      1  0.5204170000000  0.4442050000000  0.4985470000000 1.0
C      1  0.5704650000000  0.5018210000000  0.4950260000000 1.0
C      1  0.5212620000000  0.5711310000000  0.5021870000000 1.0
C      1  0.5259050000000  0.4486690000000  0.5296800000000 1.0
C      1  0.5730760000000  0.5108580000000  0.5249090000000 1.0
C      1  0.5100580000000  0.5812980000000  0.5262900000000 1.0
C      1  0.4224920000000  0.5311160000000  0.5299160000000 1.0
C      1  0.4502080000000  0.4364120000000  0.5244420000000 1.0
C      1  0.4667960000000  0.4923410000000  0.4446650000000 1.0
C      1  0.5064730000000  0.4587350000000  0.4290090000000 1.0
C      1  0.5250210000000  0.5018600000000  0.4384220000000 1.0
C      1  0.5071380000000  0.5226610000000  0.4476270000000 1.0
C      1  0.4788440000000  0.5174990000000  0.4503410000000 1.0
C      1  0.5709270000000  0.4593100000000  0.5173100000000 1.0
C      1  0.5682220000000  0.5590390000000  0.5171400000000 1.0
C      1  0.4638070000000  0.5758160000000  0.5283480000000 1.0
C      1  0.4191630000000  0.4850540000000  0.5288800000000 1.0
C      1  0.4894600000000  0.4152100000000  0.5198190000000 1.0
C      1  0.4832610000000  0.4373950000000  0.4712220000000 1.0
C      1  0.5509410000000  0.4693700000000  0.4687650000000 1.0
C      1  0.5460340000000  0.5417170000000  0.4744510000000 1.0
C      1  0.4746510000000  0.5554920000000  0.4838600000000 1.0
C      1  0.4354560000000  0.4931840000000  0.4820160000000 1.0
C      1  0.5243580000000  0.4952040000000  0.5648980000000 1.0
C      1  0.5356240000000  0.5216040000000  0.5639860000000 1.0
C      1  0.5239460000000  0.5478020000000  0.5618150000000 1.0
C      1  0.4646430000000  0.5341680000000  0.5579460000000 1.0
C      1  0.4591520000000  0.4711770000000  0.5598910000000 1.0
C      1  0.5582100000000  0.5551940000000  0.5436300000000 1.0
C      1  0.4744570000000  0.5601020000000  0.5510760000000 1.0
C      1  0.4390650000000  0.4903040000000  0.5507090000000 1.0
C      1  0.4967820000000  0.4379390000000  0.5394520000000 1.0
C      1  0.5640450000000  0.4817970000000  0.5361020000000 1.0
C      1  0.5178240000000  0.4999000000000  0.4926630000000 1.0
C      1  0.5162850000000  0.5167660000000  0.5142940000000 1.0
C      1  0.4915560000000  0.5117920000000  0.5279460000000 1.0
C      1  0.4780800000000  0.4925180000000  0.5113050000000 1.0
C      1  0.4944890000000  0.4856290000000  0.4903760000000 1.0
C      1  0.5045230000000  0.5637920000000  0.5498720000000 1.0
C      1  0.4400020000000  0.5211320000000  0.5516700000000 1.0
C      1  0.4688260000000  0.4499920000000  0.5433650000000 1.0
C      1  0.5352270000000  0.4761210000000  0.5459010000000 1.0
C      1  0.5600380000000  0.5260960000000  0.5488560000000 1.0
C      1  0.5165920000000  0.4830160000000  0.4187630000000 1.0
C      1  0.4774200000000  0.4779630000000  0.5810080000000 1.0
C      1  0.4758960000000  0.4681220000000  0.6062860000000 1.0
C      1  0.4967350000000  0.4961850000000  0.5717840000000 1.0
C      1  0.5211370000000  0.4993700000000  0.3402370000000 1.0
C      1  0.4851830000000  0.5154660000000  0.5545580000000 1.0
C      1  0.5197300000000  0.4938250000000  0.3656720000000 1.0
C      1  0.5182880000000  0.4882400000000  0.3915290000000 1.0
END
