TITL C-3623289-7120-98 -2.39642000639855e-07 125000 -354.305633491391 0 0 57 (C1) n - 1
REM
REM in /home/nfs/bkarasulu/CARBON/AIRSS/Generating-Clusters/LCBOP/Higher-Symm/SD-CG/FIRE-CG
REM
REM
REM
REM
REM
REM ./C.cell (b20cbc046b6831c77cfcea5457e17084)
REM AIRSS Version 0.9.1 bugfix July 2018 build 013d7b7c2542+ Fri, 06 Jul 2018 19:26:36 +0100
REM compiler GCC version 9.2.1 20190827 (Red Hat 9.2.1-1)
REM options -cpp -mtune=generic -march=x86-64 -g -O0 -fpre-include=/usr/include/finclude/math-vector-fortran.h
REM seed -1542332386 -176085 998626161 -213600578 -727505533 -402260159 -1687325318 380390585 -1988933417 -2009867021 -699646073 1537805240 -158203131 -1349967689 -1090117947 -1728105895 -1650653035 -460336225 -625129301 1496955075 1413902334 -195990091 1118122651 -1817081612 -1680640955 -1509186683 923608409 -826263670 957582306 1378430026 962686736 1495314188 -1131346989
REM
CELL 1.54180   50.00000   50.00000   50.00000   90.00000   90.00000   90.00000
LATT -1
SFAC C  
C      1  0.4922030000000  0.4645530000000  0.5695460000000 1.0
C      1  0.5029560000000  0.4259930000000  0.4874550000000 1.0
C      1  0.4954000000000  0.4896550000000  0.4211380000000 1.0
C      1  0.4962480000000  0.5706430000000  0.4643540000000 1.0
C      1  0.5017900000000  0.5532770000000  0.5551010000000 1.0
C      1  0.5110780000000  0.4383590000000  0.4618520000000 1.0
C      1  0.5084270000000  0.5161510000000  0.4264210000000 1.0
C      1  0.5097660000000  0.5732160000000  0.4910410000000 1.0
C      1  0.5122180000000  0.5264630000000  0.5641030000000 1.0
C      1  0.5068210000000  0.4498330000000  0.5489650000000 1.0
C      1  0.4729490000000  0.4657100000000  0.4561540000000 1.0
C      1  0.4735010000000  0.5301750000000  0.4535530000000 1.0
C      1  0.4735820000000  0.5534300000000  0.5133840000000 1.0
C      1  0.4707500000000  0.5040400000000  0.5544310000000 1.0
C      1  0.4698380000000  0.4481430000000  0.5198040000000 1.0
C      1  0.5106280000000  0.4643840000000  0.4196050000000 1.0
C      1  0.5101730000000  0.5642980000000  0.4390940000000 1.0
C      1  0.5153050000000  0.5744420000000  0.5403970000000 1.0
C      1  0.5078280000000  0.4826450000000  0.5861800000000 1.0
C      1  0.5215590000000  0.4238850000000  0.5110680000000 1.0
C      1  0.5077550000000  0.4792840000000  0.5102140000000 1.0
C      1  0.5110640000000  0.4827270000000  0.4821670000000 1.0
C      1  0.5129380000000  0.5107280000000  0.4762660000000 1.0
C      1  0.5119010000000  0.5245960000000  0.5013680000000 1.0
C      1  0.5087120000000  0.5050380000000  0.5217140000000 1.0
C      1  0.4972040000000  0.5098690000000  0.5461300000000 1.0
C      1  0.4952520000000  0.4592560000000  0.5246780000000 1.0
C      1  0.4998260000000  0.4643940000000  0.4650920000000 1.0
C      1  0.5004550000000  0.5206660000000  0.4537020000000 1.0
C      1  0.5002090000000  0.5494340000000  0.5040830000000 1.0
C      1  0.4695120000000  0.5480110000000  0.5404570000000 1.0
C      1  0.4664450000000  0.4761370000000  0.5584600000000 1.0
C      1  0.4691790000000  0.4376170000000  0.4940420000000 1.0
C      1  0.4693720000000  0.4864600000000  0.4369420000000 1.0
C      1  0.4701450000000  0.5550800000000  0.4667320000000 1.0
C      1  0.4536870000000  0.5237350000000  0.5436450000000 1.0
C      1  0.4521590000000  0.4651370000000  0.5348550000000 1.0
C      1  0.4554930000000  0.4564170000000  0.4763640000000 1.0
C      1  0.4555270000000  0.5087010000000  0.4501440000000 1.0
C      1  0.4555830000000  0.5500100000000  0.4917020000000 1.0
C      1  0.5311670000000  0.4188960000000  0.4207240000000 1.0
C      1  0.5262620000000  0.5495920000000  0.3941730000000 1.0
C      1  0.5324850000000  0.6120560000000  0.5123340000000 1.0
C      1  0.5508420000000  0.4936010000000  0.5687250000000 1.0
C      1  0.5537540000000  0.4489010000000  0.5453590000000 1.0
C      1  0.4395540000000  0.4780530000000  0.4879510000000 1.0
C      1  0.4397500000000  0.5042560000000  0.4739810000000 1.0
C      1  0.4394920000000  0.5259290000000  0.4944430000000 1.0
C      1  0.4383950000000  0.5131830000000  0.5212450000000 1.0
C      1  0.4380880000000  0.4835590000000  0.5172780000000 1.0
C      1  0.5155260000000  0.5435450000000  0.4185750000000 1.0
C      1  0.5198710000000  0.5878990000000  0.5143360000000 1.0
C      1  0.5262900000000  0.5044590000000  0.5787320000000 1.0
C      1  0.5296730000000  0.4359350000000  0.5377200000000 1.0
C      1  0.5183280000000  0.4393600000000  0.4334900000000 1.0
C      1  0.5930510000000  0.4748080000000  0.5553320000000 1.0
C      1  0.5657120000000  0.4724200000000  0.5564930000000 1.0
END
