TITL C-3623288-6813-620 0.0429468738383347 125000 -1020.14937734675 0 0 169 (C1) n - 1
REM
REM in /home/nfs/bkarasulu/CARBON/AIRSS/Generating-Clusters/LCBOP/Higher-Symm/SD-CG/FIRE-CG
REM
REM
REM
REM
REM
REM ./C.cell (b20cbc046b6831c77cfcea5457e17084)
REM AIRSS Version 0.9.1 bugfix July 2018 build 013d7b7c2542+ Fri, 06 Jul 2018 19:26:36 +0100
REM compiler GCC version 9.2.1 20190827 (Red Hat 9.2.1-1)
REM options -cpp -mtune=generic -march=x86-64 -g -O0 -fpre-include=/usr/include/finclude/math-vector-fortran.h
REM seed -823341102 168034934 668919148 -773457743 1747593092 1021722862 2043709797 -1728079625 676790879 -1901027582 2074931970 -205810150 -931123419 835037047 1538730360 -479335676 -1222071146 1263950097 1331326431 -1201945626 711593315 -891662562 1497378530 -194669598 1143555918 -1946949141 1562090851 -1679360704 1207944396 352686202 1730530229 1153321141 -133429592
REM
CELL 1.54180   50.00000   50.00000   50.00000   90.00000   90.00000   90.00000
LATT -1
SFAC C  
C      1  0.5558040000000  0.4449380000000  0.4968160000000 1.0
C      1  0.5368710000000  0.5369730000000  0.5422190000000 1.0
C      1  0.5353460000000  0.5145770000000  0.4507800000000 1.0
C      1  0.4922980000000  0.5958770000000  0.5369680000000 1.0
C      1  0.4914910000000  0.4871470000000  0.4021950000000 1.0
C      1  0.4898940000000  0.4314820000000  0.5593380000000 1.0
C      1  0.6016660000000  0.5193260000000  0.4537690000000 1.0
C      1  0.6053150000000  0.4433060000000  0.5149770000000 1.0
C      1  0.6056780000000  0.5365150000000  0.5399450000000 1.0
C      1  0.5572770000000  0.5836100000000  0.5426170000000 1.0
C      1  0.5540950000000  0.4931120000000  0.4084230000000 1.0
C      1  0.5596480000000  0.4285730000000  0.5475320000000 1.0
C      1  0.4576110000000  0.5421400000000  0.5517140000000 1.0
C      1  0.4599750000000  0.5220400000000  0.4379030000000 1.0
C      1  0.4617780000000  0.4410860000000  0.4898380000000 1.0
C      1  0.5569330000000  0.4654880000000  0.5772800000000 1.0
C      1  0.5458900000000  0.5886920000000  0.4936380000000 1.0
C      1  0.5350530000000  0.4532890000000  0.4303120000000 1.0
C      1  0.3985130000000  0.5558660000000  0.5494260000000 1.0
C      1  0.3997540000000  0.5131320000000  0.4245860000000 1.0
C      1  0.3992610000000  0.4304790000000  0.5206960000000 1.0
C      1  0.4424810000000  0.5223760000000  0.5926000000000 1.0
C      1  0.4420350000000  0.5668920000000  0.4310330000000 1.0
C      1  0.4377860000000  0.4042900000000  0.4712860000000 1.0
C      1  0.5196150000000  0.5585970000000  0.5975450000000 1.0
C      1  0.5186950000000  0.5528920000000  0.3978520000000 1.0
C      1  0.5150390000000  0.3914600000000  0.5088200000000 1.0
C      1  0.5594660000000  0.5757840000000  0.4707470000000 1.0
C      1  0.5532190000000  0.4402200000000  0.4484520000000 1.0
C      1  0.5671620000000  0.4915170000000  0.5807590000000 1.0
C      1  0.4011740000000  0.4504260000000  0.4724470000000 1.0
C      1  0.4020900000000  0.5034380000000  0.5545610000000 1.0
C      1  0.4050480000000  0.5422100000000  0.4686640000000 1.0
C      1  0.5063270000000  0.4574430000000  0.4359990000000 1.0
C      1  0.5302840000000  0.4676760000000  0.5645090000000 1.0
C      1  0.5176570000000  0.5755160000000  0.4959030000000 1.0
C      1  0.5141560000000  0.5324020000000  0.6089050000000 1.0
C      1  0.5131720000000  0.5757510000000  0.4140910000000 1.0
C      1  0.5108710000000  0.3865230000000  0.4799920000000 1.0
C      1  0.4902820000000  0.4769310000000  0.5106860000000 1.0
C      1  0.4924850000000  0.5225460000000  0.5264040000000 1.0
C      1  0.4909930000000  0.5106930000000  0.4719050000000 1.0
C      1  0.4980720000000  0.5408420000000  0.4615570000000 1.0
C      1  0.5085320000000  0.4370350000000  0.4868180000000 1.0
C      1  0.5009220000000  0.5104190000000  0.5546260000000 1.0
C      1  0.6072250000000  0.4618250000000  0.5374400000000 1.0
C      1  0.6034020000000  0.5532900000000  0.5170760000000 1.0
C      1  0.5980040000000  0.4912890000000  0.4560570000000 1.0
C      1  0.4352440000000  0.4659990000000  0.5540450000000 1.0
C      1  0.4355470000000  0.5642890000000  0.4990470000000 1.0
C      1  0.4354560000000  0.4632650000000  0.4392960000000 1.0
C      1  0.4170150000000  0.4427910000000  0.4497800000000 1.0
C      1  0.4203870000000  0.4867350000000  0.5689440000000 1.0
C      1  0.4205130000000  0.5653370000000  0.4741770000000 1.0
C      1  0.4887300000000  0.4036850000000  0.5198990000000 1.0
C      1  0.4950530000000  0.5728300000000  0.5918810000000 1.0
C      1  0.4939810000000  0.5413350000000  0.3878050000000 1.0
C      1  0.4378000000000  0.5387970000000  0.4377570000000 1.0
C      1  0.4364980000000  0.4284450000000  0.4884730000000 1.0
C      1  0.4360380000000  0.5319640000000  0.5658870000000 1.0
C      1  0.4246400000000  0.4913060000000  0.4713140000000 1.0
C      1  0.4290200000000  0.4921650000000  0.5164970000000 1.0
C      1  0.4311110000000  0.5181000000000  0.5047420000000 1.0
C      1  0.4066180000000  0.4238390000000  0.5457750000000 1.0
C      1  0.4098600000000  0.5797520000000  0.5434730000000 1.0
C      1  0.4097200000000  0.4959000000000  0.4062210000000 1.0
C      1  0.4460480000000  0.6035660000000  0.4797370000000 1.0
C      1  0.4424820000000  0.4271230000000  0.4138370000000 1.0
C      1  0.4465100000000  0.4625720000000  0.5976830000000 1.0
C      1  0.5460290000000  0.5102770000000  0.5843270000000 1.0
C      1  0.5411160000000  0.5672050000000  0.4501960000000 1.0
C      1  0.5430050000000  0.4162600000000  0.4618220000000 1.0
C      1  0.5568090000000  0.5978240000000  0.5181830000000 1.0
C      1  0.5469550000000  0.4659710000000  0.4079460000000 1.0
C      1  0.5689350000000  0.4408800000000  0.5712270000000 1.0
C      1  0.4317860000000  0.4170860000000  0.4424960000000 1.0
C      1  0.4369140000000  0.4920150000000  0.5933100000000 1.0
C      1  0.4362950000000  0.5839510000000  0.4566060000000 1.0
C      1  0.5274190000000  0.5473470000000  0.4979930000000 1.0
C      1  0.5318870000000  0.4883840000000  0.4909410000000 1.0
C      1  0.5376520000000  0.4705410000000  0.5348170000000 1.0
C      1  0.5686470000000  0.5454220000000  0.4186130000000 1.0
C      1  0.5705980000000  0.3988160000000  0.5102680000000 1.0
C      1  0.5720310000000  0.5497110000000  0.5820800000000 1.0
C      1  0.5930360000000  0.4673540000000  0.4705150000000 1.0
C      1  0.6069760000000  0.4882720000000  0.5486990000000 1.0
C      1  0.6029760000000  0.5529110000000  0.4887500000000 1.0
C      1  0.4485360000000  0.5406980000000  0.5073140000000 1.0
C      1  0.4470090000000  0.4823860000000  0.4564810000000 1.0
C      1  0.4452300000000  0.4710390000000  0.5279460000000 1.0
C      1  0.5840150000000  0.5616410000000  0.4678460000000 1.0
C      1  0.5679210000000  0.4541950000000  0.4707810000000 1.0
C      1  0.5903100000000  0.5021880000000  0.5689840000000 1.0
C      1  0.4884900000000  0.5676050000000  0.4569410000000 1.0
C      1  0.4837150000000  0.4295020000000  0.4718980000000 1.0
C      1  0.4926880000000  0.4972540000000  0.5785600000000 1.0
C      1  0.5442100000000  0.4046300000000  0.5474380000000 1.0
C      1  0.5469090000000  0.5901100000000  0.5686280000000 1.0
C      1  0.5461040000000  0.5125100000000  0.3891030000000 1.0
C      1  0.4008160000000  0.4785030000000  0.4750850000000 1.0
C      1  0.4019610000000  0.4927300000000  0.5282530000000 1.0
C      1  0.4060690000000  0.5254130000000  0.4912640000000 1.0
C      1  0.4479390000000  0.3851300000000  0.4923020000000 1.0
C      1  0.4539880000000  0.5476390000000  0.6031800000000 1.0
C      1  0.4518510000000  0.5629110000000  0.4032200000000 1.0
C      1  0.4416460000000  0.4445800000000  0.5729470000000 1.0
C      1  0.4426970000000  0.5912480000000  0.5081680000000 1.0
C      1  0.4416650000000  0.4581550000000  0.4112260000000 1.0
C      1  0.4524770000000  0.5107620000000  0.3902540000000 1.0
C      1  0.4467820000000  0.3991940000000  0.5433770000000 1.0
C      1  0.4533130000000  0.5855680000000  0.5644530000000 1.0
C      1  0.5544670000000  0.4469120000000  0.5255670000000 1.0
C      1  0.5570430000000  0.5556640000000  0.5392700000000 1.0
C      1  0.5544220000000  0.5033000000000  0.4344920000000 1.0
C      1  0.4323900000000  0.4198440000000  0.5581390000000 1.0
C      1  0.4369080000000  0.5899270000000  0.5388490000000 1.0
C      1  0.4362440000000  0.4861830000000  0.3984850000000 1.0
C      1  0.5087260000000  0.4733650000000  0.5833540000000 1.0
C      1  0.5004540000000  0.5871770000000  0.4743270000000 1.0
C      1  0.4910510000000  0.4342610000000  0.4425720000000 1.0
C      1  0.4719100000000  0.5446010000000  0.5262670000000 1.0
C      1  0.4725670000000  0.4974260000000  0.4499440000000 1.0
C      1  0.4698790000000  0.4553520000000  0.5158110000000 1.0
C      1  0.4920570000000  0.5736620000000  0.5211200000000 1.0
C      1  0.4908100000000  0.4810490000000  0.4297410000000 1.0
C      1  0.4844150000000  0.4311380000000  0.5316430000000 1.0
C      1  0.4099110000000  0.4362600000000  0.4956140000000 1.0
C      1  0.4089260000000  0.5309600000000  0.5572640000000 1.0
C      1  0.4108100000000  0.5311450000000  0.4430550000000 1.0
C      1  0.5902440000000  0.5325390000000  0.5657200000000 1.0
C      1  0.5849340000000  0.5424240000000  0.4433770000000 1.0
C      1  0.5921910000000  0.4165990000000  0.5132000000000 1.0
C      1  0.5331130000000  0.5869300000000  0.4308580000000 1.0
C      1  0.5285930000000  0.3923130000000  0.4572310000000 1.0
C      1  0.5356040000000  0.5135970000000  0.6108220000000 1.0
C      1  0.4663660000000  0.5706350000000  0.5877940000000 1.0
C      1  0.4651640000000  0.5383850000000  0.3914960000000 1.0
C      1  0.4612210000000  0.3916700000000  0.5188900000000 1.0
C      1  0.4962770000000  0.4109680000000  0.4265210000000 1.0
C      1  0.5156740000000  0.4696360000000  0.6110490000000 1.0
C      1  0.5087570000000  0.6121190000000  0.4630870000000 1.0
C      1  0.5181790000000  0.4741610000000  0.5121430000000 1.0
C      1  0.5180040000000  0.5364110000000  0.5214120000000 1.0
C      1  0.5194490000000  0.4985410000000  0.4682940000000 1.0
C      1  0.5266550000000  0.5416800000000  0.4517430000000 1.0
C      1  0.5348010000000  0.4286040000000  0.4866320000000 1.0
C      1  0.5293310000000  0.5187330000000  0.5619980000000 1.0
C      1  0.5513270000000  0.5318400000000  0.4930750000000 1.0
C      1  0.5533650000000  0.5048990000000  0.5014880000000 1.0
C      1  0.5573960000000  0.4937720000000  0.5277220000000 1.0
C      1  0.5469260000000  0.5665750000000  0.5864620000000 1.0
C      1  0.5455760000000  0.5396570000000  0.3997570000000 1.0
C      1  0.5426270000000  0.3936080000000  0.5206480000000 1.0
C      1  0.5042860000000  0.4147070000000  0.5747240000000 1.0
C      1  0.5049910000000  0.6117900000000  0.5543300000000 1.0
C      1  0.5036120000000  0.4913260000000  0.3786530000000 1.0
C      1  0.4853860000000  0.3986240000000  0.4727970000000 1.0
C      1  0.4911780000000  0.5164000000000  0.6004520000000 1.0
C      1  0.4887050000000  0.5751840000000  0.4292040000000 1.0
C      1  0.5261410000000  0.4003540000000  0.5683740000000 1.0
C      1  0.5273110000000  0.6102280000000  0.5692720000000 1.0
C      1  0.5265440000000  0.5033090000000  0.3709880000000 1.0
C      1  0.6168380000000  0.5311780000000  0.4755840000000 1.0
C      1  0.6106120000000  0.4561310000000  0.4897830000000 1.0
C      1  0.6187070000000  0.5107870000000  0.5348140000000 1.0
C      1  0.5298730000000  0.4890200000000  0.6243010000000 1.0
C      1  0.5264990000000  0.6122930000000  0.4422440000000 1.0
C      1  0.5149970000000  0.3918420000000  0.4320640000000 1.0
C      1  0.4852200000000  0.5042260000000  0.5028360000000 1.0
END
