TITL C-3623287-7182-856 -2.25277388829633e-06 125000 -586.255840406841 0 0 95 (Cs) n - 1
REM
REM in /home/nfs/bkarasulu/CARBON/AIRSS/Generating-Clusters/LCBOP/Higher-Symm/SD-CG/FIRE-CG
REM
REM
REM
REM
REM
REM ./C.cell (b20cbc046b6831c77cfcea5457e17084)
REM AIRSS Version 0.9.1 bugfix July 2018 build 013d7b7c2542+ Fri, 06 Jul 2018 19:26:36 +0100
REM compiler GCC version 9.2.1 20190827 (Red Hat 9.2.1-1)
REM options -cpp -mtune=generic -march=x86-64 -g -O0 -fpre-include=/usr/include/finclude/math-vector-fortran.h
REM seed 305312071 1936351990 553784718 -1832485911 -403448400 1756436571 2059362631 -1510845121 -291352917 1213111718 -1303417151 1490862540 711869738 -337113641 1372930388 -1162735687 -171123278 1855938370 1105950442 -942194200 130194411 -1811154500 1417843346 1072921304 1115239485 -956006347 -461145984 1893257618 422557930 -1994631869 -578028808 1462106243 959266151
REM
CELL 1.54180   50.00000   50.00000   50.00000   90.00000   90.00000   90.00000
LATT -1
SFAC C  
C      1  0.5282000000000  0.5788690000000  0.4823320000000 1.0
C      1  0.4721670000000  0.4222780000000  0.4823380000000 1.0
C      1  0.5281990000000  0.4221260000000  0.4823340000000 1.0
C      1  0.4721680000000  0.5787170000000  0.4823370000000 1.0
C      1  0.5343210000000  0.5491450000000  0.5464710000000 1.0
C      1  0.4660380000000  0.4517070000000  0.5468420000000 1.0
C      1  0.5343200000000  0.4518510000000  0.5464720000000 1.0
C      1  0.4660380000000  0.5492900000000  0.5468410000000 1.0
C      1  0.5269420000000  0.5729650000000  0.5314170000000 1.0
C      1  0.4733260000000  0.4280020000000  0.5315160000000 1.0
C      1  0.5269410000000  0.4280310000000  0.5314190000000 1.0
C      1  0.4733270000000  0.5729940000000  0.5315140000000 1.0
C      1  0.4556000000000  0.5581490000000  0.4668820000000 1.0
C      1  0.5448590000000  0.4425260000000  0.4668650000000 1.0
C      1  0.4555990000000  0.4428460000000  0.4668830000000 1.0
C      1  0.5448600000000  0.5584680000000  0.4668640000000 1.0
C      1  0.4721810000000  0.4542500000000  0.4464220000000 1.0
C      1  0.5285050000000  0.5469730000000  0.4463540000000 1.0
C      1  0.4721810000000  0.5467450000000  0.4464210000000 1.0
C      1  0.5285040000000  0.4540210000000  0.4463550000000 1.0
C      1  0.5324860000000  0.4762750000000  0.5303930000000 1.0
C      1  0.4675850000000  0.5247820000000  0.5309030000000 1.0
C      1  0.5324860000000  0.5247210000000  0.5303930000000 1.0
C      1  0.4675850000000  0.4762150000000  0.5309040000000 1.0
C      1  0.5683400000000  0.5686090000000  0.5047450000000 1.0
C      1  0.4319760000000  0.4323950000000  0.5046640000000 1.0
C      1  0.5683390000000  0.4323850000000  0.5047460000000 1.0
C      1  0.4319760000000  0.5686010000000  0.5046620000000 1.0
C      1  0.5280850000000  0.5446200000000  0.5742130000000 1.0
C      1  0.4725880000000  0.4562530000000  0.5745290000000 1.0
C      1  0.5280840000000  0.4563770000000  0.5742140000000 1.0
C      1  0.4725880000000  0.5447440000000  0.5745280000000 1.0
C      1  0.4048800000000  0.5143010000000  0.4602670000000 1.0
C      1  0.5927830000000  0.4867170000000  0.4582760000000 1.0
C      1  0.4048790000000  0.4866940000000  0.4602670000000 1.0
C      1  0.5927830000000  0.5142760000000  0.4582760000000 1.0
C      1  0.4637050000000  0.5279260000000  0.4266710000000 1.0
C      1  0.5380840000000  0.4713780000000  0.4250120000000 1.0
C      1  0.4637040000000  0.4730680000000  0.4266720000000 1.0
C      1  0.5380840000000  0.5296150000000  0.4250110000000 1.0
C      1  0.5458720000000  0.5254070000000  0.5861430000000 1.0
C      1  0.4549770000000  0.4755550000000  0.5866320000000 1.0
C      1  0.5458710000000  0.4755900000000  0.5861430000000 1.0
C      1  0.4549770000000  0.5254430000000  0.5866310000000 1.0
C      1  0.5679640000000  0.5498940000000  0.4827280000000 1.0
C      1  0.4323730000000  0.4513280000000  0.4827740000000 1.0
C      1  0.5679640000000  0.4511000000000  0.4827290000000 1.0
C      1  0.4323740000000  0.5496680000000  0.4827720000000 1.0
C      1  0.5291070000000  0.4616040000000  0.3994370000000 1.0
C      1  0.4828670000000  0.5256910000000  0.4047260000000 1.0
C      1  0.5291070000000  0.5393890000000  0.3994370000000 1.0
C      1  0.4828670000000  0.4753030000000  0.4047270000000 1.0
C      1  0.5806430000000  0.5248390000000  0.4824490000000 1.0
C      1  0.4191610000000  0.4761520000000  0.4832790000000 1.0
C      1  0.5806430000000  0.4761560000000  0.4824490000000 1.0
C      1  0.4191610000000  0.5248430000000  0.4832780000000 1.0
C      1  0.5215160000000  0.5279490000000  0.5049080000000 1.0
C      1  0.4781990000000  0.4731840000000  0.5052430000000 1.0
C      1  0.5215160000000  0.4730460000000  0.5049090000000 1.0
C      1  0.4781990000000  0.5278120000000  0.5052420000000 1.0
C      1  0.5425350000000  0.5810700000000  0.5087470000000 1.0
C      1  0.4577730000000  0.4199920000000  0.5087390000000 1.0
C      1  0.5425340000000  0.4199250000000  0.5087490000000 1.0
C      1  0.4577740000000  0.5810040000000  0.5087370000000 1.0
C      1  0.5581820000000  0.5004980000000  0.5783350000000 1.0
C      1  0.4425990000000  0.5004990000000  0.5789870000000 1.0
C      1  0.4217900000000  0.5004980000000  0.5010110000000 1.0
C      1  0.5787530000000  0.5004970000000  0.5002270000000 1.0
C      1  0.5002820000000  0.5561740000000  0.4500940000000 1.0
C      1  0.5002820000000  0.4448200000000  0.4500950000000 1.0
C      1  0.5805980000000  0.5004980000000  0.5286020000000 1.0
C      1  0.4199480000000  0.5004980000000  0.5294020000000 1.0
C      1  0.5349580000000  0.5004970000000  0.4304470000000 1.0
C      1  0.4526160000000  0.5004970000000  0.4324850000000 1.0
C      1  0.5753310000000  0.5004980000000  0.5551780000000 1.0
C      1  0.4252420000000  0.5004990000000  0.5559760000000 1.0
C      1  0.4757300000000  0.5004980000000  0.5433150000000 1.0
C      1  0.5244510000000  0.5004980000000  0.5428850000000 1.0
C      1  0.5000440000000  0.4545820000000  0.5053760000000 1.0
C      1  0.5000440000000  0.5464130000000  0.5053750000000 1.0
C      1  0.5003890000000  0.4516550000000  0.5817530000000 1.0
C      1  0.5003890000000  0.5493420000000  0.5817520000000 1.0
C      1  0.5001230000000  0.5689160000000  0.5232710000000 1.0
C      1  0.5001230000000  0.4320800000000  0.5232720000000 1.0
C      1  0.5001900000000  0.4233330000000  0.4724280000000 1.0
C      1  0.5001910000000  0.5776620000000  0.4724260000000 1.0
C      1  0.5025570000000  0.4588080000000  0.3928440000000 1.0
C      1  0.5025580000000  0.5421850000000  0.3928430000000 1.0
C      1  0.5005580000000  0.5004990000000  0.6126510000000 1.0
C      1  0.4939730000000  0.5004970000000  0.4113720000000 1.0
C      1  0.5004310000000  0.5004990000000  0.5864780000000 1.0
C      1  0.5002240000000  0.5004980000000  0.5583700000000 1.0
C      1  0.5067200000000  0.5004970000000  0.4374630000000 1.0
C      1  0.4988010000000  0.5004980000000  0.4922640000000 1.0
C      1  0.4988980000000  0.5004970000000  0.4640480000000 1.0
END
