TITL C-3623286-7563-175 5.74787193455675e-07 125000 -263.442048131427 0 0 44 (C3i) n - 1
REM
REM in /home/nfs/bkarasulu/CARBON/AIRSS/Generating-Clusters/LCBOP/Higher-Symm/SD-CG/FIRE-CG
REM
REM
REM
REM
REM
REM ./C.cell (b20cbc046b6831c77cfcea5457e17084)
REM AIRSS Version 0.9.1 bugfix July 2018 build 013d7b7c2542+ Fri, 06 Jul 2018 19:26:36 +0100
REM compiler GCC version 9.2.1 20190827 (Red Hat 9.2.1-1)
REM options -cpp -mtune=generic -march=x86-64 -g -O0 -fpre-include=/usr/include/finclude/math-vector-fortran.h
REM seed 1974417927 -707537732 -1458379892 1635014004 14042230 189123912 -1935888666 -1982776049 -144054827 2061260967 2083663216 681976169 -1715331714 48388123 -90579915 -1581293236 1350545407 -1729317217 56082448 726737500 -791462085 1541961865 -1856037321 -232804902 1263817423 -1017235240 1358902202 1384521798 -1073098235 1895486036 -749946039 -2116923502 -1538414603
REM
CELL 1.54180   50.00000   50.00000   50.00000   90.00000   90.00000   90.00000
LATT -1
SFAC C  
C      1  0.5286300000000  0.5318590000000  0.4681160000000 1.0
C      1  0.4713740000000  0.5437930000000  0.5099820000000 1.0
C      1  0.5286240000000  0.5134970000000  0.5412550000000 1.0
C      1  0.4713700000000  0.4712720000000  0.5306490000000 1.0
C      1  0.5286260000000  0.4593380000000  0.4887830000000 1.0
C      1  0.4713760000000  0.4896350000000  0.4575100000000 1.0
C      1  0.5454010000000  0.4907580000000  0.5458290000000 1.0
C      1  0.4545930000000  0.4559430000000  0.5132430000000 1.0
C      1  0.5454060000000  0.4667460000000  0.4668060000000 1.0
C      1  0.4545990000000  0.5123730000000  0.4529360000000 1.0
C      1  0.5454070000000  0.5471880000000  0.4855220000000 1.0
C      1  0.4545940000000  0.5363850000000  0.5319590000000 1.0
C      1  0.5503690000000  0.5743010000000  0.4828770000000 1.0
C      1  0.4496320000000  0.5522330000000  0.5541160000000 1.0
C      1  0.5503590000000  0.4794930000000  0.5706330000000 1.0
C      1  0.4496310000000  0.4288310000000  0.5158880000000 1.0
C      1  0.5503680000000  0.4508990000000  0.4446490000000 1.0
C      1  0.4496410000000  0.5236380000000  0.4281330000000 1.0
C      1  0.4435420000000  0.4727920000000  0.4927610000000 1.0
C      1  0.5564590000000  0.4929070000000  0.4711580000000 1.0
C      1  0.4435450000000  0.5216860000000  0.4777670000000 1.0
C      1  0.5564580000000  0.5303390000000  0.5060040000000 1.0
C      1  0.4435410000000  0.5102240000000  0.5276080000000 1.0
C      1  0.5564550000000  0.4814450000000  0.5209980000000 1.0
C      1  0.4550380000000  0.4901500000000  0.5443420000000 1.0
C      1  0.5449560000000  0.4569170000000  0.5119800000000 1.0
C      1  0.4550430000000  0.4683370000000  0.4670100000000 1.0
C      1  0.5449620000000  0.5129820000000  0.4544230000000 1.0
C      1  0.4550440000000  0.5462150000000  0.4867860000000 1.0
C      1  0.5449570000000  0.5347950000000  0.5317550000000 1.0
C      1  0.5043480000000  0.4743920000000  0.4923560000000 1.0
C      1  0.4956540000000  0.4940640000000  0.4723360000000 1.0
C      1  0.5043500000000  0.5212380000000  0.4793630000000 1.0
C      1  0.4956520000000  0.5287400000000  0.5064090000000 1.0
C      1  0.5043460000000  0.5090670000000  0.5264300000000 1.0
C      1  0.4956500000000  0.4818940000000  0.5194020000000 1.0
C      1  0.5546940000000  0.4685630000000  0.5938890000000 1.0
C      1  0.4452940000000  0.4032260000000  0.5180500000000 1.0
C      1  0.5547050000000  0.4362230000000  0.4235560000000 1.0
C      1  0.4453060000000  0.5345690000000  0.4048770000000 1.0
C      1  0.5547060000000  0.5999060000000  0.4807150000000 1.0
C      1  0.4452950000000  0.5669080000000  0.5752100000000 1.0
C      1  0.4384430000000  0.5015680000000  0.4993780000000 1.0
C      1  0.5615570000000  0.5015640000000  0.4993870000000 1.0
END
