TITL C-3623282-6910-1041 7.72920319136975e-07 125000 -151.684268758706 0 0 27 (Cs) n - 1
REM
REM in /home/nfs/bkarasulu/CARBON/AIRSS/Generating-Clusters/LCBOP/Higher-Symm/SD-CG/FIRE-CG
REM
REM
REM
REM
REM
REM ./C.cell (b20cbc046b6831c77cfcea5457e17084)
REM AIRSS Version 0.9.1 bugfix July 2018 build 013d7b7c2542+ Fri, 06 Jul 2018 19:26:36 +0100
REM compiler GCC version 9.2.1 20190827 (Red Hat 9.2.1-1)
REM options -cpp -mtune=generic -march=x86-64 -g -O0 -fpre-include=/usr/include/finclude/math-vector-fortran.h
REM seed 1761890380 1142459831 1835047683 -944680522 -1001268539 -572273382 -1824225518 475811931 1855231773 1445389207 31407044 1195865328 1419477065 -236329732 181092975 -21811061 -154482921 969968662 1485830274 1751862015 -956759080 -1420205231 -296366453 2041263594 1731880718 921417254 -527444630 1465502324 -912293056 -1656460975 -1487275825 1305301169 -286824795
REM
CELL 1.54180   50.00000   50.00000   50.00000   90.00000   90.00000   90.00000
LATT -1
SFAC C  
C      1  0.5475240000000  0.4725380000000  0.5214490000000 1.0
C      1  0.4867720000000  0.4478290000000  0.5229250000000 1.0
C      1  0.4430570000000  0.4964480000000  0.5204030000000 1.0
C      1  0.4781900000000  0.5515890000000  0.5229360000000 1.0
C      1  0.5421760000000  0.5371970000000  0.5214560000000 1.0
C      1  0.4747420000000  0.4990750000000  0.4581310000000 1.0
C      1  0.4898560000000  0.5240270000000  0.4586060000000 1.0
C      1  0.5182480000000  0.5173110000000  0.4583190000000 1.0
C      1  0.5206530000000  0.4882350000000  0.4583160000000 1.0
C      1  0.4937500000000  0.4769460000000  0.4586010000000 1.0
C      1  0.5516710000000  0.4697280000000  0.4951790000000 1.0
C      1  0.4856120000000  0.4426920000000  0.4966680000000 1.0
C      1  0.4381170000000  0.4960430000000  0.4941400000000 1.0
C      1  0.4762020000000  0.5564710000000  0.4966800000000 1.0
C      1  0.5458040000000  0.5406560000000  0.4951870000000 1.0
C      1  0.5290620000000  0.5256330000000  0.5400540000000 1.0
C      1  0.5326890000000  0.4817860000000  0.5400500000000 1.0
C      1  0.4908360000000  0.4655450000000  0.5408330000000 1.0
C      1  0.4603510000000  0.4978770000000  0.5391510000000 1.0
C      1  0.4851100000000  0.5347770000000  0.5408400000000 1.0
C      1  0.4494510000000  0.4969820000000  0.4699170000000 1.0
C      1  0.4803210000000  0.5466870000000  0.4720830000000 1.0
C      1  0.5372980000000  0.5335980000000  0.4708060000000 1.0
C      1  0.5421200000000  0.4752970000000  0.4708000000000 1.0
C      1  0.4880680000000  0.4530240000000  0.4720730000000 1.0
C      1  0.4992820000000  0.5010970000000  0.5360740000000 1.0
C      1  0.4995590000000  0.5011230000000  0.5070510000000 1.0
END
