TITL C-3623289-7120-1733 -5.29387459830124e-05 125000 -860.722262911169 0 0 141 (C1) n - 1
REM
REM in /home/nfs/bkarasulu/CARBON/AIRSS/Generating-Clusters/LCBOP/Higher-Symm/SD-CG/FIRE-CG
REM
REM
REM
REM
REM
REM ./C.cell (b20cbc046b6831c77cfcea5457e17084)
REM AIRSS Version 0.9.1 bugfix July 2018 build 013d7b7c2542+ Fri, 06 Jul 2018 19:26:36 +0100
REM compiler GCC version 9.2.1 20190827 (Red Hat 9.2.1-1)
REM options -cpp -mtune=generic -march=x86-64 -g -O0 -fpre-include=/usr/include/finclude/math-vector-fortran.h
REM seed 2103184926 1620333619 -1690387540 -349441357 -1854407870 -381445241 435483244 1094381630 -158238475 630212470 -294066216 -772258877 -10414335 -374387682 1918711352 -116281159 1868799704 -1330661694 892564938 889750133 459588933 -1938060979 -1302406067 -559330567 459514489 1035298937 1802193573 4008626 739678782 1165294955 1275239936 -1768610061 391103618
REM
CELL 1.54180   50.00000   50.00000   50.00000   90.00000   90.00000   90.00000
LATT -1
SFAC C  
C      1  0.5451250000000  0.4639530000000  0.6367230000000 1.0
C      1  0.5477080000000  0.3984590000000  0.3993560000000 1.0
C      1  0.5436490000000  0.6369070000000  0.4618550000000 1.0
C      1  0.4524320000000  0.5360230000000  0.6384670000000 1.0
C      1  0.4552870000000  0.6007260000000  0.4007190000000 1.0
C      1  0.4513070000000  0.3625290000000  0.4628920000000 1.0
C      1  0.4963390000000  0.4846800000000  0.4057610000000 1.0
C      1  0.4962860000000  0.5883640000000  0.5353190000000 1.0
C      1  0.4961670000000  0.4270610000000  0.5579320000000 1.0
C      1  0.5026870000000  0.5131820000000  0.4069110000000 1.0
C      1  0.5023590000000  0.4120870000000  0.5336360000000 1.0
C      1  0.5025730000000  0.5748490000000  0.5604880000000 1.0
C      1  0.5177300000000  0.5921020000000  0.5164410000000 1.0
C      1  0.5176410000000  0.4416400000000  0.5703150000000 1.0
C      1  0.5179610000000  0.4664960000000  0.4116600000000 1.0
C      1  0.4806820000000  0.4081970000000  0.5150180000000 1.0
C      1  0.4809610000000  0.5605420000000  0.5732840000000 1.0
C      1  0.4813060000000  0.5312940000000  0.4133630000000 1.0
C      1  0.5340160000000  0.4156540000000  0.4953870000000 1.0
C      1  0.5331940000000  0.5446160000000  0.4298600000000 1.0
C      1  0.5340990000000  0.5396940000000  0.5760120000000 1.0
C      1  0.4658180000000  0.5833770000000  0.4966920000000 1.0
C      1  0.4645430000000  0.4535480000000  0.4281190000000 1.0
C      1  0.4653010000000  0.4623350000000  0.5739690000000 1.0
C      1  0.5749290000000  0.4280870000000  0.5269150000000 1.0
C      1  0.5756640000000  0.5131190000000  0.4238150000000 1.0
C      1  0.5749030000000  0.5602220000000  0.5490520000000 1.0
C      1  0.4234800000000  0.5726670000000  0.5270990000000 1.0
C      1  0.4240330000000  0.4875410000000  0.4238490000000 1.0
C      1  0.4232290000000  0.4409460000000  0.5492880000000 1.0
C      1  0.4159270000000  0.4857150000000  0.4743300000000 1.0
C      1  0.4158180000000  0.5298410000000  0.5004560000000 1.0
C      1  0.4155010000000  0.4853800000000  0.5255950000000 1.0
C      1  0.5832830000000  0.5149320000000  0.4741520000000 1.0
C      1  0.5831850000000  0.4708180000000  0.5000840000000 1.0
C      1  0.5829720000000  0.5155760000000  0.5253460000000 1.0
C      1  0.5741280000000  0.5312080000000  0.5491270000000 1.0
C      1  0.5744470000000  0.4424050000000  0.5016960000000 1.0
C      1  0.5746380000000  0.5276840000000  0.4488230000000 1.0
C      1  0.4240130000000  0.4698910000000  0.5493920000000 1.0
C      1  0.4245520000000  0.5581360000000  0.5020600000000 1.0
C      1  0.4246480000000  0.4728910000000  0.4488940000000 1.0
C      1  0.5589180000000  0.4660430000000  0.5645680000000 1.0
C      1  0.5591440000000  0.4606300000000  0.4367660000000 1.0
C      1  0.5587620000000  0.5744520000000  0.4975960000000 1.0
C      1  0.4399610000000  0.5354010000000  0.5660440000000 1.0
C      1  0.4402920000000  0.5389580000000  0.4376910000000 1.0
C      1  0.4393110000000  0.4262740000000  0.4973140000000 1.0
C      1  0.4423370000000  0.5729460000000  0.4840460000000 1.0
C      1  0.4415560000000  0.4781950000000  0.5714180000000 1.0
C      1  0.4413290000000  0.4490460000000  0.4444100000000 1.0
C      1  0.5575350000000  0.4268490000000  0.4832970000000 1.0
C      1  0.5571980000000  0.5231930000000  0.5718240000000 1.0
C      1  0.5567460000000  0.5506180000000  0.4450260000000 1.0
C      1  0.4757770000000  0.5557630000000  0.3995080000000 1.0
C      1  0.4747380000000  0.5596700000000  0.6012110000000 1.0
C      1  0.4745970000000  0.3841380000000  0.5007670000000 1.0
C      1  0.5243020000000  0.4419970000000  0.3983110000000 1.0
C      1  0.5233240000000  0.4416290000000  0.5983980000000 1.0
C      1  0.5232450000000  0.6160940000000  0.5017810000000 1.0
C      1  0.5218110000000  0.4850030000000  0.4571440000000 1.0
C      1  0.5239020000000  0.5430500000000  0.5109680000000 1.0
C      1  0.5244080000000  0.4700400000000  0.5297990000000 1.0
C      1  0.4746290000000  0.5108740000000  0.4584870000000 1.0
C      1  0.4758430000000  0.4570410000000  0.5091100000000 1.0
C      1  0.4772480000000  0.5299480000000  0.5348540000000 1.0
C      1  0.4998970000000  0.4303000000000  0.3516180000000 1.0
C      1  0.4996360000000  0.6622430000000  0.5168040000000 1.0
C      1  0.4987640000000  0.4056630000000  0.6302800000000 1.0
C      1  0.4994010000000  0.5650780000000  0.3518830000000 1.0
C      1  0.4995220000000  0.3382910000000  0.5145390000000 1.0
C      1  0.4983650000000  0.5948350000000  0.6346460000000 1.0
C      1  0.5848780000000  0.4857690000000  0.4752730000000 1.0
C      1  0.5848850000000  0.5290430000000  0.4995010000000 1.0
C      1  0.5851350000000  0.4865850000000  0.5246470000000 1.0
C      1  0.4139990000000  0.5148250000000  0.4756520000000 1.0
C      1  0.4137620000000  0.4718320000000  0.4997370000000 1.0
C      1  0.4141060000000  0.5143510000000  0.5251270000000 1.0
C      1  0.5341280000000  0.5221460000000  0.4971070000000 1.0
C      1  0.5358800000000  0.4903390000000  0.5158630000000 1.0
C      1  0.5345900000000  0.4917210000000  0.4801090000000 1.0
C      1  0.4634460000000  0.4804060000000  0.5029710000000 1.0
C      1  0.4649720000000  0.5118080000000  0.5188780000000 1.0
C      1  0.4644950000000  0.5120600000000  0.4836390000000 1.0
C      1  0.4696020000000  0.5889850000000  0.5245010000000 1.0
C      1  0.4694700000000  0.4356440000000  0.5644620000000 1.0
C      1  0.4693680000000  0.4751180000000  0.4098700000000 1.0
C      1  0.5292550000000  0.4106640000000  0.5232020000000 1.0
C      1  0.5295170000000  0.5663660000000  0.5666210000000 1.0
C      1  0.5293560000000  0.5230560000000  0.4114080000000 1.0
C      1  0.5337510000000  0.5693560000000  0.5098310000000 1.0
C      1  0.5338140000000  0.4586390000000  0.5538320000000 1.0
C      1  0.5336010000000  0.4724780000000  0.4349260000000 1.0
C      1  0.4646960000000  0.4311810000000  0.5086200000000 1.0
C      1  0.4653880000000  0.5432080000000  0.5565900000000 1.0
C      1  0.4652520000000  0.5256580000000  0.4363860000000 1.0
C      1  0.5566500000000  0.5915880000000  0.4751350000000 1.0
C      1  0.5572500000000  0.4762780000000  0.5909100000000 1.0
C      1  0.5583140000000  0.4325690000000  0.4328540000000 1.0
C      1  0.4404440000000  0.4086800000000  0.4751410000000 1.0
C      1  0.4411270000000  0.5245560000000  0.5922140000000 1.0
C      1  0.4423910000000  0.5669230000000  0.4337340000000 1.0
C      1  0.5115310000000  0.6402400000000  0.5094910000000 1.0
C      1  0.5111220000000  0.4229200000000  0.6151610000000 1.0
C      1  0.5121630000000  0.4357560000000  0.3739530000000 1.0
C      1  0.4869970000000  0.3601390000000  0.5078370000000 1.0
C      1  0.4864790000000  0.5779360000000  0.6187650000000 1.0
C      1  0.4874950000000  0.5607660000000  0.3746600000000 1.0
C      1  0.4189570000000  0.5282400000000  0.5490750000000 1.0
C      1  0.4179780000000  0.4440760000000  0.4997810000000 1.0
C      1  0.4184300000000  0.5286520000000  0.4516310000000 1.0
C      1  0.5808220000000  0.4726910000000  0.5486420000000 1.0
C      1  0.5803100000000  0.5567710000000  0.4995000000000 1.0
C      1  0.5801460000000  0.4719330000000  0.4512810000000 1.0
C      1  0.5546300000000  0.5106630000000  0.4062850000000 1.0
C      1  0.5544150000000  0.5767970000000  0.5569600000000 1.0
C      1  0.5541020000000  0.4133800000000  0.5372270000000 1.0
C      1  0.4445890000000  0.4889020000000  0.4056200000000 1.0
C      1  0.4443450000000  0.4247450000000  0.5561580000000 1.0
C      1  0.4443470000000  0.5870080000000  0.5378230000000 1.0
C      1  0.4493030000000  0.5322980000000  0.6640690000000 1.0
C      1  0.4477170000000  0.3417710000000  0.4475510000000 1.0
C      1  0.4533430000000  0.6248560000000  0.3910700000000 1.0
C      1  0.5478420000000  0.4670180000000  0.6624600000000 1.0
C      1  0.5455400000000  0.6571020000000  0.4454920000000 1.0
C      1  0.5514140000000  0.3746640000000  0.3893950000000 1.0
C      1  0.4374760000000  0.5808730000000  0.4575110000000 1.0
C      1  0.4363190000000  0.4969270000000  0.5917870000000 1.0
C      1  0.4355480000000  0.4223580000000  0.4511920000000 1.0
C      1  0.5632610000000  0.4189820000000  0.4568720000000 1.0
C      1  0.5625390000000  0.5037580000000  0.5914260000000 1.0
C      1  0.5614640000000  0.5776280000000  0.4513170000000 1.0
C      1  0.4576770000000  0.5749890000000  0.4111680000000 1.0
C      1  0.4559620000000  0.5399470000000  0.6110740000000 1.0
C      1  0.4553120000000  0.3847610000000  0.4792460000000 1.0
C      1  0.5435800000000  0.4238840000000  0.4100640000000 1.0
C      1  0.5420360000000  0.4607480000000  0.6092010000000 1.0
C      1  0.5413180000000  0.6152200000000  0.4792330000000 1.0
C      1  0.5019050000000  0.4593230000000  0.5179210000000 1.0
C      1  0.4954290000000  0.4929690000000  0.4551360000000 1.0
C      1  0.5030660000000  0.5368350000000  0.5279650000000 1.0
END
