TITL C-3623285-6872-7 -0.106699657066872 125000 -330.044374952586 0 0 56 (C1) n - 1
REM
REM in /home/nfs/bkarasulu/CARBON/AIRSS/Generating-Clusters/LCBOP/Higher-Symm/SD-CG/FIRE-CG
REM
REM
REM
REM
REM
REM ./C.cell (b20cbc046b6831c77cfcea5457e17084)
REM AIRSS Version 0.9.1 bugfix July 2018 build 013d7b7c2542+ Fri, 06 Jul 2018 19:26:36 +0100
REM compiler GCC version 9.2.1 20190827 (Red Hat 9.2.1-1)
REM options -cpp -mtune=generic -march=x86-64 -g -O0 -fpre-include=/usr/include/finclude/math-vector-fortran.h
REM seed 1159012381 292727601 1445590585 2043214618 -331868316 1836032944 -774891394 -230224410 474892680 1332401679 -1091451117 -737247161 657665421 312259353 234387613 1219698506 -1977154262 163554209 1312258245 161040700 722483869 -156170545 -71403232 -1870721683 -1351479939 -1309268231 777556936 861409509 1806731355 -364473815 -1976231650 -715390125 403714449
REM
CELL 1.54180   50.00000   50.00000   50.00000   90.00000   90.00000   90.00000
LATT -1
SFAC C  
C      1  0.4597620000000  0.5063520000000  0.4956020000000 1.0
C      1  0.4448280000000  0.5597040000000  0.5039020000000 1.0
C      1  0.4912690000000  0.5629340000000  0.4232280000000 1.0
C      1  0.5316880000000  0.5114640000000  0.5209110000000 1.0
C      1  0.4822180000000  0.4231170000000  0.4800520000000 1.0
C      1  0.4231690000000  0.3494620000000  0.5390900000000 1.0
C      1  0.4387890000000  0.5093800000000  0.5139540000000 1.0
C      1  0.4618190000000  0.5514110000000  0.4814180000000 1.0
C      1  0.5395770000000  0.4638680000000  0.4589540000000 1.0
C      1  0.4751230000000  0.4826140000000  0.4984790000000 1.0
C      1  0.5341160000000  0.5201940000000  0.4249470000000 1.0
C      1  0.4452850000000  0.4527350000000  0.5242690000000 1.0
C      1  0.5740410000000  0.5412720000000  0.4873660000000 1.0
C      1  0.5464340000000  0.5523200000000  0.6372450000000 1.0
C      1  0.5111920000000  0.4499540000000  0.5082200000000 1.0
C      1  0.5855590000000  0.5172610000000  0.4779760000000 1.0
C      1  0.5125140000000  0.4682210000000  0.4647710000000 1.0
C      1  0.5668350000000  0.5533160000000  0.4409650000000 1.0
C      1  0.4636210000000  0.4441240000000  0.4752800000000 1.0
C      1  0.4314530000000  0.4010520000000  0.5332630000000 1.0
C      1  0.5220500000000  0.5160560000000  0.4729750000000 1.0
C      1  0.4601900000000  0.5241420000000  0.4732900000000 1.0
C      1  0.5495010000000  0.5354440000000  0.5596240000000 1.0
C      1  0.5049140000000  0.4762020000000  0.4944910000000 1.0
C      1  0.5475150000000  0.5466800000000  0.6113680000000 1.0
C      1  0.4549060000000  0.5482390000000  0.5512610000000 1.0
C      1  0.5611780000000  0.5583010000000  0.4683090000000 1.0
C      1  0.4465790000000  0.5232790000000  0.5578750000000 1.0
C      1  0.4396290000000  0.5016520000000  0.5410820000000 1.0
C      1  0.4271870000000  0.3750620000000  0.5362390000000 1.0
C      1  0.5117640000000  0.5218010000000  0.4446710000000 1.0
C      1  0.4367790000000  0.4267510000000  0.5297020000000 1.0
C      1  0.4653090000000  0.4614640000000  0.4519400000000 1.0
C      1  0.4889050000000  0.5026040000000  0.4401820000000 1.0
C      1  0.5161100000000  0.4007560000000  0.5082070000000 1.0
C      1  0.5360650000000  0.5701340000000  0.4743100000000 1.0
C      1  0.5453710000000  0.5578660000000  0.6626960000000 1.0
C      1  0.5036060000000  0.4238280000000  0.4990820000000 1.0
C      1  0.5485930000000  0.5410430000000  0.5854970000000 1.0
C      1  0.4585680000000  0.4588630000000  0.4997260000000 1.0
C      1  0.4473430000000  0.4841230000000  0.4470150000000 1.0
C      1  0.5205020000000  0.5016710000000  0.4973550000000 1.0
C      1  0.4918960000000  0.4739260000000  0.4463190000000 1.0
C      1  0.4880700000000  0.5639060000000  0.4884030000000 1.0
C      1  0.5275410000000  0.3790150000000  0.5169150000000 1.0
C      1  0.5087710000000  0.5646450000000  0.4694250000000 1.0
C      1  0.4606790000000  0.5634190000000  0.5283190000000 1.0
C      1  0.5812570000000  0.4926620000000  0.4685060000000 1.0
C      1  0.5495280000000  0.5298900000000  0.5323800000000 1.0
C      1  0.4616180000000  0.5099710000000  0.4485540000000 1.0
C      1  0.4411110000000  0.4735540000000  0.5434840000000 1.0
C      1  0.5562480000000  0.5356560000000  0.4235540000000 1.0
C      1  0.4867520000000  0.5698140000000  0.5168070000000 1.0
C      1  0.5029480000000  0.5510220000000  0.4448140000000 1.0
C      1  0.5644960000000  0.4732320000000  0.4611570000000 1.0
C      1  0.5672280000000  0.5425690000000  0.5145720000000 1.0
END
