TITL C-3623288-6813-57 -4.14357439667596e-07 125000 -193.692955797983 0 0 32 (Oh) n - 1
REM
REM in /home/nfs/bkarasulu/CARBON/AIRSS/Generating-Clusters/LCBOP/Higher-Symm/SD-CG/FIRE-CG
REM
REM
REM
REM
REM
REM ./C.cell (b20cbc046b6831c77cfcea5457e17084)
REM AIRSS Version 0.9.1 bugfix July 2018 build 013d7b7c2542+ Fri, 06 Jul 2018 19:26:36 +0100
REM compiler GCC version 9.2.1 20190827 (Red Hat 9.2.1-1)
REM options -cpp -mtune=generic -march=x86-64 -g -O0 -fpre-include=/usr/include/finclude/math-vector-fortran.h
REM seed 1092037422 1438431081 -1261948223 118770603 486961927 540143473 232520890 -1161360846 1353802192 1676641105 -636210408 -1271239439 -1525449370 429354078 -913711122 1841347195 -405780532 -1955659706 130035184 -1111530822 -1351897808 1532655662 1070259551 2064531250 882343521 1105797576 1540616572 -579819224 1069144208 1890164743 473525877 -788301722 1786522026
REM
CELL 1.54180   50.00000   50.00000   50.00000   90.00000   90.00000   90.00000
LATT -1
SFAC C  
C      1  0.4525990000000  0.5126880000000  0.5467880000000 1.0
C      1  0.5475880000000  0.4518930000000  0.5125940000000 1.0
C      1  0.5133940000000  0.5468820000000  0.4517990000000 1.0
C      1  0.5475880000000  0.5126880000000  0.4517990000000 1.0
C      1  0.4525990000000  0.4860870000000  0.4517990000000 1.0
C      1  0.5475880000000  0.4860870000000  0.5467880000000 1.0
C      1  0.4525990000000  0.4518930000000  0.4859930000000 1.0
C      1  0.5475880000000  0.5468820000000  0.4859930000000 1.0
C      1  0.4525990000000  0.5468820000000  0.5125940000000 1.0
C      1  0.4867930000000  0.5468820000000  0.5467880000000 1.0
C      1  0.5133940000000  0.4518930000000  0.5467880000000 1.0
C      1  0.4867930000000  0.4518930000000  0.4517990000000 1.0
C      1  0.4525990000000  0.4860870000000  0.5467880000000 1.0
C      1  0.5475880000000  0.5468820000000  0.5125940000000 1.0
C      1  0.5133940000000  0.4518930000000  0.4517990000000 1.0
C      1  0.5475880000000  0.4860870000000  0.4517990000000 1.0
C      1  0.4525990000000  0.5126880000000  0.4517990000000 1.0
C      1  0.5475880000000  0.5126880000000  0.5467880000000 1.0
C      1  0.4525990000000  0.5468820000000  0.4859930000000 1.0
C      1  0.5475880000000  0.4518930000000  0.4859930000000 1.0
C      1  0.4525990000000  0.4518930000000  0.5125940000000 1.0
C      1  0.4867930000000  0.4518930000000  0.5467880000000 1.0
C      1  0.5133940000000  0.5468820000000  0.5467880000000 1.0
C      1  0.4867930000000  0.5468820000000  0.4517990000000 1.0
C      1  0.4626570000000  0.4619500000000  0.5367310000000 1.0
C      1  0.4626570000000  0.5368250000000  0.4618570000000 1.0
C      1  0.5375310000000  0.5368250000000  0.4618570000000 1.0
C      1  0.5375310000000  0.4619500000000  0.5367310000000 1.0
C      1  0.5375310000000  0.4619500000000  0.4618570000000 1.0
C      1  0.4626570000000  0.5368250000000  0.5367310000000 1.0
C      1  0.5375310000000  0.5368250000000  0.5367310000000 1.0
C      1  0.4626570000000  0.4619500000000  0.4618570000000 1.0
END
