TITL C-3623288-6813-515 0.00042709301499511 125000 -723.935979608793 0 0 119 (C1) n - 1
REM
REM in /home/nfs/bkarasulu/CARBON/AIRSS/Generating-Clusters/LCBOP/Higher-Symm/SD-CG/FIRE-CG
REM
REM
REM
REM
REM
REM ./C.cell (b20cbc046b6831c77cfcea5457e17084)
REM AIRSS Version 0.9.1 bugfix July 2018 build 013d7b7c2542+ Fri, 06 Jul 2018 19:26:36 +0100
REM compiler GCC version 9.2.1 20190827 (Red Hat 9.2.1-1)
REM options -cpp -mtune=generic -march=x86-64 -g -O0 -fpre-include=/usr/include/finclude/math-vector-fortran.h
REM seed 1165438416 -661194341 -114832155 1618314471 -1647748543 -1750210612 -1256917806 143844577 -1616796498 538209254 617627673 -585470034 -1163527308 -362191054 894826567 2032621163 1101553211 -1210457635 298859097 -223305978 996245494 -1517827312 -39800443 -1172302629 -855525148 1384556959 1847114130 -987011144 1948154696 -937379380 1530161979 -626667258 -1526776576
REM
CELL 1.54180   50.00000   50.00000   50.00000   90.00000   90.00000   90.00000
LATT -1
SFAC C  
C      1  0.6048390000000  0.4930760000000  0.5301260000000 1.0
C      1  0.3752400000000  0.4617850000000  0.5023720000000 1.0
C      1  0.4882910000000  0.5412070000000  0.4041030000000 1.0
C      1  0.5047970000000  0.5533930000000  0.5900090000000 1.0
C      1  0.4881140000000  0.4087850000000  0.5534070000000 1.0
C      1  0.5039540000000  0.4108840000000  0.4143780000000 1.0
C      1  0.6068240000000  0.4827400000000  0.5036080000000 1.0
C      1  0.3993600000000  0.4671560000000  0.5150930000000 1.0
C      1  0.4991900000000  0.5548570000000  0.4565020000000 1.0
C      1  0.5090150000000  0.5510500000000  0.5255900000000 1.0
C      1  0.4418880000000  0.5153690000000  0.4548010000000 1.0
C      1  0.5210870000000  0.5130520000000  0.5660530000000 1.0
C      1  0.4609610000000  0.5491170000000  0.4020130000000 1.0
C      1  0.5305760000000  0.5534330000000  0.6022240000000 1.0
C      1  0.5047900000000  0.4700800000000  0.4263660000000 1.0
C      1  0.4881740000000  0.4568550000000  0.5872150000000 1.0
C      1  0.5530090000000  0.4483720000000  0.5892750000000 1.0
C      1  0.4421300000000  0.4571790000000  0.4273140000000 1.0
C      1  0.5529830000000  0.5406870000000  0.5344270000000 1.0
C      1  0.4565450000000  0.5550650000000  0.4776610000000 1.0
C      1  0.4023830000000  0.4883160000000  0.5338320000000 1.0
C      1  0.6096920000000  0.5012410000000  0.4817590000000 1.0
C      1  0.5509390000000  0.5428050000000  0.5849050000000 1.0
C      1  0.4442870000000  0.5499290000000  0.4251810000000 1.0
C      1  0.4398800000000  0.4187250000000  0.5449650000000 1.0
C      1  0.5373670000000  0.4192160000000  0.3799750000000 1.0
C      1  0.4332690000000  0.5240260000000  0.4298490000000 1.0
C      1  0.5435040000000  0.5147380000000  0.5842260000000 1.0
C      1  0.4198680000000  0.4831060000000  0.5552580000000 1.0
C      1  0.6103710000000  0.4913460000000  0.4550870000000 1.0
C      1  0.5548820000000  0.5480890000000  0.4006490000000 1.0
C      1  0.4501050000000  0.5632490000000  0.5904760000000 1.0
C      1  0.5075670000000  0.6350990000000  0.4868080000000 1.0
C      1  0.5294450000000  0.6317480000000  0.5015670000000 1.0
C      1  0.3978360000000  0.5156320000000  0.5289380000000 1.0
C      1  0.5953410000000  0.5258190000000  0.4835590000000 1.0
C      1  0.4462680000000  0.4902090000000  0.5616210000000 1.0
C      1  0.5868010000000  0.4908100000000  0.4391960000000 1.0
C      1  0.5421230000000  0.5843070000000  0.5568290000000 1.0
C      1  0.4708110000000  0.5888460000000  0.4410520000000 1.0
C      1  0.4661510000000  0.4604870000000  0.5251950000000 1.0
C      1  0.5485580000000  0.4729200000000  0.4749800000000 1.0
C      1  0.5211610000000  0.5167660000000  0.4689290000000 1.0
C      1  0.4627850000000  0.5463640000000  0.5296520000000 1.0
C      1  0.4913640000000  0.4716070000000  0.5627160000000 1.0
C      1  0.5063610000000  0.4612790000000  0.4540190000000 1.0
C      1  0.5157590000000  0.4701940000000  0.5473180000000 1.0
C      1  0.4813690000000  0.4530100000000  0.4645430000000 1.0
C      1  0.5050020000000  0.5644230000000  0.4072100000000 1.0
C      1  0.4961060000000  0.5798070000000  0.5831580000000 1.0
C      1  0.5598350000000  0.4748090000000  0.5015710000000 1.0
C      1  0.4474720000000  0.4646020000000  0.5035540000000 1.0
C      1  0.4720300000000  0.6120860000000  0.4567060000000 1.0
C      1  0.5521600000000  0.6021950000000  0.5375960000000 1.0
C      1  0.4553210000000  0.4811810000000  0.4162250000000 1.0
C      1  0.5369490000000  0.4668120000000  0.6033570000000 1.0
C      1  0.5719830000000  0.5280530000000  0.4046460000000 1.0
C      1  0.4458550000000  0.5367490000000  0.5890700000000 1.0
C      1  0.4369110000000  0.5029660000000  0.4108740000000 1.0
C      1  0.5458530000000  0.4936360000000  0.6024400000000 1.0
C      1  0.4693000000000  0.5118570000000  0.4597200000000 1.0
C      1  0.5284730000000  0.4988890000000  0.5394220000000 1.0
C      1  0.4675490000000  0.4762000000000  0.5485240000000 1.0
C      1  0.5640120000000  0.4811730000000  0.4526760000000 1.0
C      1  0.5118880000000  0.4203830000000  0.5475600000000 1.0
C      1  0.4858260000000  0.4132100000000  0.4338790000000 1.0
C      1  0.5833790000000  0.5072180000000  0.4167630000000 1.0
C      1  0.4492080000000  0.5119910000000  0.5793480000000 1.0
C      1  0.4879100000000  0.5450340000000  0.5442030000000 1.0
C      1  0.4970610000000  0.5251670000000  0.4502020000000 1.0
C      1  0.4911680000000  0.5854240000000  0.4208500000000 1.0
C      1  0.5174250000000  0.5925450000000  0.5694220000000 1.0
C      1  0.5532070000000  0.4403330000000  0.5622780000000 1.0
C      1  0.4430280000000  0.4343970000000  0.4457170000000 1.0
C      1  0.3529460000000  0.4565160000000  0.4899500000000 1.0
C      1  0.5798970000000  0.4947500000000  0.5411250000000 1.0
C      1  0.5283050000000  0.4437270000000  0.5486010000000 1.0
C      1  0.4712540000000  0.4310600000000  0.4496540000000 1.0
C      1  0.5188320000000  0.4551130000000  0.4071270000000 1.0
C      1  0.4675880000000  0.4368010000000  0.5851040000000 1.0
C      1  0.5178870000000  0.4062320000000  0.4799890000000 1.0
C      1  0.4932130000000  0.4003460000000  0.4886090000000 1.0
C      1  0.5857080000000  0.4359140000000  0.4904530000000 1.0
C      1  0.4288270000000  0.4244430000000  0.5184600000000 1.0
C      1  0.5000370000000  0.5338480000000  0.5686170000000 1.0
C      1  0.4939490000000  0.5177280000000  0.4203380000000 1.0
C      1  0.4846630000000  0.4893310000000  0.4179430000000 1.0
C      1  0.5092990000000  0.4602170000000  0.6057090000000 1.0
C      1  0.5133230000000  0.5159610000000  0.4968680000000 1.0
C      1  0.4672140000000  0.5395970000000  0.5017100000000 1.0
C      1  0.5069100000000  0.5699110000000  0.4776240000000 1.0
C      1  0.5093580000000  0.5698630000000  0.5044200000000 1.0
C      1  0.4321360000000  0.4199960000000  0.4685210000000 1.0
C      1  0.5749650000000  0.4286230000000  0.5507930000000 1.0
C      1  0.5471380000000  0.5272620000000  0.4647720000000 1.0
C      1  0.4358320000000  0.5490620000000  0.5365660000000 1.0
C      1  0.5867210000000  0.4625600000000  0.4995250000000 1.0
C      1  0.4227110000000  0.4519910000000  0.5103260000000 1.0
C      1  0.4629830000000  0.4189880000000  0.5628030000000 1.0
C      1  0.5207370000000  0.4280200000000  0.3996440000000 1.0
C      1  0.4651500000000  0.4700900000000  0.4816090000000 1.0
C      1  0.5554440000000  0.4883040000000  0.5272900000000 1.0
C      1  0.5370730000000  0.4260780000000  0.4751660000000 1.0
C      1  0.4719450000000  0.4143450000000  0.5002350000000 1.0
C      1  0.4432590000000  0.4135100000000  0.4949580000000 1.0
C      1  0.5645890000000  0.4219190000000  0.4809320000000 1.0
C      1  0.5275790000000  0.5268210000000  0.5216030000000 1.0
C      1  0.4734290000000  0.4965100000000  0.4824890000000 1.0
C      1  0.5528760000000  0.5569470000000  0.5589980000000 1.0
C      1  0.4541710000000  0.5657300000000  0.4487730000000 1.0
C      1  0.4683950000000  0.5828080000000  0.5866070000000 1.0
C      1  0.5323060000000  0.5621940000000  0.4019930000000 1.0
C      1  0.5713410000000  0.5338170000000  0.4743100000000 1.0
C      1  0.4115820000000  0.5383770000000  0.5326610000000 1.0
C      1  0.5461580000000  0.6196760000000  0.5183960000000 1.0
C      1  0.4864010000000  0.6283190000000  0.4721770000000 1.0
C      1  0.4797000000000  0.4365120000000  0.5171320000000 1.0
C      1  0.5293450000000  0.4531630000000  0.4685680000000 1.0
C      1  0.4845710000000  0.5153970000000  0.5001130000000 1.0
END
