TITL C-3623287-7182-1082 -2.87497401655113e-07 125000 -662.694986952192 0 0 107 (C1) n - 1
REM
REM in /home/nfs/bkarasulu/CARBON/AIRSS/Generating-Clusters/LCBOP/Higher-Symm/SD-CG/FIRE-CG
REM
REM
REM
REM
REM
REM ./C.cell (b20cbc046b6831c77cfcea5457e17084)
REM AIRSS Version 0.9.1 bugfix July 2018 build 013d7b7c2542+ Fri, 06 Jul 2018 19:26:36 +0100
REM compiler GCC version 9.2.1 20190827 (Red Hat 9.2.1-1)
REM options -cpp -mtune=generic -march=x86-64 -g -O0 -fpre-include=/usr/include/finclude/math-vector-fortran.h
REM seed 993325208 -692518915 1359881688 -408941384 662422843 -2017070879 51462052 -1736757357 -562972206 -1014787527 1281600507 149746626 -867848142 -771160324 1710355871 2142909649 -1334492892 -548135748 -968541545 1416563024 -193083558 1206300704 -1112344433 1082324917 -254484423 -495449316 -258127180 1928121235 1798758230 692572619 1537678255 -2118568569 1229116489
REM
CELL 1.54180   50.00000   50.00000   50.00000   90.00000   90.00000   90.00000
LATT -1
SFAC C  
C      1  0.4997380000000  0.4538360000000  0.4972260000000 1.0
C      1  0.4982130000000  0.5016860000000  0.4699160000000 1.0
C      1  0.4900280000000  0.5236280000000  0.4538660000000 1.0
C      1  0.4999610000000  0.5478800000000  0.4649620000000 1.0
C      1  0.4994790000000  0.5345660000000  0.5093210000000 1.0
C      1  0.4862430000000  0.5342570000000  0.5369420000000 1.0
C      1  0.4980920000000  0.4765910000000  0.5391780000000 1.0
C      1  0.4829300000000  0.4627950000000  0.5196260000000 1.0
C      1  0.5712280000000  0.4832670000000  0.4415240000000 1.0
C      1  0.4013290000000  0.5066600000000  0.4181890000000 1.0
C      1  0.5901420000000  0.5553250000000  0.4653520000000 1.0
C      1  0.4342910000000  0.5628550000000  0.5224090000000 1.0
C      1  0.5806680000000  0.5092870000000  0.5627040000000 1.0
C      1  0.4360700000000  0.4772410000000  0.5511890000000 1.0
C      1  0.5716750000000  0.4519300000000  0.5100610000000 1.0
C      1  0.4147350000000  0.4417920000000  0.4839770000000 1.0
C      1  0.4122390000000  0.5168940000000  0.5234190000000 1.0
C      1  0.5894690000000  0.5040790000000  0.5152400000000 1.0
C      1  0.4098380000000  0.4908850000000  0.5114930000000 1.0
C      1  0.5965870000000  0.4880680000000  0.4919930000000 1.0
C      1  0.3995700000000  0.4873740000000  0.4847730000000 1.0
C      1  0.6011590000000  0.5042300000000  0.4690400000000 1.0
C      1  0.3857450000000  0.5047600000000  0.4674990000000 1.0
C      1  0.5941770000000  0.5321820000000  0.5113110000000 1.0
C      1  0.4398180000000  0.5069440000000  0.6098850000000 1.0
C      1  0.5560050000000  0.4547610000000  0.5849600000000 1.0
C      1  0.4644640000000  0.4137740000000  0.5354230000000 1.0
C      1  0.5352670000000  0.4179020000000  0.4594810000000 1.0
C      1  0.4623850000000  0.4706650000000  0.3964630000000 1.0
C      1  0.5409340000000  0.5408090000000  0.4082550000000 1.0
C      1  0.4723200000000  0.6029120000000  0.4673270000000 1.0
C      1  0.5537260000000  0.5785160000000  0.5542630000000 1.0
C      1  0.5089150000000  0.5343290000000  0.5553450000000 1.0
C      1  0.4835810000000  0.4848780000000  0.5616660000000 1.0
C      1  0.5372540000000  0.4220020000000  0.5217980000000 1.0
C      1  0.4794940000000  0.4445630000000  0.4790060000000 1.0
C      1  0.5173480000000  0.4837640000000  0.4597060000000 1.0
C      1  0.4660100000000  0.5173540000000  0.4399770000000 1.0
C      1  0.5279390000000  0.5520170000000  0.4665130000000 1.0
C      1  0.4866610000000  0.5554970000000  0.4909280000000 1.0
C      1  0.5330710000000  0.5285630000000  0.5393740000000 1.0
C      1  0.4583190000000  0.4958560000000  0.5539580000000 1.0
C      1  0.5450770000000  0.4434110000000  0.5057650000000 1.0
C      1  0.4595730000000  0.4649200000000  0.4785040000000 1.0
C      1  0.5377790000000  0.4864410000000  0.4800180000000 1.0
C      1  0.4467620000000  0.5061980000000  0.4586730000000 1.0
C      1  0.5414370000000  0.5359160000000  0.4860730000000 1.0
C      1  0.4582220000000  0.5475120000000  0.4848590000000 1.0
C      1  0.5785620000000  0.5351060000000  0.5701880000000 1.0
C      1  0.4210650000000  0.4749530000000  0.5748630000000 1.0
C      1  0.5717110000000  0.4623770000000  0.5378080000000 1.0
C      1  0.4288540000000  0.4390770000000  0.5093950000000 1.0
C      1  0.5687160000000  0.4594870000000  0.4590070000000 1.0
C      1  0.4225380000000  0.5000320000000  0.4032090000000 1.0
C      1  0.5759040000000  0.5400860000000  0.4452290000000 1.0
C      1  0.4406220000000  0.5841410000000  0.5064410000000 1.0
C      1  0.4533200000000  0.5975620000000  0.4862480000000 1.0
C      1  0.5689700000000  0.5597820000000  0.5658660000000 1.0
C      1  0.4243180000000  0.4885790000000  0.5979500000000 1.0
C      1  0.5562680000000  0.4468840000000  0.5579810000000 1.0
C      1  0.4522820000000  0.4202000000000  0.5103380000000 1.0
C      1  0.5438370000000  0.4441750000000  0.4524570000000 1.0
C      1  0.4502380000000  0.4957620000000  0.4004730000000 1.0
C      1  0.5545130000000  0.5528560000000  0.4300360000000 1.0
C      1  0.5346690000000  0.5893450000000  0.5388650000000 1.0
C      1  0.4610750000000  0.5232120000000  0.6104010000000 1.0
C      1  0.5386550000000  0.4648770000000  0.6025990000000 1.0
C      1  0.4851260000000  0.4151830000000  0.5526840000000 1.0
C      1  0.5148720000000  0.4021690000000  0.4679520000000 1.0
C      1  0.4838260000000  0.4573190000000  0.4054510000000 1.0
C      1  0.5171750000000  0.5321700000000  0.3990160000000 1.0
C      1  0.4954850000000  0.6015160000000  0.4529520000000 1.0
C      1  0.4316650000000  0.4681920000000  0.5218330000000 1.0
C      1  0.5829080000000  0.4630740000000  0.4863050000000 1.0
C      1  0.4145780000000  0.4673530000000  0.4706330000000 1.0
C      1  0.5754740000000  0.5107640000000  0.4541730000000 1.0
C      1  0.3879590000000  0.5101140000000  0.4411740000000 1.0
C      1  0.5953920000000  0.5508310000000  0.4916690000000 1.0
C      1  0.4337470000000  0.5350200000000  0.5300580000000 1.0
C      1  0.5717520000000  0.4934080000000  0.5384510000000 1.0
C      1  0.5135310000000  0.4738910000000  0.6031640000000 1.0
C      1  0.5104060000000  0.4208650000000  0.5603750000000 1.0
C      1  0.4898850000000  0.3991580000000  0.4784250000000 1.0
C      1  0.5052460000000  0.4553640000000  0.4212540000000 1.0
C      1  0.4912810000000  0.5249930000000  0.3994530000000 1.0
C      1  0.5195770000000  0.5921580000000  0.4439010000000 1.0
C      1  0.5143010000000  0.5907270000000  0.5215090000000 1.0
C      1  0.4838690000000  0.5337560000000  0.6011260000000 1.0
C      1  0.4929600000000  0.4800730000000  0.5873940000000 1.0
C      1  0.5357160000000  0.4275790000000  0.5495410000000 1.0
C      1  0.4705900000000  0.4183490000000  0.4868620000000 1.0
C      1  0.5218850000000  0.4614170000000  0.4429070000000 1.0
C      1  0.4677970000000  0.5151800000000  0.4119020000000 1.0
C      1  0.5371660000000  0.5696700000000  0.4463680000000 1.0
C      1  0.4963820000000  0.5805550000000  0.5042720000000 1.0
C      1  0.5028890000000  0.5370200000000  0.5825070000000 1.0
C      1  0.5416760000000  0.5014090000000  0.5361520000000 1.0
C      1  0.4581340000000  0.4756550000000  0.5075900000000 1.0
C      1  0.5273560000000  0.4667740000000  0.5009870000000 1.0
C      1  0.4404100000000  0.4778950000000  0.4619920000000 1.0
C      1  0.5526780000000  0.5108950000000  0.4766300000000 1.0
C      1  0.4497640000000  0.5202140000000  0.4841630000000 1.0
C      1  0.5294000000000  0.5378200000000  0.5118980000000 1.0
C      1  0.4597590000000  0.5194460000000  0.5347430000000 1.0
C      1  0.4634430000000  0.5046370000000  0.5065790000000 1.0
C      1  0.5208370000000  0.4856270000000  0.5242660000000 1.0
C      1  0.4940160000000  0.5063000000000  0.4989600000000 1.0
END
