TITL C-3623282-6910-1390 -1.54609269640478e-06 125000 -1234.02763518148 0 0 197 (C1) n - 1
REM
REM in /home/nfs/bkarasulu/CARBON/AIRSS/Generating-Clusters/LCBOP/Higher-Symm/SD-CG/FIRE-CG
REM
REM
REM
REM
REM
REM ./C.cell (b20cbc046b6831c77cfcea5457e17084)
REM AIRSS Version 0.9.1 bugfix July 2018 build 013d7b7c2542+ Fri, 06 Jul 2018 19:26:36 +0100
REM compiler GCC version 9.2.1 20190827 (Red Hat 9.2.1-1)
REM options -cpp -mtune=generic -march=x86-64 -g -O0 -fpre-include=/usr/include/finclude/math-vector-fortran.h
REM seed 1082711643 -1377331239 1502573746 785749104 1126680191 1149193232 -38687856 -834343693 1355516199 401146769 462395782 -594031132 -207830399 -1283747370 2073378131 1544987618 -259035279 909750666 -978125934 1416607855 742571665 260538837 -2120816236 -996125492 -1442209155 1263897456 -2102252028 -1724712515 -1885552846 296260440 1948248089 235054354 -1587962675
REM
CELL 1.54180   50.00000   50.00000   50.00000   90.00000   90.00000   90.00000
LATT -1
SFAC C  
C      1  0.4226720000000  0.4146240000000  0.4696860000000 1.0
C      1  0.4291100000000  0.5862690000000  0.5376100000000 1.0
C      1  0.5829970000000  0.4439300000000  0.5312860000000 1.0
C      1  0.5740560000000  0.5548960000000  0.4720130000000 1.0
C      1  0.4323490000000  0.5076680000000  0.5763480000000 1.0
C      1  0.4377230000000  0.4825290000000  0.4310160000000 1.0
C      1  0.5273540000000  0.4650140000000  0.5113530000000 1.0
C      1  0.5283820000000  0.5422290000000  0.4721340000000 1.0
C      1  0.5886580000000  0.6135830000000  0.5130960000000 1.0
C      1  0.5974440000000  0.3899250000000  0.4850500000000 1.0
C      1  0.4893320000000  0.4734390000000  0.4422160000000 1.0
C      1  0.4852090000000  0.5027760000000  0.5603940000000 1.0
C      1  0.5195440000000  0.6386820000000  0.5008590000000 1.0
C      1  0.5198740000000  0.3589600000000  0.4885940000000 1.0
C      1  0.4685550000000  0.5011190000000  0.4772680000000 1.0
C      1  0.4693230000000  0.4858400000000  0.5440070000000 1.0
C      1  0.4717780000000  0.4357570000000  0.5375390000000 1.0
C      1  0.4707000000000  0.5501140000000  0.4700560000000 1.0
C      1  0.5572580000000  0.5729220000000  0.5719130000000 1.0
C      1  0.5651860000000  0.4303520000000  0.4308390000000 1.0
C      1  0.5019760000000  0.5498410000000  0.3838020000000 1.0
C      1  0.4856540000000  0.4359130000000  0.5966960000000 1.0
C      1  0.4331420000000  0.5111760000000  0.6354070000000 1.0
C      1  0.4435310000000  0.4967370000000  0.3700590000000 1.0
C      1  0.5316860000000  0.4941970000000  0.4499680000000 1.0
C      1  0.5355450000000  0.4988390000000  0.5617010000000 1.0
C      1  0.5585030000000  0.4844780000000  0.5551250000000 1.0
C      1  0.5546730000000  0.5071250000000  0.4612340000000 1.0
C      1  0.4487970000000  0.4597470000000  0.4169580000000 1.0
C      1  0.4472210000000  0.5326460000000  0.5857270000000 1.0
C      1  0.5198880000000  0.4890260000000  0.3839030000000 1.0
C      1  0.5110340000000  0.5006690000000  0.6216860000000 1.0
C      1  0.3720420000000  0.4804630000000  0.4232600000000 1.0
C      1  0.3881820000000  0.5407280000000  0.5602590000000 1.0
C      1  0.4289260000000  0.5353650000000  0.4784660000000 1.0
C      1  0.4315020000000  0.4551160000000  0.5410290000000 1.0
C      1  0.5888980000000  0.4360340000000  0.5033260000000 1.0
C      1  0.5772000000000  0.5668240000000  0.4989430000000 1.0
C      1  0.4906340000000  0.5622770000000  0.4558720000000 1.0
C      1  0.4931650000000  0.4398110000000  0.5212040000000 1.0
C      1  0.4034340000000  0.4225230000000  0.5183660000000 1.0
C      1  0.4141480000000  0.5833430000000  0.4887600000000 1.0
C      1  0.3817410000000  0.5683340000000  0.4554980000000 1.0
C      1  0.3685350000000  0.4531970000000  0.5397700000000 1.0
C      1  0.5225420000000  0.5547700000000  0.4251990000000 1.0
C      1  0.5170130000000  0.4383910000000  0.5592870000000 1.0
C      1  0.3806420000000  0.4674030000000  0.4450530000000 1.0
C      1  0.4058610000000  0.5450850000000  0.5400430000000 1.0
C      1  0.5744510000000  0.5525150000000  0.5234890000000 1.0
C      1  0.5863650000000  0.4498150000000  0.4781510000000 1.0
C      1  0.5715570000000  0.5441160000000  0.4098960000000 1.0
C      1  0.5567070000000  0.4385970000000  0.5934630000000 1.0
C      1  0.5451430000000  0.6126210000000  0.4645660000000 1.0
C      1  0.5463730000000  0.3841390000000  0.5247050000000 1.0
C      1  0.4607610000000  0.5131700000000  0.6287140000000 1.0
C      1  0.4683040000000  0.4858020000000  0.3778380000000 1.0
C      1  0.5747860000000  0.4201790000000  0.5467170000000 1.0
C      1  0.5770720000000  0.5760410000000  0.4518120000000 1.0
C      1  0.4289610000000  0.5297660000000  0.5329020000000 1.0
C      1  0.4024280000000  0.4678230000000  0.4606510000000 1.0
C      1  0.5161140000000  0.4506380000000  0.5338430000000 1.0
C      1  0.5120670000000  0.5466640000000  0.4495010000000 1.0
C      1  0.4678810000000  0.4617990000000  0.3944750000000 1.0
C      1  0.4655900000000  0.5329870000000  0.6086260000000 1.0
C      1  0.5490290000000  0.5286920000000  0.3969300000000 1.0
C      1  0.5323340000000  0.4539120000000  0.6008750000000 1.0
C      1  0.3673520000000  0.4978590000000  0.5682820000000 1.0
C      1  0.3761200000000  0.5275610000000  0.4278170000000 1.0
C      1  0.3788740000000  0.5049940000000  0.4110940000000 1.0
C      1  0.3800700000000  0.5208760000000  0.5791570000000 1.0
C      1  0.5365090000000  0.6337500000000  0.4807970000000 1.0
C      1  0.5404070000000  0.3655490000000  0.5044990000000 1.0
C      1  0.4770410000000  0.3883840000000  0.4866670000000 1.0
C      1  0.4843220000000  0.6036480000000  0.5155910000000 1.0
C      1  0.5233960000000  0.5371790000000  0.4994000000000 1.0
C      1  0.5179870000000  0.4912230000000  0.5057350000000 1.0
C      1  0.6106640000000  0.4942370000000  0.4628080000000 1.0
C      1  0.6118490000000  0.5189190000000  0.5234780000000 1.0
C      1  0.5346010000000  0.4665000000000  0.4452160000000 1.0
C      1  0.5347320000000  0.5266220000000  0.5654490000000 1.0
C      1  0.4787840000000  0.5631310000000  0.3874770000000 1.0
C      1  0.4623880000000  0.4229890000000  0.5983760000000 1.0
C      1  0.6283370000000  0.5426500000000  0.5247220000000 1.0
C      1  0.6346170000000  0.4847450000000  0.4501380000000 1.0
C      1  0.4569100000000  0.5278360000000  0.5206730000000 1.0
C      1  0.4681730000000  0.4539690000000  0.4836240000000 1.0
C      1  0.5097430000000  0.5904490000000  0.5830800000000 1.0
C      1  0.5128890000000  0.4114920000000  0.4260840000000 1.0
C      1  0.4986230000000  0.5718400000000  0.6014420000000 1.0
C      1  0.5001200000000  0.4198870000000  0.4011350000000 1.0
C      1  0.5642960000000  0.5076510000000  0.5072280000000 1.0
C      1  0.5694490000000  0.4945560000000  0.4824090000000 1.0
C      1  0.5592420000000  0.5539470000000  0.5940350000000 1.0
C      1  0.5617700000000  0.4536570000000  0.4115570000000 1.0
C      1  0.4604160000000  0.5703650000000  0.4878850000000 1.0
C      1  0.4546470000000  0.4147550000000  0.5273780000000 1.0
C      1  0.5564280000000  0.5611490000000  0.5445830000000 1.0
C      1  0.5668610000000  0.4386690000000  0.4598100000000 1.0
C      1  0.4806190000000  0.5913520000000  0.4899690000000 1.0
C      1  0.4728780000000  0.3949350000000  0.5151510000000 1.0
C      1  0.4384500000000  0.5642940000000  0.4214200000000 1.0
C      1  0.4131660000000  0.4333880000000  0.5861960000000 1.0
C      1  0.6183240000000  0.5143330000000  0.4118930000000 1.0
C      1  0.6414430000000  0.5655210000000  0.5715530000000 1.0
C      1  0.3849980000000  0.4300850000000  0.5400600000000 1.0
C      1  0.4048970000000  0.5841830000000  0.4609530000000 1.0
C      1  0.4139370000000  0.4607770000000  0.5933200000000 1.0
C      1  0.4344220000000  0.5361650000000  0.4226370000000 1.0
C      1  0.4726770000000  0.4047510000000  0.4633610000000 1.0
C      1  0.4766100000000  0.5928540000000  0.5416480000000 1.0
C      1  0.5795020000000  0.5953700000000  0.4952080000000 1.0
C      1  0.5861800000000  0.4067670000000  0.5031930000000 1.0
C      1  0.4927790000000  0.4431050000000  0.4927890000000 1.0
C      1  0.4834190000000  0.5390910000000  0.5288810000000 1.0
C      1  0.6265830000000  0.4955530000000  0.5157800000000 1.0
C      1  0.6121670000000  0.5223520000000  0.4663370000000 1.0
C      1  0.5036390000000  0.4969180000000  0.4439030000000 1.0
C      1  0.5094080000000  0.4906050000000  0.5671350000000 1.0
C      1  0.6347930000000  0.5526950000000  0.4991510000000 1.0
C      1  0.6510410000000  0.4781910000000  0.4727850000000 1.0
C      1  0.4468350000000  0.4172410000000  0.4547340000000 1.0
C      1  0.4537000000000  0.5758830000000  0.5490830000000 1.0
C      1  0.5654400000000  0.5696970000000  0.4262180000000 1.0
C      1  0.5571960000000  0.4211880000000  0.5693590000000 1.0
C      1  0.5549230000000  0.5352160000000  0.4651520000000 1.0
C      1  0.5759170000000  0.4686260000000  0.5424330000000 1.0
C      1  0.5238430000000  0.5426310000000  0.4000430000000 1.0
C      1  0.5095240000000  0.4453450000000  0.5856060000000 1.0
C      1  0.4967440000000  0.3891940000000  0.5317390000000 1.0
C      1  0.4990350000000  0.5888220000000  0.4653330000000 1.0
C      1  0.3948150000000  0.4239240000000  0.5666200000000 1.0
C      1  0.4245740000000  0.5819700000000  0.4394490000000 1.0
C      1  0.5159180000000  0.5271370000000  0.6099390000000 1.0
C      1  0.5162160000000  0.4640970000000  0.3975080000000 1.0
C      1  0.4949070000000  0.4183900000000  0.4478620000000 1.0
C      1  0.4925980000000  0.6004790000000  0.5634840000000 1.0
C      1  0.5308990000000  0.5462610000000  0.5446840000000 1.0
C      1  0.5397500000000  0.4482720000000  0.4661610000000 1.0
C      1  0.4846400000000  0.4980990000000  0.6336820000000 1.0
C      1  0.4945050000000  0.4973120000000  0.3733480000000 1.0
C      1  0.4582140000000  0.5717050000000  0.4025440000000 1.0
C      1  0.4363080000000  0.4191910000000  0.5937630000000 1.0
C      1  0.5239640000000  0.3936270000000  0.5403560000000 1.0
C      1  0.5253810000000  0.5963560000000  0.4511950000000 1.0
C      1  0.5215410000000  0.4484580000000  0.4874210000000 1.0
C      1  0.5108570000000  0.5464140000000  0.5230720000000 1.0
C      1  0.3841760000000  0.5402720000000  0.4515010000000 1.0
C      1  0.3636890000000  0.4764640000000  0.5524590000000 1.0
C      1  0.5275600000000  0.4777090000000  0.6162800000000 1.0
C      1  0.5472630000000  0.5001740000000  0.3894450000000 1.0
C      1  0.4175260000000  0.5021130000000  0.3739000000000 1.0
C      1  0.4083370000000  0.5167940000000  0.6256840000000 1.0
C      1  0.4332370000000  0.5622960000000  0.4894410000000 1.0
C      1  0.4290960000000  0.4282140000000  0.5290720000000 1.0
C      1  0.5341060000000  0.4594470000000  0.4181760000000 1.0
C      1  0.5380040000000  0.5347360000000  0.5927360000000 1.0
C      1  0.4998620000000  0.6272440000000  0.5148750000000 1.0
C      1  0.4949420000000  0.3666510000000  0.4824990000000 1.0
C      1  0.4831920000000  0.4454610000000  0.4429510000000 1.0
C      1  0.4815120000000  0.5320540000000  0.5567480000000 1.0
C      1  0.4291670000000  0.4761030000000  0.4580750000000 1.0
C      1  0.4242510000000  0.5045960000000  0.5483100000000 1.0
C      1  0.5677040000000  0.4784310000000  0.3960590000000 1.0
C      1  0.5788060000000  0.5544270000000  0.6129250000000 1.0
C      1  0.5975370000000  0.5316160000000  0.4096690000000 1.0
C      1  0.5791670000000  0.4403890000000  0.6092570000000 1.0
C      1  0.4037490000000  0.5282070000000  0.4683340000000 1.0
C      1  0.4211090000000  0.4800530000000  0.5312590000000 1.0
C      1  0.6263680000000  0.5431810000000  0.4754480000000 1.0
C      1  0.6440690000000  0.4833330000000  0.4988700000000 1.0
C      1  0.5832930000000  0.5243940000000  0.5210360000000 1.0
C      1  0.5908950000000  0.4781880000000  0.4750540000000 1.0
C      1  0.4142240000000  0.5936260000000  0.5156300000000 1.0
C      1  0.4052630000000  0.4161310000000  0.4906500000000 1.0
C      1  0.4488730000000  0.4772900000000  0.4805440000000 1.0
C      1  0.4597630000000  0.4988180000000  0.5202800000000 1.0
C      1  0.5308900000000  0.4135710000000  0.5593670000000 1.0
C      1  0.5371180000000  0.5790490000000  0.4291390000000 1.0
C      1  0.6346960000000  0.4960000000000  0.4239160000000 1.0
C      1  0.6363320000000  0.5542830000000  0.5486040000000 1.0
C      1  0.4377700000000  0.5096010000000  0.4233720000000 1.0
C      1  0.4260490000000  0.4846040000000  0.5915690000000 1.0
C      1  0.4548030000000  0.4386830000000  0.4359560000000 1.0
C      1  0.4588810000000  0.5498710000000  0.5653310000000 1.0
C      1  0.5709360000000  0.3987830000000  0.5264600000000 1.0
C      1  0.5709580000000  0.6004640000000  0.4677600000000 1.0
C      1  0.5375640000000  0.5926830000000  0.5777960000000 1.0
C      1  0.5421400000000  0.4111690000000  0.4273540000000 1.0
C      1  0.4934120000000  0.4470440000000  0.3945620000000 1.0
C      1  0.4924980000000  0.5449340000000  0.6081860000000 1.0
C      1  0.3947940000000  0.5052080000000  0.3877950000000 1.0
C      1  0.3901850000000  0.5209910000000  0.6059580000000 1.0
C      1  0.4560320000000  0.5259860000000  0.4715050000000 1.0
C      1  0.4595300000000  0.4591370000000  0.5481600000000 1.0
C      1  0.4940960000000  0.4969410000000  0.4905530000000 1.0
C      1  0.5360000000000  0.5124250000000  0.5081140000000 1.0
C      1  0.4375300000000  0.4847760000000  0.5074230000000 1.0
END
