TITL C-3623284-6838-338 -7.73720558242908e-07 125000 -793.961972624708 0 0 127 (C1) n - 1
REM
REM in /home/nfs/bkarasulu/CARBON/AIRSS/Generating-Clusters/LCBOP/Higher-Symm/SD-CG/FIRE-CG
REM
REM
REM
REM
REM
REM ./C.cell (b20cbc046b6831c77cfcea5457e17084)
REM AIRSS Version 0.9.1 bugfix July 2018 build 013d7b7c2542+ Fri, 06 Jul 2018 19:26:36 +0100
REM compiler GCC version 9.2.1 20190827 (Red Hat 9.2.1-1)
REM options -cpp -mtune=generic -march=x86-64 -g -O0 -fpre-include=/usr/include/finclude/math-vector-fortran.h
REM seed -1160358689 707971718 402815721 153792891 1799235862 1159766588 1937444738 -189282183 -1992710957 128135682 376280786 -1610831816 -272966913 -2137815241 -2118188587 749618605 -449376211 -532063183 1434612912 -161578850 2055460308 177717550 -1313256781 -1189351207 -217889518 29253254 1449563201 -403862397 368667023 1445171046 1790809205 613763314 1571547691
REM
CELL 1.54180   50.00000   50.00000   50.00000   90.00000   90.00000   90.00000
LATT -1
SFAC C  
C      1  0.4878070000000  0.4350370000000  0.5863960000000 1.0
C      1  0.5348750000000  0.5467060000000  0.3866690000000 1.0
C      1  0.5760710000000  0.4311660000000  0.4565370000000 1.0
C      1  0.4326320000000  0.5750090000000  0.5568250000000 1.0
C      1  0.5567200000000  0.4358280000000  0.5164100000000 1.0
C      1  0.4410930000000  0.5863020000000  0.4961930000000 1.0
C      1  0.3829060000000  0.5276050000000  0.4736140000000 1.0
C      1  0.5835290000000  0.4493710000000  0.5159370000000 1.0
C      1  0.4866940000000  0.6009860000000  0.5099820000000 1.0
C      1  0.5178470000000  0.4070790000000  0.4995850000000 1.0
C      1  0.4777810000000  0.4701710000000  0.5382550000000 1.0
C      1  0.5083950000000  0.5392990000000  0.4570080000000 1.0
C      1  0.4678650000000  0.4705570000000  0.5644080000000 1.0
C      1  0.5155230000000  0.5449090000000  0.4304230000000 1.0
C      1  0.5934720000000  0.5513430000000  0.5045090000000 1.0
C      1  0.4004690000000  0.4336660000000  0.4924010000000 1.0
C      1  0.5003520000000  0.6228210000000  0.5216840000000 1.0
C      1  0.5112560000000  0.3818430000000  0.4879770000000 1.0
C      1  0.5015230000000  0.3802770000000  0.4624370000000 1.0
C      1  0.5096200000000  0.6232390000000  0.5471800000000 1.0
C      1  0.5655650000000  0.4976960000000  0.5884450000000 1.0
C      1  0.4351920000000  0.5046890000000  0.4353900000000 1.0
C      1  0.5209920000000  0.4504980000000  0.5527510000000 1.0
C      1  0.4686000000000  0.5695700000000  0.4610400000000 1.0
C      1  0.4890020000000  0.4157350000000  0.4288040000000 1.0
C      1  0.5186460000000  0.5899600000000  0.5828600000000 1.0
C      1  0.5137670000000  0.4688660000000  0.5073810000000 1.0
C      1  0.4631470000000  0.5240700000000  0.4684500000000 1.0
C      1  0.4447950000000  0.4147480000000  0.5475760000000 1.0
C      1  0.5503550000000  0.5829900000000  0.4512170000000 1.0
C      1  0.4657710000000  0.4219340000000  0.4996620000000 1.0
C      1  0.5316270000000  0.5746930000000  0.5016260000000 1.0
C      1  0.4167530000000  0.5044240000000  0.5545220000000 1.0
C      1  0.5792140000000  0.4956720000000  0.4387170000000 1.0
C      1  0.5532400000000  0.4190190000000  0.4676940000000 1.0
C      1  0.4536280000000  0.5900560000000  0.5455040000000 1.0
C      1  0.3687480000000  0.5943360000000  0.4490390000000 1.0
C      1  0.6439410000000  0.4411940000000  0.5596970000000 1.0
C      1  0.5024100000000  0.5773700000000  0.5051150000000 1.0
C      1  0.4957780000000  0.4251940000000  0.4984750000000 1.0
C      1  0.5010750000000  0.6048610000000  0.5670030000000 1.0
C      1  0.5079790000000  0.4006270000000  0.4435170000000 1.0
C      1  0.3743950000000  0.5034730000000  0.4808060000000 1.0
C      1  0.5922930000000  0.4720360000000  0.5015620000000 1.0
C      1  0.5317580000000  0.4884690000000  0.4982250000000 1.0
C      1  0.4621470000000  0.5096960000000  0.4920180000000 1.0
C      1  0.5685280000000  0.4730080000000  0.5787970000000 1.0
C      1  0.4386770000000  0.5259970000000  0.4537070000000 1.0
C      1  0.5047060000000  0.4637270000000  0.5333260000000 1.0
C      1  0.4816670000000  0.5444980000000  0.4629750000000 1.0
C      1  0.5457200000000  0.4777390000000  0.3896400000000 1.0
C      1  0.4981260000000  0.4986150000000  0.5950010000000 1.0
C      1  0.5843840000000  0.4470880000000  0.4365990000000 1.0
C      1  0.4225920000000  0.5601570000000  0.5767470000000 1.0
C      1  0.4750510000000  0.4606770000000  0.4752350000000 1.0
C      1  0.5316130000000  0.5315770000000  0.5244470000000 1.0
C      1  0.4450060000000  0.4817290000000  0.4250150000000 1.0
C      1  0.5581680000000  0.5227850000000  0.5936170000000 1.0
C      1  0.5112220000000  0.4506360000000  0.5801050000000 1.0
C      1  0.5324350000000  0.5243320000000  0.3721450000000 1.0
C      1  0.5746300000000  0.5422500000000  0.4617830000000 1.0
C      1  0.4169870000000  0.4567080000000  0.5319710000000 1.0
C      1  0.5343520000000  0.4100970000000  0.4480610000000 1.0
C      1  0.4741360000000  0.5971860000000  0.5638110000000 1.0
C      1  0.5574140000000  0.5660080000000  0.4277750000000 1.0
C      1  0.4392070000000  0.4346470000000  0.5680920000000 1.0
C      1  0.4182430000000  0.4337700000000  0.5147060000000 1.0
C      1  0.5769520000000  0.5609270000000  0.4830860000000 1.0
C      1  0.4244300000000  0.5501960000000  0.4617820000000 1.0
C      1  0.5698220000000  0.4526320000000  0.5597260000000 1.0
C      1  0.5276360000000  0.5164160000000  0.5008800000000 1.0
C      1  0.4664610000000  0.4818480000000  0.4916380000000 1.0
C      1  0.5468780000000  0.5468870000000  0.5952140000000 1.0
C      1  0.4590790000000  0.4592590000000  0.4199450000000 1.0
C      1  0.5215130000000  0.4593550000000  0.4333180000000 1.0
C      1  0.4899450000000  0.5259450000000  0.5537170000000 1.0
C      1  0.5933130000000  0.4486480000000  0.5435470000000 1.0
C      1  0.3962210000000  0.5503170000000  0.4638830000000 1.0
C      1  0.5540930000000  0.5237410000000  0.4657120000000 1.0
C      1  0.4325740000000  0.4781740000000  0.5225530000000 1.0
C      1  0.3721240000000  0.4776460000000  0.4867720000000 1.0
C      1  0.6003340000000  0.4977060000000  0.5010260000000 1.0
C      1  0.5839070000000  0.5082430000000  0.3952080000000 1.0
C      1  0.4130370000000  0.4913670000000  0.5995220000000 1.0
C      1  0.4110980000000  0.4240950000000  0.4681810000000 1.0
C      1  0.5892470000000  0.5635190000000  0.5295610000000 1.0
C      1  0.5522540000000  0.5780430000000  0.4802630000000 1.0
C      1  0.4436940000000  0.4189020000000  0.5189650000000 1.0
C      1  0.5782870000000  0.5458130000000  0.4335820000000 1.0
C      1  0.4186760000000  0.4550560000000  0.5609260000000 1.0
C      1  0.5469630000000  0.4428420000000  0.5442700000000 1.0
C      1  0.4419680000000  0.5716960000000  0.4717340000000 1.0
C      1  0.5424330000000  0.4794360000000  0.4724660000000 1.0
C      1  0.4535140000000  0.5204900000000  0.5182260000000 1.0
C      1  0.4149550000000  0.5175010000000  0.6064740000000 1.0
C      1  0.5734520000000  0.4806980000000  0.3963280000000 1.0
C      1  0.5351450000000  0.5553590000000  0.4132890000000 1.0
C      1  0.4629730000000  0.4463090000000  0.5785140000000 1.0
C      1  0.5444580000000  0.4193800000000  0.4958300000000 1.0
C      1  0.4585850000000  0.5949730000000  0.5171560000000 1.0
C      1  0.4145260000000  0.4818120000000  0.5730030000000 1.0
C      1  0.5840620000000  0.5202530000000  0.4215280000000 1.0
C      1  0.5347880000000  0.4976400000000  0.3729210000000 1.0
C      1  0.5119400000000  0.4754520000000  0.5941930000000 1.0
C      1  0.4594190000000  0.4722150000000  0.5171390000000 1.0
C      1  0.5278730000000  0.5293210000000  0.4751580000000 1.0
C      1  0.5293120000000  0.4641120000000  0.4081510000000 1.0
C      1  0.4848430000000  0.5165600000000  0.5797310000000 1.0
C      1  0.5333940000000  0.5696390000000  0.5918180000000 1.0
C      1  0.4734460000000  0.4363900000000  0.4209550000000 1.0
C      1  0.5814670000000  0.4712890000000  0.4231100000000 1.0
C      1  0.4182960000000  0.5420380000000  0.5960120000000 1.0
C      1  0.6025390000000  0.5243870000000  0.5033290000000 1.0
C      1  0.3796560000000  0.4524790000000  0.4912350000000 1.0
C      1  0.6193000000000  0.4445210000000  0.5518970000000 1.0
C      1  0.3816670000000  0.5728290000000  0.4560880000000 1.0
C      1  0.4312570000000  0.5058990000000  0.5303580000000 1.0
C      1  0.5598550000000  0.4971260000000  0.4592140000000 1.0
C      1  0.5231750000000  0.4607920000000  0.4613060000000 1.0
C      1  0.4743010000000  0.5353530000000  0.5313850000000 1.0
C      1  0.4363770000000  0.4283670000000  0.4602260000000 1.0
C      1  0.5639520000000  0.5664950000000  0.5385090000000 1.0
C      1  0.5030060000000  0.4523290000000  0.4834050000000 1.0
C      1  0.4881180000000  0.5543340000000  0.5148950000000 1.0
C      1  0.4581620000000  0.4371010000000  0.4752200000000 1.0
C      1  0.5417000000000  0.5582150000000  0.5234650000000 1.0
C      1  0.5173840000000  0.5241460000000  0.5470820000000 1.0
END
