TITL C-3623289-7120-1927 780805.720016574 125000 -628.552304668889 0 0 106 (C1) n - 1
REM
REM in /home/nfs/bkarasulu/CARBON/AIRSS/Generating-Clusters/LCBOP/Higher-Symm/SD-CG/FIRE-CG
REM
REM
REM
REM
REM
REM ./C.cell (b20cbc046b6831c77cfcea5457e17084)
REM AIRSS Version 0.9.1 bugfix July 2018 build 013d7b7c2542+ Fri, 06 Jul 2018 19:26:36 +0100
REM compiler GCC version 9.2.1 20190827 (Red Hat 9.2.1-1)
REM options -cpp -mtune=generic -march=x86-64 -g -O0 -fpre-include=/usr/include/finclude/math-vector-fortran.h
REM seed 1309381387 -176052688 1068557019 -1205123690 471351896 -1234230547 692303975 -1832205232 -928281938 -1717138610 1604445361 1779746564 490033028 1876023480 -40980021 1285286788 138680371 297027097 -1280720145 1205506788 -1092482331 -1030295850 1387880722 1914681583 -1372631911 -1798927389 339147305 -1706645413 1052733540 -1614787174 -1252838961 -97096343 1010751374
REM
CELL 1.54180   50.00000   50.00000   50.00000   90.00000   90.00000   90.00000
LATT -1
SFAC C  
C      1  0.4270430000000  0.4818790000000  0.5387130000000 1.0
C      1  0.5742440000000  0.5130390000000  0.5490140000000 1.0
C      1  0.5258200000000  0.4626940000000  0.5483240000000 1.0
C      1  0.4783230000000  0.5560390000000  0.5618390000000 1.0
C      1  0.5192130000000  0.5224420000000  0.4758220000000 1.0
C      1  0.4706660000000  0.4759680000000  0.4799200000000 1.0
C      1  0.4516400000000  0.5653870000000  0.4543990000000 1.0
C      1  0.5495300000000  0.4595330000000  0.4781120000000 1.0
C      1  0.4924350000000  0.4271020000000  0.4623310000000 1.0
C      1  0.5137320000000  0.5760270000000  0.4479120000000 1.0
C      1  0.5693170000000  0.5501100000000  0.4088360000000 1.0
C      1  0.4392570000000  0.4288320000000  0.4110390000000 1.0
C      1  0.5594470000000  0.5476970000000  0.4574930000000 1.0
C      1  0.4374580000000  0.4403580000000  0.4594150000000 1.0
C      1  0.4742780000000  0.4146810000000  0.5093950000000 1.0
C      1  0.5221250000000  0.5785420000000  0.5039200000000 1.0
C      1  0.5519830000000  0.5507540000000  0.4297970000000 1.0
C      1  0.4518210000000  0.4356520000000  0.4343230000000 1.0
C      1  0.5769780000000  0.4676550000000  0.5348460000000 1.0
C      1  0.4298170000000  0.5136440000000  0.5713870000000 1.0
C      1  0.5159790000000  0.4299070000000  0.4772230000000 1.0
C      1  0.4919410000000  0.5927180000000  0.4424400000000 1.0
C      1  0.5609420000000  0.4296600000000  0.4762380000000 1.0
C      1  0.4351820000000  0.5692840000000  0.4775580000000 1.0
C      1  0.5690800000000  0.4858620000000  0.5130970000000 1.0
C      1  0.4483220000000  0.5234050000000  0.5156850000000 1.0
C      1  0.5041320000000  0.5336240000000  0.4201210000000 1.0
C      1  0.4960200000000  0.4621630000000  0.4251180000000 1.0
C      1  0.4574220000000  0.4515300000000  0.4770890000000 1.0
C      1  0.5351580000000  0.5445530000000  0.4720670000000 1.0
C      1  0.4832220000000  0.5771620000000  0.6052970000000 1.0
C      1  0.5313580000000  0.4401270000000  0.5911860000000 1.0
C      1  0.5624120000000  0.5343610000000  0.5636900000000 1.0
C      1  0.4358880000000  0.4616730000000  0.5570480000000 1.0
C      1  0.5231750000000  0.5555840000000  0.4274580000000 1.0
C      1  0.4813640000000  0.4384340000000  0.4364290000000 1.0
C      1  0.5170880000000  0.5131700000000  0.5018350000000 1.0
C      1  0.4904570000000  0.5090390000000  0.5079060000000 1.0
C      1  0.4204770000000  0.4257070000000  0.4777840000000 1.0
C      1  0.5793440000000  0.5584000000000  0.4745680000000 1.0
C      1  0.5549920000000  0.5709380000000  0.5192510000000 1.0
C      1  0.4478140000000  0.4205040000000  0.5229800000000 1.0
C      1  0.4526690000000  0.5628800000000  0.5525930000000 1.0
C      1  0.5510900000000  0.4196270000000  0.5308980000000 1.0
C      1  0.4910030000000  0.4871390000000  0.4628660000000 1.0
C      1  0.4959730000000  0.5148110000000  0.4612580000000 1.0
C      1  0.5616840000000  0.4872110000000  0.4422330000000 1.0
C      1  0.4371590000000  0.5243990000000  0.4314230000000 1.0
C      1  0.4657350000000  0.5877540000000  0.4447010000000 1.0
C      1  0.5239770000000  0.4540060000000  0.4933080000000 1.0
C      1  0.5870700000000  0.4263670000000  0.4669010000000 1.0
C      1  0.4080410000000  0.5622240000000  0.4768710000000 1.0
C      1  0.5038860000000  0.4804200000000  0.5914250000000 1.0
C      1  0.4971450000000  0.5311650000000  0.5990050000000 1.0
C      1  0.4352890000000  0.5420410000000  0.5646380000000 1.0
C      1  0.5682580000000  0.4404470000000  0.5355740000000 1.0
C      1  0.5752460000000  0.5678310000000  0.4998100000000 1.0
C      1  0.4256160000000  0.4196720000000  0.5042810000000 1.0
C      1  0.4735980000000  0.4839670000000  0.5080230000000 1.0
C      1  0.5330070000000  0.5227850000000  0.5228200000000 1.0
C      1  0.5569280000000  0.5603120000000  0.5479910000000 1.0
C      1  0.4501880000000  0.4396440000000  0.5453670000000 1.0
C      1  0.5177310000000  0.5426630000000  0.5387170000000 1.0
C      1  0.4882800000000  0.4631910000000  0.5235030000000 1.0
C      1  0.5314120000000  0.4076570000000  0.5133360000000 1.0
C      1  0.4645930000000  0.5802860000000  0.5221890000000 1.0
C      1  0.5015420000000  0.4058420000000  0.5179090000000 1.0
C      1  0.4945100000000  0.5843730000000  0.5157540000000 1.0
C      1  0.4579080000000  0.5400180000000  0.4421310000000 1.0
C      1  0.5386590000000  0.4720670000000  0.4515330000000 1.0
C      1  0.5277620000000  0.5097780000000  0.3847310000000 1.0
C      1  0.4723740000000  0.4798820000000  0.3861780000000 1.0
C      1  0.4730040000000  0.4278110000000  0.4836870000000 1.0
C      1  0.5220410000000  0.5700530000000  0.4758100000000 1.0
C      1  0.5837500000000  0.4861610000000  0.4612750000000 1.0
C      1  0.4111740000000  0.5181880000000  0.4325010000000 1.0
C      1  0.4476590000000  0.4832230000000  0.5820360000000 1.0
C      1  0.5399650000000  0.5216100000000  0.5795730000000 1.0
C      1  0.5204020000000  0.4609640000000  0.5769480000000 1.0
C      1  0.4860430000000  0.5553470000000  0.5891010000000 1.0
C      1  0.5108760000000  0.5091930000000  0.5831890000000 1.0
C      1  0.4738610000000  0.4779020000000  0.5937060000000 1.0
C      1  0.3896630000000  0.5461350000000  0.4659740000000 1.0
C      1  0.6063880000000  0.4430650000000  0.4580780000000 1.0
C      1  0.3849270000000  0.5072480000000  0.5491690000000 1.0
C      1  0.5994510000000  0.4807510000000  0.5779610000000 1.0
C      1  0.4921130000000  0.4834670000000  0.4051690000000 1.0
C      1  0.5077200000000  0.5090330000000  0.4038860000000 1.0
C      1  0.4901900000000  0.5450790000000  0.5380280000000 1.0
C      1  0.5163740000000  0.4607550000000  0.5204410000000 1.0
C      1  0.4759940000000  0.5323690000000  0.5169980000000 1.0
C      1  0.5704100000000  0.4791620000000  0.4863840000000 1.0
C      1  0.4939090000000  0.5083260000000  0.5585490000000 1.0
C      1  0.4700370000000  0.5007540000000  0.5505000000000 1.0
C      1  0.5292170000000  0.5631080000000  0.5549550000000 1.0
C      1  0.4773300000000  0.4479670000000  0.5442300000000 1.0
C      1  0.5848020000000  0.4868030000000  0.5558720000000 1.0
C      1  0.4111670000000  0.5015380000000  0.5526160000000 1.0
C      1  0.5380720000000  0.4125250000000  0.4847950000000 1.0
C      1  0.4464090000000  0.5798870000000  0.5010770000000 1.0
C      1  0.5590180000000  0.5104650000000  0.5242040000000 1.0
C      1  0.4509460000000  0.4946900000000  0.5258160000000 1.0
C      1  0.3904230000000  0.5270950000000  0.4470420000000 1.0
C      1  0.6061830000000  0.4700530000000  0.4552680000000 1.0
C      1  0.4845450000000  0.5302440000000  0.4408890000000 1.0
C      1  0.5107050000000  0.4727290000000  0.4474040000000 1.0
END
