TITL C-3623282-6910-291 -2.28316862358613e-06 125000 -738.647645078481 0 0 117 (C1) n - 1
REM
REM in /home/nfs/bkarasulu/CARBON/AIRSS/Generating-Clusters/LCBOP/Higher-Symm/SD-CG/FIRE-CG
REM
REM
REM
REM
REM
REM ./C.cell (b20cbc046b6831c77cfcea5457e17084)
REM AIRSS Version 0.9.1 bugfix July 2018 build 013d7b7c2542+ Fri, 06 Jul 2018 19:26:36 +0100
REM compiler GCC version 9.2.1 20190827 (Red Hat 9.2.1-1)
REM options -cpp -mtune=generic -march=x86-64 -g -O0 -fpre-include=/usr/include/finclude/math-vector-fortran.h
REM seed -421013951 -2012519088 -1712332332 -1197683375 -1922023135 1469136256 -667053829 -101389896 1710033795 -65289723 -1396800373 -903593474 382028805 841000352 -796364459 -1852063695 1254560749 1236490025 1948131241 -1788480677 1868517765 -118953845 -470166116 -1138948300 -252887978 -1045446838 -39419406 -885988274 -1620213864 -1580264041 536088239 -1987871221 1141567891
REM
CELL 1.54180   50.00000   50.00000   50.00000   90.00000   90.00000   90.00000
LATT -1
SFAC C  
C      1  0.4596260000000  0.4489740000000  0.4344700000000 1.0
C      1  0.5482450000000  0.4503890000000  0.4444860000000 1.0
C      1  0.5672750000000  0.4529320000000  0.5290060000000 1.0
C      1  0.4926920000000  0.4581760000000  0.5751170000000 1.0
C      1  0.4229220000000  0.4474140000000  0.5170810000000 1.0
C      1  0.4608940000000  0.5528890000000  0.4286720000000 1.0
C      1  0.5506540000000  0.5557650000000  0.4456300000000 1.0
C      1  0.5778730000000  0.5541670000000  0.5342050000000 1.0
C      1  0.4978130000000  0.5392280000000  0.5737880000000 1.0
C      1  0.4245290000000  0.5505980000000  0.5120640000000 1.0
C      1  0.5459090000000  0.5962440000000  0.5295640000000 1.0
C      1  0.4891930000000  0.5856800000000  0.5526070000000 1.0
C      1  0.4485810000000  0.5950390000000  0.5058080000000 1.0
C      1  0.4815620000000  0.5952750000000  0.4553460000000 1.0
C      1  0.5394720000000  0.5991370000000  0.4705620000000 1.0
C      1  0.5454970000000  0.4052070000000  0.5268690000000 1.0
C      1  0.4912410000000  0.4076650000000  0.5540880000000 1.0
C      1  0.4476800000000  0.4035740000000  0.5072620000000 1.0
C      1  0.4760800000000  0.4016200000000  0.4552570000000 1.0
C      1  0.5377120000000  0.4039570000000  0.4666220000000 1.0
C      1  0.4265160000000  0.5202890000000  0.5493230000000 1.0
C      1  0.4211940000000  0.5232390000000  0.4487000000000 1.0
C      1  0.5228550000000  0.5210370000000  0.4204580000000 1.0
C      1  0.5937420000000  0.5248560000000  0.4931070000000 1.0
C      1  0.5441490000000  0.5267490000000  0.5862200000000 1.0
C      1  0.4316370000000  0.4737270000000  0.5557460000000 1.0
C      1  0.4201370000000  0.4740930000000  0.4539880000000 1.0
C      1  0.5192680000000  0.4737270000000  0.4155030000000 1.0
C      1  0.5874340000000  0.4756560000000  0.4890080000000 1.0
C      1  0.5395630000000  0.4781640000000  0.5838520000000 1.0
C      1  0.4905960000000  0.6044370000000  0.4807340000000 1.0
C      1  0.5187570000000  0.6064530000000  0.4879840000000 1.0
C      1  0.5216340000000  0.6040170000000  0.5170520000000 1.0
C      1  0.4947220000000  0.5998270000000  0.5284660000000 1.0
C      1  0.4757190000000  0.6022740000000  0.5060080000000 1.0
C      1  0.4886080000000  0.3939920000000  0.4798830000000 1.0
C      1  0.5177810000000  0.3944410000000  0.4848860000000 1.0
C      1  0.5218430000000  0.3956100000000  0.5142330000000 1.0
C      1  0.4953420000000  0.3968890000000  0.5276350000000 1.0
C      1  0.4748940000000  0.3954140000000  0.5060900000000 1.0
C      1  0.4813110000000  0.5588540000000  0.5594430000000 1.0
C      1  0.4353120000000  0.5722690000000  0.4963070000000 1.0
C      1  0.4815580000000  0.5712940000000  0.4401550000000 1.0
C      1  0.5531100000000  0.5748030000000  0.4679100000000 1.0
C      1  0.5543570000000  0.5710140000000  0.5394280000000 1.0
C      1  0.4804950000000  0.4331210000000  0.5634010000000 1.0
C      1  0.4339050000000  0.4272180000000  0.4995240000000 1.0
C      1  0.4779040000000  0.4259170000000  0.4404360000000 1.0
C      1  0.5500650000000  0.4296360000000  0.4642930000000 1.0
C      1  0.5512250000000  0.4302120000000  0.5390240000000 1.0
C      1  0.4926890000000  0.4850240000000  0.4110500000000 1.0
C      1  0.5827890000000  0.4877830000000  0.4616100000000 1.0
C      1  0.5604110000000  0.4881020000000  0.5647940000000 1.0
C      1  0.4503220000000  0.4879120000000  0.5740530000000 1.0
C      1  0.4072650000000  0.4854580000000  0.4790170000000 1.0
C      1  0.4950710000000  0.5144060000000  0.4102190000000 1.0
C      1  0.5865450000000  0.5177850000000  0.4646130000000 1.0
C      1  0.5663650000000  0.5163840000000  0.5692850000000 1.0
C      1  0.4382960000000  0.5140490000000  0.5750830000000 1.0
C      1  0.4078080000000  0.5154570000000  0.4746450000000 1.0
C      1  0.4695860000000  0.5392460000000  0.4881090000000 1.0
C      1  0.4896750000000  0.5332540000000  0.4665760000000 1.0
C      1  0.5364340000000  0.5402160000000  0.4972880000000 1.0
C      1  0.5184360000000  0.5378650000000  0.5243760000000 1.0
C      1  0.4837890000000  0.5365150000000  0.5165720000000 1.0
C      1  0.4697930000000  0.4594010000000  0.4934280000000 1.0
C      1  0.4951890000000  0.4572740000000  0.4731350000000 1.0
C      1  0.5192190000000  0.4490150000000  0.4951600000000 1.0
C      1  0.5125380000000  0.4559470000000  0.5253280000000 1.0
C      1  0.4807550000000  0.4576860000000  0.5229290000000 1.0
C      1  0.5252450000000  0.5463320000000  0.4346940000000 1.0
C      1  0.5818860000000  0.5487670000000  0.5058480000000 1.0
C      1  0.5264280000000  0.5458250000000  0.5739620000000 1.0
C      1  0.4373060000000  0.5434180000000  0.5365870000000 1.0
C      1  0.4400940000000  0.5465570000000  0.4484540000000 1.0
C      1  0.5228420000000  0.4498130000000  0.4309780000000 1.0
C      1  0.5707930000000  0.4548400000000  0.5007240000000 1.0
C      1  0.5218660000000  0.4574700000000  0.5742070000000 1.0
C      1  0.4363740000000  0.4488700000000  0.5428730000000 1.0
C      1  0.4387710000000  0.4520460000000  0.4543420000000 1.0
C      1  0.5182490000000  0.5090210000000  0.5416510000000 1.0
C      1  0.4829000000000  0.5060140000000  0.5177100000000 1.0
C      1  0.4493900000000  0.5146520000000  0.4922440000000 1.0
C      1  0.4924990000000  0.5055450000000  0.4689250000000 1.0
C      1  0.5425600000000  0.5228070000000  0.4748330000000 1.0
C      1  0.5292890000000  0.4843140000000  0.5268640000000 1.0
C      1  0.4765860000000  0.4851170000000  0.5348640000000 1.0
C      1  0.4511550000000  0.4864370000000  0.4969360000000 1.0
C      1  0.4866670000000  0.4823630000000  0.4558120000000 1.0
C      1  0.5394560000000  0.4948130000000  0.4752250000000 1.0
C      1  0.5471910000000  0.4441760000000  0.4883340000000 1.0
C      1  0.5270980000000  0.4427390000000  0.5492150000000 1.0
C      1  0.4636730000000  0.4414720000000  0.5417960000000 1.0
C      1  0.4479460000000  0.4421660000000  0.4798400000000 1.0
C      1  0.5021410000000  0.4395610000000  0.4483650000000 1.0
C      1  0.5579380000000  0.5604030000000  0.4927990000000 1.0
C      1  0.5321120000000  0.5550420000000  0.5469090000000 1.0
C      1  0.4659280000000  0.5474670000000  0.5383130000000 1.0
C      1  0.4487150000000  0.5579890000000  0.4747470000000 1.0
C      1  0.5013860000000  0.5523520000000  0.4492370000000 1.0
C      1  0.5634180000000  0.5321470000000  0.4561040000000 1.0
C      1  0.5820550000000  0.5338010000000  0.5536280000000 1.0
C      1  0.4984170000000  0.5105080000000  0.5657540000000 1.0
C      1  0.4223830000000  0.5271490000000  0.4960020000000 1.0
C      1  0.4728790000000  0.5325560000000  0.4118590000000 1.0
C      1  0.5543500000000  0.4814230000000  0.4511300000000 1.0
C      1  0.5566430000000  0.4777770000000  0.5388130000000 1.0
C      1  0.4797070000000  0.4860600000000  0.5656910000000 1.0
C      1  0.4212750000000  0.4777160000000  0.5063100000000 1.0
C      1  0.4745610000000  0.4740820000000  0.4304370000000 1.0
C      1  0.5978570000000  0.4983360000000  0.5047260000000 1.0
C      1  0.4237520000000  0.4971160000000  0.4359840000000 1.0
C      1  0.5377090000000  0.4954690000000  0.4257140000000 1.0
C      1  0.5342600000000  0.5022960000000  0.5994490000000 1.0
C      1  0.4200160000000  0.4939810000000  0.5359380000000 1.0
C      1  0.5254860000000  0.4909590000000  0.4987420000000 1.0
C      1  0.4991970000000  0.4992110000000  0.4954210000000 1.0
END
