TITL C-3623283-6828-120 -1767.74283659838 125000 -244.6346169986 0 0 42 (C1) n - 1
REM
REM in /home/nfs/bkarasulu/CARBON/AIRSS/Generating-Clusters/LCBOP/Higher-Symm/SD-CG/FIRE-CG
REM
REM
REM
REM
REM
REM ./C.cell (b20cbc046b6831c77cfcea5457e17084)
REM AIRSS Version 0.9.1 bugfix July 2018 build 013d7b7c2542+ Fri, 06 Jul 2018 19:26:36 +0100
REM compiler GCC version 9.2.1 20190827 (Red Hat 9.2.1-1)
REM options -cpp -mtune=generic -march=x86-64 -g -O0 -fpre-include=/usr/include/finclude/math-vector-fortran.h
REM seed -535594852 -1663689605 -2091464343 -316604832 -786544929 1840823981 1044883543 666742086 -502627859 -456308112 482873327 1970046645 481612583 1724960958 -1739986226 -1798689975 383986011 1204102193 -702208042 -282349977 -329802719 242961405 436516833 -1141984516 957640951 -620427185 278252264 5625416 -1971831907 -1712776171 804983272 156705866 -118153607
REM
CELL 1.54180   50.00000   50.00000   50.00000   90.00000   90.00000   90.00000
LATT -1
SFAC C  
C      1  0.4815850000000  0.5158510000000  0.5874470000000 1.0
C      1  0.5257950000000  0.4609110000000  0.5041530000000 1.0
C      1  0.5149360000000  0.5288620000000  0.4717000000000 1.0
C      1  0.4578820000000  0.5271890000000  0.5507110000000 1.0
C      1  0.5143150000000  0.5967640000000  0.5605580000000 1.0
C      1  0.5073690000000  0.5607930000000  0.5922620000000 1.0
C      1  0.5771790000000  0.4099000000000  0.5116870000000 1.0
C      1  0.5547630000000  0.5308300000000  0.4354950000000 1.0
C      1  0.5561940000000  0.4252040000000  0.5169280000000 1.0
C      1  0.4156830000000  0.4616060000000  0.5453520000000 1.0
C      1  0.5008920000000  0.4618110000000  0.3972670000000 1.0
C      1  0.4696860000000  0.5112760000000  0.4842250000000 1.0
C      1  0.5189400000000  0.4375700000000  0.5455770000000 1.0
C      1  0.4874430000000  0.5639950000000  0.5328110000000 1.0
C      1  0.5175090000000  0.5844680000000  0.5843620000000 1.0
C      1  0.4629160000000  0.5045810000000  0.5681960000000 1.0
C      1  0.5604870000000  0.5263790000000  0.4098330000000 1.0
C      1  0.4881550000000  0.4649690000000  0.4432230000000 1.0
C      1  0.4929000000000  0.4930920000000  0.4445060000000 1.0
C      1  0.5977560000000  0.3947700000000  0.5064610000000 1.0
C      1  0.5009130000000  0.5879540000000  0.5389170000000 1.0
C      1  0.4464930000000  0.4792450000000  0.5127450000000 1.0
C      1  0.4986130000000  0.4436990000000  0.5615270000000 1.0
C      1  0.5382560000000  0.5294780000000  0.4562950000000 1.0
C      1  0.4398870000000  0.4727630000000  0.5392350000000 1.0
C      1  0.5104740000000  0.5491100000000  0.4910670000000 1.0
C      1  0.4589180000000  0.4781690000000  0.5597840000000 1.0
C      1  0.4917830000000  0.4505330000000  0.4203750000000 1.0
C      1  0.5338830000000  0.4410740000000  0.5221820000000 1.0
C      1  0.4941400000000  0.5084700000000  0.4685210000000 1.0
C      1  0.4988460000000  0.5040280000000  0.4188680000000 1.0
C      1  0.4874960000000  0.5524750000000  0.5070380000000 1.0
C      1  0.5081320000000  0.4893000000000  0.3960980000000 1.0
C      1  0.4344250000000  0.4832660000000  0.4664670000000 1.0
C      1  0.4904460000000  0.5423230000000  0.5799860000000 1.0
C      1  0.4769590000000  0.4580670000000  0.5670260000000 1.0
C      1  0.4772740000000  0.5483280000000  0.5541530000000 1.0
C      1  0.5509370000000  0.5145950000000  0.3877990000000 1.0
C      1  0.5295110000000  0.4997820000000  0.3814620000000 1.0
C      1  0.4665530000000  0.5356520000000  0.4982600000000 1.0
C      1  0.5133540000000  0.4801070000000  0.4919890000000 1.0
C      1  0.4503220000000  0.4907580000000  0.4874510000000 1.0
END
