TITL C-3623284-6838-191 0.0553746879849972 125000 -680.261086112579 0 0 112 (C1) n - 1
REM
REM in /home/nfs/bkarasulu/CARBON/AIRSS/Generating-Clusters/LCBOP/Higher-Symm/SD-CG/FIRE-CG
REM
REM
REM
REM
REM
REM ./C.cell (b20cbc046b6831c77cfcea5457e17084)
REM AIRSS Version 0.9.1 bugfix July 2018 build 013d7b7c2542+ Fri, 06 Jul 2018 19:26:36 +0100
REM compiler GCC version 9.2.1 20190827 (Red Hat 9.2.1-1)
REM options -cpp -mtune=generic -march=x86-64 -g -O0 -fpre-include=/usr/include/finclude/math-vector-fortran.h
REM seed 474129557 79706244 2080900824 -1628097998 -2134700432 533389218 552508088 131048484 -774185958 1325536316 -1509844891 1491289368 -1074987554 -1421263359 -1773937394 1245375866 753920517 -266039530 -486281424 76307531 -409474163 -1123696637 -1993391311 -773433338 -1953566072 573073534 1535739042 -427416497 -756103460 510953060 -845844519 1394080967 -326455013
REM
CELL 1.54180   50.00000   50.00000   50.00000   90.00000   90.00000   90.00000
LATT -1
SFAC C  
C      1  0.5695340000000  0.5815770000000  0.4750130000000 1.0
C      1  0.4261110000000  0.4250430000000  0.4898530000000 1.0
C      1  0.5173020000000  0.5733880000000  0.5281820000000 1.0
C      1  0.4797740000000  0.4251310000000  0.5308710000000 1.0
C      1  0.4943030000000  0.5303550000000  0.4824820000000 1.0
C      1  0.5009890000000  0.4676360000000  0.4823600000000 1.0
C      1  0.5030540000000  0.4367720000000  0.5736860000000 1.0
C      1  0.4834870000000  0.5695800000000  0.5662660000000 1.0
C      1  0.4464960000000  0.4084370000000  0.4992720000000 1.0
C      1  0.5574560000000  0.5791700000000  0.5001340000000 1.0
C      1  0.4394500000000  0.5628320000000  0.4278810000000 1.0
C      1  0.5632630000000  0.4399620000000  0.4262920000000 1.0
C      1  0.4353840000000  0.5756660000000  0.5572360000000 1.0
C      1  0.5892890000000  0.4319990000000  0.5377580000000 1.0
C      1  0.5492450000000  0.5307790000000  0.4356830000000 1.0
C      1  0.4516000000000  0.4653890000000  0.4384670000000 1.0
C      1  0.4691920000000  0.6013250000000  0.5315810000000 1.0
C      1  0.5480580000000  0.4010850000000  0.5304270000000 1.0
C      1  0.4741850000000  0.5245830000000  0.5408040000000 1.0
C      1  0.5277740000000  0.4680300000000  0.5417590000000 1.0
C      1  0.5181590000000  0.4233210000000  0.4423000000000 1.0
C      1  0.4854790000000  0.5758210000000  0.4395940000000 1.0
C      1  0.5824160000000  0.4366540000000  0.4465680000000 1.0
C      1  0.4174670000000  0.5559590000000  0.4442500000000 1.0
C      1  0.5199340000000  0.4525200000000  0.5874760000000 1.0
C      1  0.4748670000000  0.5501030000000  0.5851280000000 1.0
C      1  0.5302930000000  0.3965480000000  0.5100750000000 1.0
C      1  0.4789340000000  0.6046340000000  0.5067790000000 1.0
C      1  0.5510320000000  0.4918700000000  0.5844320000000 1.0
C      1  0.4443030000000  0.5106050000000  0.5827750000000 1.0
C      1  0.5972630000000  0.4487170000000  0.4914490000000 1.0
C      1  0.4091740000000  0.5788040000000  0.5178970000000 1.0
C      1  0.4161620000000  0.5688440000000  0.4695800000000 1.0
C      1  0.5737550000000  0.4183570000000  0.4671720000000 1.0
C      1  0.4910750000000  0.4186810000000  0.4819570000000 1.0
C      1  0.5131570000000  0.5787440000000  0.4784170000000 1.0
C      1  0.5760510000000  0.5253940000000  0.4258570000000 1.0
C      1  0.4290570000000  0.4640620000000  0.4212280000000 1.0
C      1  0.5125020000000  0.5665540000000  0.4499120000000 1.0
C      1  0.4907340000000  0.4311550000000  0.4534290000000 1.0
C      1  0.5463340000000  0.5099220000000  0.4547150000000 1.0
C      1  0.4500580000000  0.4894890000000  0.4536420000000 1.0
C      1  0.4761600000000  0.5300640000000  0.4262230000000 1.0
C      1  0.5239240000000  0.4690620000000  0.4278710000000 1.0
C      1  0.5788380000000  0.4971330000000  0.5235330000000 1.0
C      1  0.4186540000000  0.5118720000000  0.5236260000000 1.0
C      1  0.5105700000000  0.5686230000000  0.5556660000000 1.0
C      1  0.4796030000000  0.4330300000000  0.5582280000000 1.0
C      1  0.4467420000000  0.5314990000000  0.4880870000000 1.0
C      1  0.5477070000000  0.4719170000000  0.4925970000000 1.0
C      1  0.4039640000000  0.4362470000000  0.4818910000000 1.0
C      1  0.5820910000000  0.5869620000000  0.4528180000000 1.0
C      1  0.4335330000000  0.4888700000000  0.5679430000000 1.0
C      1  0.5596960000000  0.5147600000000  0.5699510000000 1.0
C      1  0.5270200000000  0.4726350000000  0.4740690000000 1.0
C      1  0.4687890000000  0.5280310000000  0.4716090000000 1.0
C      1  0.5648680000000  0.4938760000000  0.4981710000000 1.0
C      1  0.4281840000000  0.5110490000000  0.4954840000000 1.0
C      1  0.4308940000000  0.4907890000000  0.4754570000000 1.0
C      1  0.5621120000000  0.5132060000000  0.4781710000000 1.0
C      1  0.4020020000000  0.5081480000000  0.4252630000000 1.0
C      1  0.6002440000000  0.4832920000000  0.4487320000000 1.0
C      1  0.5611110000000  0.4247330000000  0.5409840000000 1.0
C      1  0.4624430000000  0.5847970000000  0.5536210000000 1.0
C      1  0.5210420000000  0.5125920000000  0.5217230000000 1.0
C      1  0.4725450000000  0.4810220000000  0.5212850000000 1.0
C      1  0.4472960000000  0.5541600000000  0.5044780000000 1.0
C      1  0.5516310000000  0.4474930000000  0.5043730000000 1.0
C      1  0.5323750000000  0.4856490000000  0.4496970000000 1.0
C      1  0.4651020000000  0.5135380000000  0.4474550000000 1.0
C      1  0.4257780000000  0.5718380000000  0.4962100000000 1.0
C      1  0.5721090000000  0.4320310000000  0.4919140000000 1.0
C      1  0.4460880000000  0.4733120000000  0.5248110000000 1.0
C      1  0.5439120000000  0.5271330000000  0.5274580000000 1.0
C      1  0.5162910000000  0.4030980000000  0.4861980000000 1.0
C      1  0.4895980000000  0.5964860000000  0.4821660000000 1.0
C      1  0.4762000000000  0.5967210000000  0.4569410000000 1.0
C      1  0.5280850000000  0.4026950000000  0.4598350000000 1.0
C      1  0.5651130000000  0.5143020000000  0.5416460000000 1.0
C      1  0.4284210000000  0.4901340000000  0.5395510000000 1.0
C      1  0.4886000000000  0.4860190000000  0.4986590000000 1.0
C      1  0.5036580000000  0.5110240000000  0.4997490000000 1.0
C      1  0.5352040000000  0.4424430000000  0.4285550000000 1.0
C      1  0.4669430000000  0.5576430000000  0.4273510000000 1.0
C      1  0.5245010000000  0.5451590000000  0.4333190000000 1.0
C      1  0.4772180000000  0.4524850000000  0.4377600000000 1.0
C      1  0.5977550000000  0.4577310000000  0.4617080000000 1.0
C      1  0.4034280000000  0.5325720000000  0.4364900000000 1.0
C      1  0.5311130000000  0.5585150000000  0.5724410000000 1.0
C      1  0.4556500000000  0.4420760000000  0.5702990000000 1.0
C      1  0.4841770000000  0.4974590000000  0.5422850000000 1.0
C      1  0.5130670000000  0.4927140000000  0.5415000000000 1.0
C      1  0.4415640000000  0.3819130000000  0.5040260000000 1.0
C      1  0.5728940000000  0.5810160000000  0.5226940000000 1.0
C      1  0.5292040000000  0.5757680000000  0.5020830000000 1.0
C      1  0.4726040000000  0.4189140000000  0.5039250000000 1.0
C      1  0.4632340000000  0.5454590000000  0.5270650000000 1.0
C      1  0.5444770000000  0.4470340000000  0.5321490000000 1.0
C      1  0.5281430000000  0.4785950000000  0.5949370000000 1.0
C      1  0.4671850000000  0.5240500000000  0.5930900000000 1.0
C      1  0.4144310000000  0.5639300000000  0.5417300000000 1.0
C      1  0.6018250000000  0.4523630000000  0.5202210000000 1.0
C      1  0.5039060000000  0.5295000000000  0.4200150000000 1.0
C      1  0.4962270000000  0.4678500000000  0.4222400000000 1.0
C      1  0.4396360000000  0.4625830000000  0.5768660000000 1.0
C      1  0.5493800000000  0.5398710000000  0.5787880000000 1.0
C      1  0.4864150000000  0.5089680000000  0.6070520000000 1.0
C      1  0.5086690000000  0.4943670000000  0.6078560000000 1.0
C      1  0.4107150000000  0.5356650000000  0.5377290000000 1.0
C      1  0.5998530000000  0.4792760000000  0.5289460000000 1.0
C      1  0.4103120000000  0.4835250000000  0.4180810000000 1.0
C      1  0.5931270000000  0.5052150000000  0.4340180000000 1.0
END
