TITL C-3623284-6838-582 5.82448689574052e-07 125000 -368.424772830632 0 0 64 (C1) n - 1
REM
REM in /home/nfs/bkarasulu/CARBON/AIRSS/Generating-Clusters/LCBOP/Higher-Symm/SD-CG/FIRE-CG
REM
REM
REM
REM
REM
REM ./C.cell (b20cbc046b6831c77cfcea5457e17084)
REM AIRSS Version 0.9.1 bugfix July 2018 build 013d7b7c2542+ Fri, 06 Jul 2018 19:26:36 +0100
REM compiler GCC version 9.2.1 20190827 (Red Hat 9.2.1-1)
REM options -cpp -mtune=generic -march=x86-64 -g -O0 -fpre-include=/usr/include/finclude/math-vector-fortran.h
REM seed 2053196247 -51994271 -750058227 -1550394841 -1392548380 -1896410221 168994205 -123545823 1955630472 579430200 1963684918 1280704376 -1102604852 1368165757 -902570612 -2037977415 752373282 679430937 1616827788 1345853589 2025696136 -1476859716 1721413236 489573154 -868294142 456718600 -1773875036 1071661890 1701506320 -372993888 -534325358 1422552357 -706863835
REM
CELL 1.54180   50.00000   50.00000   50.00000   90.00000   90.00000   90.00000
LATT -1
SFAC C  
C      1  0.4817410000000  0.5008140000000  0.4638190000000 1.0
C      1  0.4834910000000  0.4993010000000  0.5322430000000 1.0
C      1  0.5249400000000  0.5064380000000  0.4980790000000 1.0
C      1  0.5122610000000  0.4792090000000  0.4973090000000 1.0
C      1  0.4840640000000  0.4786080000000  0.4844030000000 1.0
C      1  0.5040940000000  0.4756150000000  0.5270100000000 1.0
C      1  0.5444340000000  0.5810600000000  0.5156750000000 1.0
C      1  0.4890630000000  0.5825110000000  0.4495970000000 1.0
C      1  0.4589230000000  0.5804050000000  0.5262840000000 1.0
C      1  0.5462980000000  0.5473510000000  0.4765720000000 1.0
C      1  0.4551270000000  0.5458720000000  0.4629930000000 1.0
C      1  0.4902530000000  0.5476670000000  0.5511940000000 1.0
C      1  0.5264350000000  0.5234720000000  0.4751890000000 1.0
C      1  0.4643420000000  0.5208710000000  0.4799440000000 1.0
C      1  0.5025790000000  0.5222280000000  0.5385790000000 1.0
C      1  0.5995850000000  0.4650110000000  0.4740280000000 1.0
C      1  0.4162150000000  0.4193010000000  0.4447670000000 1.0
C      1  0.4891320000000  0.4188470000000  0.6049790000000 1.0
C      1  0.5723160000000  0.5390270000000  0.4634430000000 1.0
C      1  0.4324550000000  0.5368940000000  0.4448870000000 1.0
C      1  0.4844760000000  0.5420830000000  0.5804840000000 1.0
C      1  0.5269460000000  0.4571740000000  0.4820070000000 1.0
C      1  0.4659050000000  0.4554090000000  0.4883960000000 1.0
C      1  0.5097830000000  0.4500230000000  0.5400770000000 1.0
C      1  0.5896540000000  0.5259440000000  0.5615240000000 1.0
C      1  0.5159310000000  0.5364130000000  0.3858700000000 1.0
C      1  0.3961950000000  0.5276010000000  0.5336030000000 1.0
C      1  0.5146630000000  0.5874970000000  0.4563270000000 1.0
C      1  0.4498750000000  0.5847880000000  0.5012950000000 1.0
C      1  0.5262330000000  0.5858040000000  0.5349260000000 1.0
C      1  0.4653490000000  0.4412250000000  0.5374190000000 1.0
C      1  0.5476490000000  0.4302690000000  0.5143190000000 1.0
C      1  0.4885690000000  0.4392940000000  0.4530240000000 1.0
C      1  0.4973500000000  0.5376020000000  0.4363280000000 1.0
C      1  0.4489280000000  0.5339430000000  0.5246320000000 1.0
C      1  0.5506970000000  0.5349150000000  0.5255560000000 1.0
C      1  0.4608510000000  0.4880560000000  0.5478130000000 1.0
C      1  0.5861750000000  0.4012030000000  0.5380120000000 1.0
C      1  0.4797160000000  0.4847020000000  0.4379280000000 1.0
C      1  0.4728510000000  0.4370160000000  0.5098210000000 1.0
C      1  0.5202300000000  0.4300340000000  0.5219150000000 1.0
C      1  0.5081180000000  0.4356150000000  0.4743410000000 1.0
C      1  0.4906330000000  0.4599560000000  0.4334870000000 1.0
C      1  0.4494000000000  0.4635780000000  0.5444600000000 1.0
C      1  0.5673440000000  0.4151400000000  0.5265970000000 1.0
C      1  0.4783800000000  0.5565910000000  0.4461660000000 1.0
C      1  0.4643430000000  0.5547740000000  0.5368080000000 1.0
C      1  0.5515280000000  0.5555760000000  0.5057370000000 1.0
C      1  0.5352970000000  0.5719730000000  0.4632880000000 1.0
C      1  0.4462240000000  0.5688940000000  0.4800870000000 1.0
C      1  0.5086920000000  0.5711810000000  0.5488110000000 1.0
C      1  0.4615770000000  0.4402610000000  0.4641700000000 1.0
C      1  0.4880880000000  0.4390220000000  0.5552980000000 1.0
C      1  0.5520160000000  0.4480590000000  0.4923370000000 1.0
C      1  0.5066270000000  0.5370000000000  0.4102030000000 1.0
C      1  0.4217460000000  0.5307790000000  0.5295990000000 1.0
C      1  0.5709030000000  0.5303190000000  0.5439650000000 1.0
C      1  0.4382910000000  0.4294000000000  0.4542410000000 1.0
C      1  0.4886620000000  0.4285900000000  0.5808130000000 1.0
C      1  0.5767010000000  0.4560090000000  0.4826510000000 1.0
C      1  0.5271210000000  0.5197040000000  0.5236030000000 1.0
C      1  0.5053500000000  0.5192690000000  0.4565080000000 1.0
C      1  0.4634610000000  0.5173470000000  0.5074480000000 1.0
C      1  0.4993920000000  0.4255350000000  0.5015580000000 1.0
END
