TITL C-3623289-7120-1021 6500.32628127553 125000 -425.723248469069 0 0 75 (C1) n - 1
REM
REM in /home/nfs/bkarasulu/CARBON/AIRSS/Generating-Clusters/LCBOP/Higher-Symm/SD-CG/FIRE-CG
REM
REM
REM
REM
REM
REM ./C.cell (b20cbc046b6831c77cfcea5457e17084)
REM AIRSS Version 0.9.1 bugfix July 2018 build 013d7b7c2542+ Fri, 06 Jul 2018 19:26:36 +0100
REM compiler GCC version 9.2.1 20190827 (Red Hat 9.2.1-1)
REM options -cpp -mtune=generic -march=x86-64 -g -O0 -fpre-include=/usr/include/finclude/math-vector-fortran.h
REM seed 2006275326 -985526443 85422925 581622786 1855380610 -112630709 -1169610693 -1583693186 -10144103 -1994120783 936639072 -719856146 443108753 -548757738 -1367961709 -1262478276 994881633 -1363541630 -264110363 78671391 -1980431252 594393178 -1181979435 -797532438 -510227200 163227956 -1863521076 229421157 497146311 778724673 601932628 1361832428 204066288
REM
CELL 1.54180   50.00000   50.00000   50.00000   90.00000   90.00000   90.00000
LATT -1
SFAC C  
C      1  0.5254780000000  0.5100810000000  0.6075880000000 1.0
C      1  0.5111930000000  0.4653480000000  0.6119730000000 1.0
C      1  0.5041440000000  0.4882620000000  0.5689830000000 1.0
C      1  0.5230010000000  0.4159940000000  0.5547540000000 1.0
C      1  0.4036980000000  0.5269340000000  0.5418420000000 1.0
C      1  0.5778380000000  0.5666120000000  0.5511040000000 1.0
C      1  0.5941450000000  0.5484740000000  0.4173570000000 1.0
C      1  0.4579530000000  0.4100690000000  0.4336930000000 1.0
C      1  0.4061150000000  0.5386080000000  0.4032950000000 1.0
C      1  0.5292060000000  0.5696150000000  0.5570510000000 1.0
C      1  0.5615420000000  0.4465720000000  0.5556950000000 1.0
C      1  0.4411920000000  0.4952730000000  0.5445790000000 1.0
C      1  0.5613520000000  0.5696540000000  0.6216390000000 1.0
C      1  0.5840370000000  0.3786850000000  0.5655490000000 1.0
C      1  0.3849950000000  0.4694830000000  0.5818480000000 1.0
C      1  0.6342650000000  0.5479250000000  0.3827240000000 1.0
C      1  0.4145870000000  0.3865210000000  0.4143590000000 1.0
C      1  0.3800440000000  0.5647220000000  0.3652550000000 1.0
C      1  0.5682480000000  0.3989890000000  0.5613510000000 1.0
C      1  0.3995230000000  0.4853280000000  0.5671150000000 1.0
C      1  0.5581630000000  0.5691760000000  0.5957780000000 1.0
C      1  0.4248270000000  0.5294440000000  0.4931860000000 1.0
C      1  0.5600660000000  0.5469990000000  0.5038870000000 1.0
C      1  0.5082680000000  0.4368840000000  0.5067690000000 1.0
C      1  0.5749850000000  0.5548110000000  0.5258780000000 1.0
C      1  0.5097920000000  0.4242910000000  0.5314660000000 1.0
C      1  0.4084370000000  0.5340790000000  0.5151360000000 1.0
C      1  0.5082040000000  0.4632560000000  0.4541120000000 1.0
C      1  0.4616530000000  0.5150390000000  0.4496240000000 1.0
C      1  0.5313610000000  0.5294370000000  0.4558440000000 1.0
C      1  0.4944620000000  0.4886450000000  0.5424080000000 1.0
C      1  0.4852050000000  0.5575090000000  0.5305960000000 1.0
C      1  0.5577730000000  0.4940280000000  0.5357230000000 1.0
C      1  0.5157330000000  0.4244970000000  0.4806830000000 1.0
C      1  0.4199460000000  0.5093970000000  0.4717670000000 1.0
C      1  0.5540080000000  0.5635720000000  0.4799580000000 1.0
C      1  0.4364490000000  0.3982570000000  0.4236800000000 1.0
C      1  0.3931150000000  0.5512550000000  0.3839750000000 1.0
C      1  0.6140510000000  0.5483000000000  0.3998660000000 1.0
C      1  0.5229690000000  0.4875110000000  0.6227980000000 1.0
C      1  0.5020100000000  0.4655610000000  0.5862440000000 1.0
C      1  0.5164340000000  0.5106750000000  0.5818180000000 1.0
C      1  0.4667450000000  0.4905370000000  0.5390190000000 1.0
C      1  0.5056370000000  0.5655240000000  0.5455480000000 1.0
C      1  0.5655550000000  0.4717740000000  0.5482220000000 1.0
C      1  0.5033510000000  0.4825030000000  0.4355940000000 1.0
C      1  0.4822200000000  0.5111420000000  0.4323360000000 1.0
C      1  0.5187620000000  0.5148180000000  0.4367600000000 1.0
C      1  0.6542530000000  0.5474830000000  0.3659920000000 1.0
C      1  0.3929590000000  0.3750180000000  0.4054370000000 1.0
C      1  0.3671700000000  0.5782500000000  0.3470640000000 1.0
C      1  0.3891660000000  0.5431390000000  0.5583780000000 1.0
C      1  0.6020850000000  0.5764310000000  0.5591230000000 1.0
C      1  0.5092260000000  0.4033010000000  0.5747140000000 1.0
C      1  0.4149540000000  0.5024770000000  0.5513410000000 1.0
C      1  0.5549600000000  0.5685780000000  0.5680160000000 1.0
C      1  0.5510380000000  0.4206560000000  0.5573820000000 1.0
C      1  0.5141880000000  0.4658510000000  0.5026060000000 1.0
C      1  0.4546290000000  0.5297600000000  0.4957840000000 1.0
C      1  0.5379220000000  0.5268720000000  0.5045450000000 1.0
C      1  0.4322580000000  0.5180310000000  0.4459370000000 1.0
C      1  0.5552550000000  0.5472260000000  0.4549890000000 1.0
C      1  0.4990140000000  0.4352410000000  0.4583200000000 1.0
C      1  0.5747560000000  0.5482950000000  0.4353990000000 1.0
C      1  0.4787940000000  0.4219980000000  0.4448670000000 1.0
C      1  0.4189710000000  0.5273750000000  0.4235460000000 1.0
C      1  0.4693610000000  0.5462310000000  0.5125270000000 1.0
C      1  0.5361080000000  0.5042590000000  0.5209930000000 1.0
C      1  0.5130610000000  0.4872130000000  0.5208910000000 1.0
C      1  0.5280200000000  0.4671140000000  0.4759510000000 1.0
C      1  0.4640900000000  0.5075340000000  0.4783620000000 1.0
C      1  0.5194600000000  0.5354120000000  0.4825300000000 1.0
C      1  0.5241730000000  0.5651240000000  0.4831100000000 1.0
C      1  0.5409580000000  0.4400460000000  0.4755580000000 1.0
C      1  0.4404340000000  0.4890110000000  0.4802020000000 1.0
END
