TITL C-3623289-7120-872 -2.7722411388475e-07 125000 -354.072707502845 0 0 60 (C1) n - 1
REM
REM in /home/nfs/bkarasulu/CARBON/AIRSS/Generating-Clusters/LCBOP/Higher-Symm/SD-CG/FIRE-CG
REM
REM
REM
REM
REM
REM ./C.cell (b20cbc046b6831c77cfcea5457e17084)
REM AIRSS Version 0.9.1 bugfix July 2018 build 013d7b7c2542+ Fri, 06 Jul 2018 19:26:36 +0100
REM compiler GCC version 9.2.1 20190827 (Red Hat 9.2.1-1)
REM options -cpp -mtune=generic -march=x86-64 -g -O0 -fpre-include=/usr/include/finclude/math-vector-fortran.h
REM seed -348016960 -587976352 -1040637298 -1476191083 1987028490 -1623669774 -954907486 -1647787405 -849251752 644246379 677279556 -1776871471 -684057662 -1776910163 -930785414 821800444 2023794421 1250344041 -1547314100 165688456 -1685970026 1098206523 891197963 988791337 -2017220600 1191413877 -331383273 -513363177 353512988 -33943641 677797546 1190016366 1627638510
REM
CELL 1.54180   50.00000   50.00000   50.00000   90.00000   90.00000   90.00000
LATT -1
SFAC C  
C      1  0.4785250000000  0.4998380000000  0.5474340000000 1.0
C      1  0.4748360000000  0.5266220000000  0.5580540000000 1.0
C      1  0.4441160000000  0.5067040000000  0.5887250000000 1.0
C      1  0.4444030000000  0.4816170000000  0.5768110000000 1.0
C      1  0.5232360000000  0.5667570000000  0.4641540000000 1.0
C      1  0.5244570000000  0.4346070000000  0.4641200000000 1.0
C      1  0.4530740000000  0.5377060000000  0.5149710000000 1.0
C      1  0.4498230000000  0.4627430000000  0.5183050000000 1.0
C      1  0.4677620000000  0.4731610000000  0.4961840000000 1.0
C      1  0.4698180000000  0.5268130000000  0.4919540000000 1.0
C      1  0.4904060000000  0.4347190000000  0.5339940000000 1.0
C      1  0.4911820000000  0.5666500000000  0.5322550000000 1.0
C      1  0.5617640000000  0.4873960000000  0.5197810000000 1.0
C      1  0.5621090000000  0.5155060000000  0.5132670000000 1.0
C      1  0.5237100000000  0.5301810000000  0.4326410000000 1.0
C      1  0.5255010000000  0.4696520000000  0.4286080000000 1.0
C      1  0.4352920000000  0.5143660000000  0.5233240000000 1.0
C      1  0.4336900000000  0.4875970000000  0.5251690000000 1.0
C      1  0.5036930000000  0.5097900000000  0.4365750000000 1.0
C      1  0.5064080000000  0.4884000000000  0.4187730000000 1.0
C      1  0.5612080000000  0.4705220000000  0.4629910000000 1.0
C      1  0.5604930000000  0.5300690000000  0.4642810000000 1.0
C      1  0.5037590000000  0.5059790000000  0.4653490000000 1.0
C      1  0.5082800000000  0.4796570000000  0.4742890000000 1.0
C      1  0.4827760000000  0.4495330000000  0.4409330000000 1.0
C      1  0.4807450000000  0.5511590000000  0.4409040000000 1.0
C      1  0.4628490000000  0.4663140000000  0.4489330000000 1.0
C      1  0.4608460000000  0.5329980000000  0.4470050000000 1.0
C      1  0.5097220000000  0.5540350000000  0.4421750000000 1.0
C      1  0.5115040000000  0.4471010000000  0.4414510000000 1.0
C      1  0.4714530000000  0.5464340000000  0.5378080000000 1.0
C      1  0.4689610000000  0.4532250000000  0.5407960000000 1.0
C      1  0.5349580000000  0.4534720000000  0.5454620000000 1.0
C      1  0.5366680000000  0.5500230000000  0.5394660000000 1.0
C      1  0.5712800000000  0.5143070000000  0.4850640000000 1.0
C      1  0.5740970000000  0.4861500000000  0.4819910000000 1.0
C      1  0.4938480000000  0.5791310000000  0.5069130000000 1.0
C      1  0.4947110000000  0.4234000000000  0.5080280000000 1.0
C      1  0.4906260000000  0.4773650000000  0.5865900000000 1.0
C      1  0.4900400000000  0.5032220000000  0.5975910000000 1.0
C      1  0.4713290000000  0.4736280000000  0.5629580000000 1.0
C      1  0.4694220000000  0.5209840000000  0.5862950000000 1.0
C      1  0.4359520000000  0.5608790000000  0.5058730000000 1.0
C      1  0.4319830000000  0.4403290000000  0.5093540000000 1.0
C      1  0.5139040000000  0.4874720000000  0.5179460000000 1.0
C      1  0.5149860000000  0.5160890000000  0.5116990000000 1.0
C      1  0.5155180000000  0.5650470000000  0.5466490000000 1.0
C      1  0.5141590000000  0.4368220000000  0.5493770000000 1.0
C      1  0.5091710000000  0.4229870000000  0.4851570000000 1.0
C      1  0.5082880000000  0.5796580000000  0.4842580000000 1.0
C      1  0.5482450000000  0.4848210000000  0.4411310000000 1.0
C      1  0.5482660000000  0.5158370000000  0.4418900000000 1.0
C      1  0.4568230000000  0.5140840000000  0.4687500000000 1.0
C      1  0.4578370000000  0.4843890000000  0.4705900000000 1.0
C      1  0.5379620000000  0.4754500000000  0.5283760000000 1.0
C      1  0.5387270000000  0.5293400000000  0.5207950000000 1.0
C      1  0.4963540000000  0.4739260000000  0.4993650000000 1.0
C      1  0.4981120000000  0.5226140000000  0.4892240000000 1.0
C      1  0.5494840000000  0.5561470000000  0.4687840000000 1.0
C      1  0.5508460000000  0.4445770000000  0.4684070000000 1.0
END
