TITL C-3623289-7120-238 3.37131633612571 125000 -1242.6560546452 0 0 197 (C1) n - 1
REM
REM in /home/nfs/bkarasulu/CARBON/AIRSS/Generating-Clusters/LCBOP/Higher-Symm/SD-CG/FIRE-CG
REM
REM
REM
REM
REM
REM ./C.cell (b20cbc046b6831c77cfcea5457e17084)
REM AIRSS Version 0.9.1 bugfix July 2018 build 013d7b7c2542+ Fri, 06 Jul 2018 19:26:36 +0100
REM compiler GCC version 9.2.1 20190827 (Red Hat 9.2.1-1)
REM options -cpp -mtune=generic -march=x86-64 -g -O0 -fpre-include=/usr/include/finclude/math-vector-fortran.h
REM seed -1996448119 -501500059 261122237 891224662 1872271879 1664659349 1632144723 950845093 697033159 1273790 -1661893589 -279906378 -1153284042 1729584793 1187894258 1332086067 1499312181 -157728003 1982549985 2025608588 -1714488928 310625214 -814935829 1143053272 1909086123 -114473737 1676443012 -1799144180 -1492972383 -2083019102 -565209770 242680596 959945287
REM
CELL 1.54180   50.00000   50.00000   50.00000   90.00000   90.00000   90.00000
LATT -1
SFAC C  
C      1  0.4357650000000  0.3984840000000  0.4725460000000 1.0
C      1  0.4494280000000  0.5989060000000  0.5173870000000 1.0
C      1  0.5624980000000  0.4007640000000  0.4727220000000 1.0
C      1  0.5480400000000  0.5985770000000  0.5183960000000 1.0
C      1  0.4211160000000  0.4646740000000  0.6058290000000 1.0
C      1  0.4224100000000  0.5353770000000  0.3925710000000 1.0
C      1  0.5786980000000  0.4652580000000  0.6070940000000 1.0
C      1  0.5810120000000  0.5421090000000  0.3918120000000 1.0
C      1  0.4737330000000  0.5126470000000  0.3767820000000 1.0
C      1  0.4742980000000  0.4891320000000  0.6232150000000 1.0
C      1  0.5249830000000  0.5090910000000  0.3750330000000 1.0
C      1  0.5243070000000  0.4884630000000  0.6221100000000 1.0
C      1  0.5241190000000  0.5277660000000  0.6493300000000 1.0
C      1  0.5180120000000  0.4713290000000  0.3463920000000 1.0
C      1  0.4757650000000  0.5275240000000  0.6517710000000 1.0
C      1  0.4701000000000  0.4767840000000  0.3461630000000 1.0
C      1  0.4419950000000  0.5841940000000  0.4525880000000 1.0
C      1  0.4359200000000  0.4129510000000  0.5445800000000 1.0
C      1  0.5614970000000  0.5876930000000  0.4544060000000 1.0
C      1  0.5611130000000  0.4141900000000  0.5434570000000 1.0
C      1  0.4265690000000  0.4948430000000  0.4272220000000 1.0
C      1  0.4232080000000  0.5071840000000  0.5745560000000 1.0
C      1  0.5835340000000  0.5105440000000  0.4304760000000 1.0
C      1  0.5721750000000  0.5058150000000  0.5735330000000 1.0
C      1  0.5166350000000  0.5531390000000  0.3957760000000 1.0
C      1  0.5150390000000  0.4430260000000  0.6070770000000 1.0
C      1  0.4879250000000  0.5529370000000  0.3977760000000 1.0
C      1  0.4859120000000  0.4442990000000  0.6057080000000 1.0
C      1  0.4841630000000  0.5701310000000  0.5138120000000 1.0
C      1  0.4715850000000  0.4395270000000  0.5006350000000 1.0
C      1  0.5124710000000  0.5699750000000  0.5137090000000 1.0
C      1  0.5301520000000  0.4401970000000  0.4889780000000 1.0
C      1  0.4709930000000  0.4920710000000  0.4508040000000 1.0
C      1  0.4657810000000  0.5081640000000  0.5502660000000 1.0
C      1  0.5273350000000  0.4955660000000  0.4473730000000 1.0
C      1  0.5297960000000  0.5079160000000  0.5475030000000 1.0
C      1  0.4873600000000  0.5890300000000  0.4306920000000 1.0
C      1  0.4861530000000  0.4093080000000  0.5697500000000 1.0
C      1  0.5167160000000  0.5913810000000  0.4293630000000 1.0
C      1  0.5163580000000  0.4100410000000  0.5689130000000 1.0
C      1  0.4693100000000  0.5399900000000  0.3809870000000 1.0
C      1  0.4684140000000  0.4616650000000  0.6202320000000 1.0
C      1  0.5325800000000  0.5360120000000  0.3794370000000 1.0
C      1  0.5316350000000  0.4612700000000  0.6214680000000 1.0
C      1  0.5548330000000  0.5453400000000  0.5370980000000 1.0
C      1  0.5677700000000  0.4598940000000  0.4575240000000 1.0
C      1  0.4400130000000  0.5463990000000  0.5372020000000 1.0
C      1  0.4418710000000  0.4579490000000  0.4638930000000 1.0
C      1  0.5228880000000  0.4617370000000  0.3910680000000 1.0
C      1  0.5285860000000  0.5342950000000  0.6041820000000 1.0
C      1  0.4624510000000  0.4671060000000  0.3913640000000 1.0
C      1  0.4669640000000  0.5355850000000  0.6075390000000 1.0
C      1  0.5597020000000  0.5423450000000  0.3755080000000 1.0
C      1  0.5594070000000  0.4568880000000  0.6239180000000 1.0
C      1  0.4421420000000  0.5469780000000  0.3780960000000 1.0
C      1  0.4408420000000  0.4559120000000  0.6218410000000 1.0
C      1  0.6301820000000  0.4742230000000  0.4810820000000 1.0
C      1  0.6223990000000  0.5313640000000  0.5288830000000 1.0
C      1  0.3756260000000  0.4707810000000  0.4716340000000 1.0
C      1  0.3731530000000  0.5320490000000  0.5169430000000 1.0
C      1  0.5781730000000  0.4707910000000  0.5797150000000 1.0
C      1  0.5830270000000  0.5406520000000  0.4204390000000 1.0
C      1  0.4200340000000  0.4715620000000  0.5787770000000 1.0
C      1  0.4240940000000  0.5295180000000  0.4199390000000 1.0
C      1  0.6277690000000  0.5050990000000  0.5194460000000 1.0
C      1  0.6306480000000  0.5008550000000  0.4910680000000 1.0
C      1  0.3692170000000  0.5046580000000  0.5092880000000 1.0
C      1  0.3737610000000  0.4974390000000  0.4816320000000 1.0
C      1  0.5432580000000  0.4433960000000  0.3982340000000 1.0
C      1  0.5542210000000  0.5448360000000  0.5967800000000 1.0
C      1  0.4399770000000  0.4540900000000  0.4035860000000 1.0
C      1  0.4417640000000  0.5458430000000  0.5986370000000 1.0
C      1  0.5128970000000  0.4972230000000  0.5709850000000 1.0
C      1  0.5133910000000  0.4996590000000  0.4225100000000 1.0
C      1  0.4822730000000  0.5025880000000  0.5747510000000 1.0
C      1  0.4842160000000  0.4989190000000  0.4239660000000 1.0
C      1  0.4955190000000  0.5422080000000  0.4666720000000 1.0
C      1  0.4939630000000  0.4571420000000  0.5456560000000 1.0
C      1  0.5176490000000  0.5571300000000  0.4637980000000 1.0
C      1  0.5122530000000  0.4689580000000  0.5624450000000 1.0
C      1  0.4085410000000  0.4830400000000  0.5235820000000 1.0
C      1  0.4169200000000  0.5226240000000  0.4808570000000 1.0
C      1  0.5883710000000  0.4758250000000  0.5200240000000 1.0
C      1  0.5886780000000  0.5253720000000  0.4815880000000 1.0
C      1  0.4829830000000  0.5021040000000  0.3518270000000 1.0
C      1  0.4854140000000  0.5005670000000  0.6472720000000 1.0
C      1  0.5120940000000  0.4992880000000  0.3510860000000 1.0
C      1  0.5144990000000  0.5006970000000  0.6463080000000 1.0
C      1  0.4280600000000  0.5819280000000  0.5065370000000 1.0
C      1  0.4223340000000  0.4189520000000  0.4878810000000 1.0
C      1  0.5699710000000  0.5817530000000  0.5088790000000 1.0
C      1  0.5762560000000  0.4207720000000  0.4887370000000 1.0
C      1  0.5756670000000  0.5250280000000  0.5952850000000 1.0
C      1  0.5697130000000  0.4492030000000  0.3911470000000 1.0
C      1  0.4203100000000  0.5258620000000  0.5968590000000 1.0
C      1  0.4170010000000  0.4704120000000  0.4133740000000 1.0
C      1  0.5395340000000  0.4531270000000  0.4647150000000 1.0
C      1  0.5276220000000  0.5494150000000  0.5260530000000 1.0
C      1  0.4687770000000  0.4519440000000  0.4739140000000 1.0
C      1  0.4681300000000  0.5512610000000  0.5283110000000 1.0
C      1  0.4335140000000  0.4929180000000  0.5150060000000 1.0
C      1  0.4381560000000  0.5051810000000  0.4907250000000 1.0
C      1  0.5674400000000  0.4937230000000  0.5109860000000 1.0
C      1  0.5674320000000  0.5054380000000  0.4855790000000 1.0
C      1  0.5352170000000  0.5516470000000  0.4423480000000 1.0
C      1  0.5356730000000  0.4536220000000  0.5643110000000 1.0
C      1  0.4754160000000  0.5464300000000  0.4465290000000 1.0
C      1  0.4695580000000  0.4510390000000  0.5591570000000 1.0
C      1  0.4767540000000  0.4580240000000  0.3677890000000 1.0
C      1  0.4840010000000  0.5447410000000  0.6291130000000 1.0
C      1  0.5060790000000  0.4553280000000  0.3681060000000 1.0
C      1  0.5134270000000  0.5441650000000  0.6271720000000 1.0
C      1  0.4727620000000  0.5934500000000  0.5013150000000 1.0
C      1  0.4766440000000  0.4098030000000  0.4986640000000 1.0
C      1  0.5252520000000  0.5929620000000  0.5021520000000 1.0
C      1  0.5236290000000  0.4130660000000  0.4957630000000 1.0
C      1  0.5324280000000  0.5995590000000  0.4531640000000 1.0
C      1  0.5324740000000  0.4046040000000  0.5449840000000 1.0
C      1  0.4697230000000  0.5971040000000  0.4524080000000 1.0
C      1  0.4697610000000  0.4013400000000  0.5469470000000 1.0
C      1  0.4794810000000  0.5621190000000  0.4233680000000 1.0
C      1  0.4750970000000  0.4336090000000  0.5812400000000 1.0
C      1  0.5283570000000  0.5662160000000  0.4185070000000 1.0
C      1  0.5275650000000  0.4325680000000  0.5829860000000 1.0
C      1  0.4531690000000  0.5358040000000  0.4594240000000 1.0
C      1  0.4512000000000  0.4602090000000  0.5397110000000 1.0
C      1  0.5544240000000  0.5359670000000  0.4547920000000 1.0
C      1  0.5504060000000  0.4614580000000  0.5408600000000 1.0
C      1  0.5709600000000  0.5755410000000  0.4803870000000 1.0
C      1  0.5724400000000  0.4250700000000  0.5179860000000 1.0
C      1  0.4303940000000  0.5743450000000  0.4784280000000 1.0
C      1  0.4296940000000  0.4220180000000  0.5167850000000 1.0
C      1  0.4567030000000  0.4100730000000  0.4306140000000 1.0
C      1  0.4450420000000  0.5905230000000  0.5675840000000 1.0
C      1  0.5380320000000  0.4004990000000  0.4296600000000 1.0
C      1  0.5516820000000  0.5907950000000  0.5682780000000 1.0
C      1  0.5240140000000  0.5057370000000  0.5984450000000 1.0
C      1  0.5239880000000  0.4904000000000  0.3974880000000 1.0
C      1  0.4724810000000  0.5077340000000  0.6009150000000 1.0
C      1  0.4707930000000  0.4939800000000  0.3989150000000 1.0
C      1  0.5971090000000  0.5250300000000  0.6121620000000 1.0
C      1  0.5937150000000  0.4547310000000  0.3826290000000 1.0
C      1  0.3993390000000  0.5251580000000  0.6143370000000 1.0
C      1  0.3968510000000  0.4570480000000  0.4292230000000 1.0
C      1  0.5137220000000  0.3982930000000  0.4721520000000 1.0
C      1  0.5120100000000  0.6127420000000  0.5498370000000 1.0
C      1  0.4843680000000  0.3991730000000  0.4723960000000 1.0
C      1  0.4848580000000  0.6126960000000  0.5496650000000 1.0
C      1  0.3922070000000  0.5502840000000  0.5230400000000 1.0
C      1  0.3941150000000  0.4538510000000  0.4579340000000 1.0
C      1  0.6034780000000  0.5504450000000  0.5305970000000 1.0
C      1  0.6134710000000  0.4537920000000  0.4755860000000 1.0
C      1  0.5744090000000  0.5479710000000  0.4726630000000 1.0
C      1  0.5739160000000  0.4525340000000  0.5258850000000 1.0
C      1  0.4299870000000  0.5461630000000  0.4730900000000 1.0
C      1  0.4473050000000  0.4444960000000  0.5165880000000 1.0
C      1  0.4544340000000  0.4870570000000  0.5329990000000 1.0
C      1  0.4638720000000  0.5106330000000  0.4746730000000 1.0
C      1  0.5420340000000  0.4876290000000  0.5271980000000 1.0
C      1  0.5473290000000  0.5092730000000  0.4633860000000 1.0
C      1  0.4306080000000  0.5624750000000  0.4323860000000 1.0
C      1  0.4223810000000  0.4387870000000  0.5639540000000 1.0
C      1  0.5767800000000  0.5687590000000  0.4330960000000 1.0
C      1  0.5757840000000  0.4370330000000  0.5664920000000 1.0
C      1  0.4430900000000  0.4818620000000  0.4468420000000 1.0
C      1  0.4389680000000  0.5227350000000  0.5552160000000 1.0
C      1  0.5777940000000  0.4841730000000  0.4404730000000 1.0
C      1  0.5558890000000  0.5214450000000  0.5543100000000 1.0
C      1  0.5393190000000  0.6035960000000  0.5461330000000 1.0
C      1  0.5383260000000  0.3953170000000  0.4571100000000 1.0
C      1  0.4576130000000  0.6034600000000  0.5454850000000 1.0
C      1  0.4600450000000  0.3988540000000  0.4564150000000 1.0
C      1  0.4405300000000  0.5712610000000  0.5859230000000 1.0
C      1  0.4454210000000  0.4281540000000  0.4141570000000 1.0
C      1  0.5560920000000  0.5708530000000  0.5857660000000 1.0
C      1  0.5375770000000  0.4189470000000  0.4105250000000 1.0
C      1  0.6125760000000  0.4843300000000  0.5308650000000 1.0
C      1  0.6155180000000  0.5197180000000  0.4767140000000 1.0
C      1  0.3821210000000  0.4864180000000  0.5264800000000 1.0
C      1  0.3923390000000  0.5151910000000  0.4702140000000 1.0
C      1  0.4863840000000  0.3986580000000  0.5232100000000 1.0
C      1  0.4847750000000  0.6023980000000  0.4768430000000 1.0
C      1  0.5160080000000  0.4021560000000  0.5215380000000 1.0
C      1  0.5149190000000  0.6028700000000  0.4772610000000 1.0
C      1  0.5772020000000  0.5600820000000  0.5268740000000 1.0
C      1  0.5870880000000  0.4437330000000  0.4729550000000 1.0
C      1  0.4186510000000  0.5605800000000  0.5241430000000 1.0
C      1  0.4177900000000  0.4435650000000  0.4714420000000 1.0
C      1  0.5177880000000  0.4702930000000  0.4567180000000 1.0
C      1  0.5112320000000  0.5245450000000  0.5291360000000 1.0
C      1  0.4889010000000  0.4685720000000  0.4610180000000 1.0
C      1  0.4830660000000  0.5287370000000  0.5370650000000 1.0
C      1  0.5151670000000  0.4590300000000  0.5032660000000 1.0
C      1  0.5075910000000  0.5095700000000  0.5032490000000 1.0
C      1  0.4934010000000  0.4512310000000  0.5179060000000 1.0
C      1  0.4904180000000  0.5204150000000  0.4842260000000 1.0
C      1  0.5217120000000  0.4854760000000  0.5060790000000 1.0
END
