TITL C-3623289-7120-1446 3.31647309230868e-08 125000 -31.1856428631267 0 0 6 (D(inf)h) n - 1
REM
REM in /home/nfs/bkarasulu/CARBON/AIRSS/Generating-Clusters/LCBOP/Higher-Symm/SD-CG/FIRE-CG
REM
REM
REM
REM
REM
REM ./C.cell (b20cbc046b6831c77cfcea5457e17084)
REM AIRSS Version 0.9.1 bugfix July 2018 build 013d7b7c2542+ Fri, 06 Jul 2018 19:26:36 +0100
REM compiler GCC version 9.2.1 20190827 (Red Hat 9.2.1-1)
REM options -cpp -mtune=generic -march=x86-64 -g -O0 -fpre-include=/usr/include/finclude/math-vector-fortran.h
REM seed 53967887 -1878869239 828388274 -1540517565 -156696792 1195936634 -399969094 1448899018 -1807223843 51325503 775023399 -1619239094 613292785 612627913 2026869380 -1741956275 -381542394 813302778 -2130117841 -714311053 1809773494 -509662579 1140824877 -1070941024 -1459016481 2109170058 -714287196 1969969168 1984643659 -389635072 537452953 1801959745 -132918745
REM
CELL 1.54180   50.00000   50.00000   50.00000   90.00000   90.00000   90.00000
LATT -1
SFAC C  
C      1  0.5000490000000  0.4867500000000  0.5014010000000 1.0
C      1  0.5000490000000  0.5132500000000  0.5014010000000 1.0
C      1  0.5000490000000  0.4341740000000  0.5014010000000 1.0
C      1  0.5000490000000  0.4602440000000  0.5014010000000 1.0
C      1  0.5000490000000  0.5397560000000  0.5014010000000 1.0
C      1  0.5000490000000  0.5658260000000  0.5014010000000 1.0
END
