TITL C-3623283-6828-774 1466.63572855519 125000 -297.473239665457 0 0 51 (C1) n - 1
REM
REM in /home/nfs/bkarasulu/CARBON/AIRSS/Generating-Clusters/LCBOP/Higher-Symm/SD-CG/FIRE-CG
REM
REM
REM
REM
REM
REM ./C.cell (b20cbc046b6831c77cfcea5457e17084)
REM AIRSS Version 0.9.1 bugfix July 2018 build 013d7b7c2542+ Fri, 06 Jul 2018 19:26:36 +0100
REM compiler GCC version 9.2.1 20190827 (Red Hat 9.2.1-1)
REM options -cpp -mtune=generic -march=x86-64 -g -O0 -fpre-include=/usr/include/finclude/math-vector-fortran.h
REM seed 1386527065 -1349826073 767885430 -939287678 -319454911 -1673624592 -496934711 -18938746 -1796345846 1061787186 324488247 1192775883 -1669428963 -124333198 916997624 833950016 787533578 -968124532 2033277614 578182106 -1000849265 372323238 728086109 885043210 849683994 -206950455 1730038105 -1371303338 -16198875 522829109 -925948619 1576328616 -240013916
REM
CELL 1.54180   50.00000   50.00000   50.00000   90.00000   90.00000   90.00000
LATT -1
SFAC C  
C      1  0.4623080000000  0.5153830000000  0.5525550000000 1.0
C      1  0.4658470000000  0.4874340000000  0.5533960000000 1.0
C      1  0.5368890000000  0.5301520000000  0.4557370000000 1.0
C      1  0.5370460000000  0.4623900000000  0.4566210000000 1.0
C      1  0.4706640000000  0.4661530000000  0.5332240000000 1.0
C      1  0.4670540000000  0.5367360000000  0.5324970000000 1.0
C      1  0.4908410000000  0.5024770000000  0.5213600000000 1.0
C      1  0.4975090000000  0.5001210000000  0.4935920000000 1.0
C      1  0.5892160000000  0.4568830000000  0.5599820000000 1.0
C      1  0.5933390000000  0.5432130000000  0.5488000000000 1.0
C      1  0.4263630000000  0.5158540000000  0.5084460000000 1.0
C      1  0.4272410000000  0.4860190000000  0.5097010000000 1.0
C      1  0.5040030000000  0.5072100000000  0.5453580000000 1.0
C      1  0.5253240000000  0.4959750000000  0.4959140000000 1.0
C      1  0.5262310000000  0.5413200000000  0.5253220000000 1.0
C      1  0.5296080000000  0.4565630000000  0.5208640000000 1.0
C      1  0.4167970000000  0.5257460000000  0.4606640000000 1.0
C      1  0.4169080000000  0.4720800000000  0.4629520000000 1.0
C      1  0.4960920000000  0.4457920000000  0.4877310000000 1.0
C      1  0.4968070000000  0.5508760000000  0.4864990000000 1.0
C      1  0.5694270000000  0.4646080000000  0.5432660000000 1.0
C      1  0.5700650000000  0.5317920000000  0.5412960000000 1.0
C      1  0.4497900000000  0.5551290000000  0.4923900000000 1.0
C      1  0.4496310000000  0.4453200000000  0.4960860000000 1.0
C      1  0.4089980000000  0.5247630000000  0.4868050000000 1.0
C      1  0.4097280000000  0.4747050000000  0.4891800000000 1.0
C      1  0.4700800000000  0.4509410000000  0.4774170000000 1.0
C      1  0.4707460000000  0.5471200000000  0.4751630000000 1.0
C      1  0.4984790000000  0.5470290000000  0.5156220000000 1.0
C      1  0.5001630000000  0.4518550000000  0.5164290000000 1.0
C      1  0.4662440000000  0.5225630000000  0.4613470000000 1.0
C      1  0.4662590000000  0.4750400000000  0.4626150000000 1.0
C      1  0.5553890000000  0.5337220000000  0.5155480000000 1.0
C      1  0.5593060000000  0.4513180000000  0.5191690000000 1.0
C      1  0.5252420000000  0.5251890000000  0.5506320000000 1.0
C      1  0.5327700000000  0.4855780000000  0.5215700000000 1.0
C      1  0.4403990000000  0.4838180000000  0.4520680000000 1.0
C      1  0.4404710000000  0.5132980000000  0.4511160000000 1.0
C      1  0.5176350000000  0.4460660000000  0.4692520000000 1.0
C      1  0.5187280000000  0.5477090000000  0.4686900000000 1.0
C      1  0.5519370000000  0.5142380000000  0.5554800000000 1.0
C      1  0.5524980000000  0.4882850000000  0.5441940000000 1.0
C      1  0.4450550000000  0.5376740000000  0.5144360000000 1.0
C      1  0.4469400000000  0.4649950000000  0.5165910000000 1.0
C      1  0.5295120000000  0.4827320000000  0.4384150000000 1.0
C      1  0.5287060000000  0.5096990000000  0.4379650000000 1.0
C      1  0.5616750000000  0.4664170000000  0.4701870000000 1.0
C      1  0.5614160000000  0.5248130000000  0.4690320000000 1.0
C      1  0.5648060000000  0.5141780000000  0.4950240000000 1.0
C      1  0.5681730000000  0.4780860000000  0.4945060000000 1.0
C      1  0.4807520000000  0.4990530000000  0.4710460000000 1.0
END
