TITL C-3623289-7120-845 -2.33381011245105e-07 125000 -100.209857087919 0 0 19 (D3h) n - 1
REM
REM in /home/nfs/bkarasulu/CARBON/AIRSS/Generating-Clusters/LCBOP/Higher-Symm/SD-CG/FIRE-CG
REM
REM
REM
REM
REM
REM ./C.cell (b20cbc046b6831c77cfcea5457e17084)
REM AIRSS Version 0.9.1 bugfix July 2018 build 013d7b7c2542+ Fri, 06 Jul 2018 19:26:36 +0100
REM compiler GCC version 9.2.1 20190827 (Red Hat 9.2.1-1)
REM options -cpp -mtune=generic -march=x86-64 -g -O0 -fpre-include=/usr/include/finclude/math-vector-fortran.h
REM seed -760618118 -1002239825 1901817794 1756499017 -1759079915 -357574935 -1622801806 -309655353 2097966678 1983939244 -1993400980 675077649 -996635137 -2009500582 -1947252625 966879731 511815888 -877715037 1809925432 1826838475 648607562 -206432574 -193571448 -173273753 -1505110666 1403198164 -138600360 -951483507 -1120950176 -1607984184 16640312 2020898037 -2005277469
REM
CELL 1.54180   50.00000   50.00000   50.00000   90.00000   90.00000   90.00000
LATT -1
SFAC C  
C      1  0.5092740000000  0.5273940000000  0.5041250000000 1.0
C      1  0.5092670000000  0.4832350000000  0.5229520000000 1.0
C      1  0.5092750000000  0.4890100000000  0.4752960000000 1.0
C      1  0.4789700000000  0.5273970000000  0.5041210000000 1.0
C      1  0.4789630000000  0.4832380000000  0.5229480000000 1.0
C      1  0.4789700000000  0.4890130000000  0.4752910000000 1.0
C      1  0.4713870000000  0.4664760000000  0.5452650000000 1.0
C      1  0.4714020000000  0.4780670000000  0.4496150000000 1.0
C      1  0.4714010000000  0.5551070000000  0.5074780000000 1.0
C      1  0.5168340000000  0.4664720000000  0.5452710000000 1.0
C      1  0.5168480000000  0.4780630000000  0.4496210000000 1.0
C      1  0.5168470000000  0.5551020000000  0.5074840000000 1.0
C      1  0.4941080000000  0.4568460000000  0.5580860000000 1.0
C      1  0.4941250000000  0.5710190000000  0.5094100000000 1.0
C      1  0.4941270000000  0.4717780000000  0.4348710000000 1.0
C      1  0.4369320000000  0.4998860000000  0.5007810000000 1.0
C      1  0.5513070000000  0.4998760000000  0.5007970000000 1.0
C      1  0.5215470000000  0.4998790000000  0.5007930000000 1.0
C      1  0.4666930000000  0.4998840000000  0.5007850000000 1.0
END
