TITL C-3623288-6813-253 7.42842018652655e-07 125000 -336.327651884921 0 0 65 (D3) n - 1
REM
REM in /home/nfs/bkarasulu/CARBON/AIRSS/Generating-Clusters/LCBOP/Higher-Symm/SD-CG/FIRE-CG
REM
REM
REM
REM
REM
REM ./C.cell (b20cbc046b6831c77cfcea5457e17084)
REM AIRSS Version 0.9.1 bugfix July 2018 build 013d7b7c2542+ Fri, 06 Jul 2018 19:26:36 +0100
REM compiler GCC version 9.2.1 20190827 (Red Hat 9.2.1-1)
REM options -cpp -mtune=generic -march=x86-64 -g -O0 -fpre-include=/usr/include/finclude/math-vector-fortran.h
REM seed 2065361480 1354673277 -393412684 1315745595 408350655 -157683151 -1862851118 2114489339 -5004922 2033008672 -1378413339 -512027581 -2033601458 853917612 -1355380320 1791222683 -1713664017 -833112629 624865344 430559261 -1196678078 -1479423205 -605186165 646007348 1295123065 304710632 -1762275338 -498447885 1759717553 -143724433 23640760 1268632898 1431533616
REM
CELL 1.54180   50.00000   50.00000   50.00000   90.00000   90.00000   90.00000
LATT -1
SFAC C  
C      1  0.5663140000000  0.4735040000000  0.5256650000000 1.0
C      1  0.4892300000000  0.4735040000000  0.4290410000000 1.0
C      1  0.4440940000000  0.4735040000000  0.5441090000000 1.0
C      1  0.5663140000000  0.5240720000000  0.4735460000000 1.0
C      1  0.4892300000000  0.5240720000000  0.5701690000000 1.0
C      1  0.4440940000000  0.5240720000000  0.4551010000000 1.0
C      1  0.5376100000000  0.5327780000000  0.5537460000000 1.0
C      1  0.5279020000000  0.5327780000000  0.4398590000000 1.0
C      1  0.4341260000000  0.5327780000000  0.5052100000000 1.0
C      1  0.5376100000000  0.4647970000000  0.4454640000000 1.0
C      1  0.5279020000000  0.4647970000000  0.5593520000000 1.0
C      1  0.4341260000000  0.4647970000000  0.4940000000000 1.0
C      1  0.4346960000000  0.5014030000000  0.4662620000000 1.0
C      1  0.5035950000000  0.5014030000000  0.5727270000000 1.0
C      1  0.5613470000000  0.5014030000000  0.4598260000000 1.0
C      1  0.4346960000000  0.4961730000000  0.5329480000000 1.0
C      1  0.5035950000000  0.4961730000000  0.4264830000000 1.0
C      1  0.5613470000000  0.4961730000000  0.5393840000000 1.0
C      1  0.4759080000000  0.4756920000000  0.5100430000000 1.0
C      1  0.5209050000000  0.4756920000000  0.5151460000000 1.0
C      1  0.5028250000000  0.4756920000000  0.4736270000000 1.0
C      1  0.4759080000000  0.5218840000000  0.4891670000000 1.0
C      1  0.5209050000000  0.5218840000000  0.4840650000000 1.0
C      1  0.5028250000000  0.5218840000000  0.5255840000000 1.0
C      1  0.4777280000000  0.5174880000000  0.5161530000000 1.0
C      1  0.5252860000000  0.5174880000000  0.5105150000000 1.0
C      1  0.4966240000000  0.5174880000000  0.4721480000000 1.0
C      1  0.4777280000000  0.4800870000000  0.4830580000000 1.0
C      1  0.5252860000000  0.4800870000000  0.4886950000000 1.0
C      1  0.4966240000000  0.4800870000000  0.5270620000000 1.0
C      1  0.4712000000000  0.4399300000000  0.4674250000000 1.0
C      1  0.4863510000000  0.4399300000000  0.5405330000000 1.0
C      1  0.5420880000000  0.4399300000000  0.4908580000000 1.0
C      1  0.4712000000000  0.5576450000000  0.5317850000000 1.0
C      1  0.4863510000000  0.5576450000000  0.4586780000000 1.0
C      1  0.5420880000000  0.5576450000000  0.5083530000000 1.0
C      1  0.5750150000000  0.4730750000000  0.4989230000000 1.0
C      1  0.4617210000000  0.4730750000000  0.4348760000000 1.0
C      1  0.4629020000000  0.4730750000000  0.5650160000000 1.0
C      1  0.5750150000000  0.5245010000000  0.5002870000000 1.0
C      1  0.4617210000000  0.5245010000000  0.5643340000000 1.0
C      1  0.4629020000000  0.5245010000000  0.4341950000000 1.0
C      1  0.4586130000000  0.5431930000000  0.4824480000000 1.0
C      1  0.5056540000000  0.5431930000000  0.5439220000000 1.0
C      1  0.5353710000000  0.5431930000000  0.4724460000000 1.0
C      1  0.4586130000000  0.4543830000000  0.5167620000000 1.0
C      1  0.5056540000000  0.4543830000000  0.4552890000000 1.0
C      1  0.5353710000000  0.4543830000000  0.5267640000000 1.0
C      1  0.4734220000000  0.5666430000000  0.5066740000000 1.0
C      1  0.5192300000000  0.5666430000000  0.5189830000000 1.0
C      1  0.5069860000000  0.5666430000000  0.4731580000000 1.0
C      1  0.4734220000000  0.4309320000000  0.4925370000000 1.0
C      1  0.5192300000000  0.4309320000000  0.4802270000000 1.0
C      1  0.5069860000000  0.4309320000000  0.5260520000000 1.0
C      1  0.4922810000000  0.4697420000000  0.5592930000000 1.0
C      1  0.5553700000000  0.4697420000000  0.4763420000000 1.0
C      1  0.4519870000000  0.4697420000000  0.4631810000000 1.0
C      1  0.4922810000000  0.5278340000000  0.4399170000000 1.0
C      1  0.5553700000000  0.5278340000000  0.5228690000000 1.0
C      1  0.4519870000000  0.5278340000000  0.5360290000000 1.0
C      1  0.5364810000000  0.4987880000000  0.4362090000000 1.0
C      1  0.5364810000000  0.4987880000000  0.5630010000000 1.0
C      1  0.4266760000000  0.4987880000000  0.4996050000000 1.0
C      1  0.4998790000000  0.5737640000000  0.4996050000000 1.0
C      1  0.4998790000000  0.4238110000000  0.4996050000000 1.0
END
