TITL C-3623285-6872-1152 3.50938400728954e-09 125000 -18.9723641415035 0 0 4 (D(inf)h) n - 1
REM
REM in /home/nfs/bkarasulu/CARBON/AIRSS/Generating-Clusters/LCBOP/Higher-Symm/SD-CG/FIRE-CG
REM
REM
REM
REM
REM
REM ./C.cell (b20cbc046b6831c77cfcea5457e17084)
REM AIRSS Version 0.9.1 bugfix July 2018 build 013d7b7c2542+ Fri, 06 Jul 2018 19:26:36 +0100
REM compiler GCC version 9.2.1 20190827 (Red Hat 9.2.1-1)
REM options -cpp -mtune=generic -march=x86-64 -g -O0 -fpre-include=/usr/include/finclude/math-vector-fortran.h
REM seed 1662509046 386480476 -1821515667 1116993778 -1751557852 -1534380439 -1169816981 705533542 -592314971 -1018816052 652741951 -2125935527 -1674118915 30852937 -809690595 1649913458 -1212466265 310264824 1053666324 846006761 1901385500 255767891 -779094710 98626969 1544607569 -67357697 -452747583 -1335208810 -54682162 -550487067 -1849918338 -2118527387 -1364685508
REM
CELL 1.54180   50.00000   50.00000   50.00000   90.00000   90.00000   90.00000
LATT -1
SFAC C  
C      1  0.4893510000000  0.5001340000000  0.5027320000000 1.0
C      1  0.5158640000000  0.5001340000000  0.5027320000000 1.0
C      1  0.5419340000000  0.5001340000000  0.5027320000000 1.0
C      1  0.4632810000000  0.5001340000000  0.5027320000000 1.0
END
