TITL C-3623285-6872-315 -6.51143512679784e-08 125000 -25.0790098697788 0 0 5 (D(inf)h) n - 1
REM
REM in /home/nfs/bkarasulu/CARBON/AIRSS/Generating-Clusters/LCBOP/Higher-Symm/SD-CG/FIRE-CG
REM
REM
REM
REM
REM
REM ./C.cell (b20cbc046b6831c77cfcea5457e17084)
REM AIRSS Version 0.9.1 bugfix July 2018 build 013d7b7c2542+ Fri, 06 Jul 2018 19:26:36 +0100
REM compiler GCC version 9.2.1 20190827 (Red Hat 9.2.1-1)
REM options -cpp -mtune=generic -march=x86-64 -g -O0 -fpre-include=/usr/include/finclude/math-vector-fortran.h
REM seed 1281777902 -1039828370 1818245944 -281593913 -502118459 -435148448 805156823 2119370468 -669644817 1116592580 831389394 494350304 -2056903994 -1536742995 1266684680 1219526597 -653086118 791844879 1712599571 210354544 1663715953 -844308773 215923460 476756447 -793135197 76116748 679448146 -2034732815 -1193114912 679856372 -1962107341 -701505572 -626998025
REM
CELL 1.54180   50.00000   50.00000   50.00000   90.00000   90.00000   90.00000
LATT -1
SFAC C  
C      1  0.4474230000000  0.5000390000000  0.4987820000000 1.0
C      1  0.4734930000000  0.5000390000000  0.4987820000000 1.0
C      1  0.5525770000000  0.5000390000000  0.4987820000000 1.0
C      1  0.5265070000000  0.5000390000000  0.4987820000000 1.0
C      1  0.5000000000000  0.5000390000000  0.4987820000000 1.0
END
