TITL C-3623284-6838-1518 -1.18288676457597e-07 125000 -28.9607206883079 0 0 8 (D3d) n - 1
REM
REM in /home/nfs/bkarasulu/CARBON/AIRSS/Generating-Clusters/LCBOP/Higher-Symm/SD-CG/FIRE-CG
REM
REM
REM
REM
REM
REM ./C.cell (b20cbc046b6831c77cfcea5457e17084)
REM AIRSS Version 0.9.1 bugfix July 2018 build 013d7b7c2542+ Fri, 06 Jul 2018 19:26:36 +0100
REM compiler GCC version 9.2.1 20190827 (Red Hat 9.2.1-1)
REM options -cpp -mtune=generic -march=x86-64 -g -O0 -fpre-include=/usr/include/finclude/math-vector-fortran.h
REM seed -829187510 360542833 598786653 2036558017 285579755 1926937292 1441034100 1071930466 -693237999 1581388833 -1758912644 -327040481 1830851275 1440463152 -516022426 176692363 -726854005 -801408625 1759716978 -656845899 -1225303267 532846689 1991745307 528255700 1663511084 797757157 1160926387 -1853937418 2064007193 955582987 -1622106150 1012181628 379756511
REM
CELL 1.54180   50.00000   50.00000   50.00000   90.00000   90.00000   90.00000
LATT -1
SFAC C  
C      1  0.4762550000000  0.4864040000000  0.5034960000000 1.0
C      1  0.4917870000000  0.5135960000000  0.5223030000000 1.0
C      1  0.5181850000000  0.4864040000000  0.5178620000000 1.0
C      1  0.5267070000000  0.5135960000000  0.4950070000000 1.0
C      1  0.5096610000000  0.4864040000000  0.4743670000000 1.0
C      1  0.4856070000000  0.5135960000000  0.4784140000000 1.0
C      1  0.5013670000000  0.4720590000000  0.4985750000000 1.0
C      1  0.5013670000000  0.5279410000000  0.4985750000000 1.0
END
