TITL C-3623283-6828-1609 157.990580553786 125000 -950.658439448553 0 0 156 (C1) n - 1
REM
REM in /home/nfs/bkarasulu/CARBON/AIRSS/Generating-Clusters/LCBOP/Higher-Symm/SD-CG/FIRE-CG
REM
REM
REM
REM
REM
REM ./C.cell (b20cbc046b6831c77cfcea5457e17084)
REM AIRSS Version 0.9.1 bugfix July 2018 build 013d7b7c2542+ Fri, 06 Jul 2018 19:26:36 +0100
REM compiler GCC version 9.2.1 20190827 (Red Hat 9.2.1-1)
REM options -cpp -mtune=generic -march=x86-64 -g -O0 -fpre-include=/usr/include/finclude/math-vector-fortran.h
REM seed 2119159327 -279885959 270112425 1655895952 -105301357 -1375111640 1535027801 2069421587 -321447784 2001396361 -1704942718 1104523947 -389735588 -1143164479 1933360704 -2054338810 -483180923 -1462446719 1580485907 1285535237 1682196030 257079814 -782576156 1879465587 -1646791401 2023054830 -617454831 856823478 -1924930186 -1579270699 -2142766900 492270219 -748195290
REM
CELL 1.54180   50.00000   50.00000   50.00000   90.00000   90.00000   90.00000
LATT -1
SFAC C  
C      1  0.5910150000000  0.4794350000000  0.4383230000000 1.0
C      1  0.6022840000000  0.5448710000000  0.5495080000000 1.0
C      1  0.3435000000000  0.5271580000000  0.5983450000000 1.0
C      1  0.4769390000000  0.3748340000000  0.3922050000000 1.0
C      1  0.5824530000000  0.4887090000000  0.5683020000000 1.0
C      1  0.5816920000000  0.5047320000000  0.4294080000000 1.0
C      1  0.4756030000000  0.4554780000000  0.5820200000000 1.0
C      1  0.4782400000000  0.5583140000000  0.4188390000000 1.0
C      1  0.5232930000000  0.4055120000000  0.5673060000000 1.0
C      1  0.5336200000000  0.5982390000000  0.4325930000000 1.0
C      1  0.5037840000000  0.4333470000000  0.4733940000000 1.0
C      1  0.5122430000000  0.5703890000000  0.5162500000000 1.0
C      1  0.4478840000000  0.4636870000000  0.5265220000000 1.0
C      1  0.4554500000000  0.5374860000000  0.4830450000000 1.0
C      1  0.4108510000000  0.4901600000000  0.5098360000000 1.0
C      1  0.4156090000000  0.5169150000000  0.5017320000000 1.0
C      1  0.5086270000000  0.4765610000000  0.6085510000000 1.0
C      1  0.5050280000000  0.5325190000000  0.3851630000000 1.0
C      1  0.4506090000000  0.4227490000000  0.5565800000000 1.0
C      1  0.4643370000000  0.5838010000000  0.4593550000000 1.0
C      1  0.3629770000000  0.4798950000000  0.5113580000000 1.0
C      1  0.3735610000000  0.5419100000000  0.5045250000000 1.0
C      1  0.3514180000000  0.5498900000000  0.5166860000000 1.0
C      1  0.3401020000000  0.4791460000000  0.4980170000000 1.0
C      1  0.5562390000000  0.4648900000000  0.5957660000000 1.0
C      1  0.5620960000000  0.5353860000000  0.3993350000000 1.0
C      1  0.3292150000000  0.5566130000000  0.5285770000000 1.0
C      1  0.3176750000000  0.4797780000000  0.4847440000000 1.0
C      1  0.6181840000000  0.5632260000000  0.5064970000000 1.0
C      1  0.6162860000000  0.4788980000000  0.4821420000000 1.0
C      1  0.5251440000000  0.5493710000000  0.4261450000000 1.0
C      1  0.5207330000000  0.4571480000000  0.5639190000000 1.0
C      1  0.5695420000000  0.4601610000000  0.4756220000000 1.0
C      1  0.5710920000000  0.5459630000000  0.5159620000000 1.0
C      1  0.4993490000000  0.5033260000000  0.4764530000000 1.0
C      1  0.4940190000000  0.4865130000000  0.5217780000000 1.0
C      1  0.5533880000000  0.5946570000000  0.5047450000000 1.0
C      1  0.5450840000000  0.4093250000000  0.4855540000000 1.0
C      1  0.5774860000000  0.5378760000000  0.5612560000000 1.0
C      1  0.5727980000000  0.4589550000000  0.4292180000000 1.0
C      1  0.5034040000000  0.5529710000000  0.5811540000000 1.0
C      1  0.4977140000000  0.4518890000000  0.4084460000000 1.0
C      1  0.5944440000000  0.4731840000000  0.4670750000000 1.0
C      1  0.5989350000000  0.5517630000000  0.5216830000000 1.0
C      1  0.3945350000000  0.5315890000000  0.4892470000000 1.0
C      1  0.3872490000000  0.4837370000000  0.5245480000000 1.0
C      1  0.5018920000000  0.4649230000000  0.5840970000000 1.0
C      1  0.5026130000000  0.5474280000000  0.4086230000000 1.0
C      1  0.6129730000000  0.5465350000000  0.4554210000000 1.0
C      1  0.6077690000000  0.4444760000000  0.5323820000000 1.0
C      1  0.4880980000000  0.4556590000000  0.4802470000000 1.0
C      1  0.5040780000000  0.5436370000000  0.5112990000000 1.0
C      1  0.4298790000000  0.4640590000000  0.5705710000000 1.0
C      1  0.4352260000000  0.5505930000000  0.4405420000000 1.0
C      1  0.3649450000000  0.5367580000000  0.5870520000000 1.0
C      1  0.4615610000000  0.3876800000000  0.4088820000000 1.0
C      1  0.4378500000000  0.4470050000000  0.5481610000000 1.0
C      1  0.4476970000000  0.5604560000000  0.4650170000000 1.0
C      1  0.4476320000000  0.4020670000000  0.4262480000000 1.0
C      1  0.3863900000000  0.5457270000000  0.5743190000000 1.0
C      1  0.5978430000000  0.3804450000000  0.4162220000000 1.0
C      1  0.6091440000000  0.6161860000000  0.5734660000000 1.0
C      1  0.5165560000000  0.4487450000000  0.5356010000000 1.0
C      1  0.5215730000000  0.5524280000000  0.4545590000000 1.0
C      1  0.4969350000000  0.4103310000000  0.5736820000000 1.0
C      1  0.5061910000000  0.5975350000000  0.4333940000000 1.0
C      1  0.5125090000000  0.5413260000000  0.6052400000000 1.0
C      1  0.5085500000000  0.4644270000000  0.3854480000000 1.0
C      1  0.5673300000000  0.5071220000000  0.4040370000000 1.0
C      1  0.5664390000000  0.4923190000000  0.5920000000000 1.0
C      1  0.5145750000000  0.4330040000000  0.4214480000000 1.0
C      1  0.5225070000000  0.5693820000000  0.5679360000000 1.0
C      1  0.4340860000000  0.3735340000000  0.5410000000000 1.0
C      1  0.4580960000000  0.6131130000000  0.5018610000000 1.0
C      1  0.4734370000000  0.4274490000000  0.5736460000000 1.0
C      1  0.4813460000000  0.5827140000000  0.4355240000000 1.0
C      1  0.5580520000000  0.4558960000000  0.4052020000000 1.0
C      1  0.5638400000000  0.5438540000000  0.5853960000000 1.0
C      1  0.5302850000000  0.5207320000000  0.6125670000000 1.0
C      1  0.5267750000000  0.4856460000000  0.3814410000000 1.0
C      1  0.4374750000000  0.5855940000000  0.5395650000000 1.0
C      1  0.4192150000000  0.3260290000000  0.5240780000000 1.0
C      1  0.5610270000000  0.4083850000000  0.5112640000000 1.0
C      1  0.5717790000000  0.5915610000000  0.4809100000000 1.0
C      1  0.5533950000000  0.4913600000000  0.5064730000000 1.0
C      1  0.5447550000000  0.5154180000000  0.4915590000000 1.0
C      1  0.4478390000000  0.6052960000000  0.5251140000000 1.0
C      1  0.4265880000000  0.3495840000000  0.5324700000000 1.0
C      1  0.5641250000000  0.4229220000000  0.5377850000000 1.0
C      1  0.5735400000000  0.5753120000000  0.4553240000000 1.0
C      1  0.5226320000000  0.4991510000000  0.5386020000000 1.0
C      1  0.5227780000000  0.4961990000000  0.4564010000000 1.0
C      1  0.5766910000000  0.3942670000000  0.4225930000000 1.0
C      1  0.5868190000000  0.6041140000000  0.5675570000000 1.0
C      1  0.5556690000000  0.5427500000000  0.4930990000000 1.0
C      1  0.5530620000000  0.4646990000000  0.4974220000000 1.0
C      1  0.4077030000000  0.5457910000000  0.4384760000000 1.0
C      1  0.4035330000000  0.4724550000000  0.5750140000000 1.0
C      1  0.5546470000000  0.4568070000000  0.4516360000000 1.0
C      1  0.5576830000000  0.5361630000000  0.5399520000000 1.0
C      1  0.4409550000000  0.5298420000000  0.5067080000000 1.0
C      1  0.4301380000000  0.4697010000000  0.5052100000000 1.0
C      1  0.5403480000000  0.4079750000000  0.4553270000000 1.0
C      1  0.5496170000000  0.5932370000000  0.5348920000000 1.0
C      1  0.4069620000000  0.5536170000000  0.5596250000000 1.0
C      1  0.4369720000000  0.4185230000000  0.4440770000000 1.0
C      1  0.5853330000000  0.5480230000000  0.4545840000000 1.0
C      1  0.5810160000000  0.4473400000000  0.5384960000000 1.0
C      1  0.3951650000000  0.5363170000000  0.4616870000000 1.0
C      1  0.3891420000000  0.4803900000000  0.5522760000000 1.0
C      1  0.4766300000000  0.4656930000000  0.4208460000000 1.0
C      1  0.4804680000000  0.5421140000000  0.5689360000000 1.0
C      1  0.4666330000000  0.5150040000000  0.4392570000000 1.0
C      1  0.4629840000000  0.4969980000000  0.5584510000000 1.0
C      1  0.4626980000000  0.5252840000000  0.5547320000000 1.0
C      1  0.4665500000000  0.4888660000000  0.4294370000000 1.0
C      1  0.4296650000000  0.4546490000000  0.4817970000000 1.0
C      1  0.4457570000000  0.5375700000000  0.5344600000000 1.0
C      1  0.5640400000000  0.5898880000000  0.5604070000000 1.0
C      1  0.5547860000000  0.4099020000000  0.4295470000000 1.0
C      1  0.4416880000000  0.3975110000000  0.5492910000000 1.0
C      1  0.4642820000000  0.6051990000000  0.4772360000000 1.0
C      1  0.5503810000000  0.5697560000000  0.5784120000000 1.0
C      1  0.5425060000000  0.4308440000000  0.4113010000000 1.0
C      1  0.4572900000000  0.5391930000000  0.4259650000000 1.0
C      1  0.4551550000000  0.4760910000000  0.5777310000000 1.0
C      1  0.5376540000000  0.5599080000000  0.4771400000000 1.0
C      1  0.5324590000000  0.4485290000000  0.5106480000000 1.0
C      1  0.5568670000000  0.5806740000000  0.4315820000000 1.0
C      1  0.5476220000000  0.4206690000000  0.5624370000000 1.0
C      1  0.5508790000000  0.5562810000000  0.4155050000000 1.0
C      1  0.5449700000000  0.4467510000000  0.5763980000000 1.0
C      1  0.5236360000000  0.4277680000000  0.4932570000000 1.0
C      1  0.5289220000000  0.5806430000000  0.4948720000000 1.0
C      1  0.4925160000000  0.4802860000000  0.4936290000000 1.0
C      1  0.5147320000000  0.5213170000000  0.4967600000000 1.0
C      1  0.5490430000000  0.4871210000000  0.5343440000000 1.0
C      1  0.5468750000000  0.5117760000000  0.4616620000000 1.0
C      1  0.4956470000000  0.5461700000000  0.4618600000000 1.0
C      1  0.4929300000000  0.4344680000000  0.5312880000000 1.0
C      1  0.5526240000000  0.4827510000000  0.3936920000000 1.0
C      1  0.5557660000000  0.5193090000000  0.5994240000000 1.0
C      1  0.5226680000000  0.5802040000000  0.5411140000000 1.0
C      1  0.5136030000000  0.4220650000000  0.4485540000000 1.0
C      1  0.5311160000000  0.5258670000000  0.5444900000000 1.0
C      1  0.5296470000000  0.4700590000000  0.4491410000000 1.0
C      1  0.4779120000000  0.5223520000000  0.4666780000000 1.0
C      1  0.4690180000000  0.4824450000000  0.5343090000000 1.0
C      1  0.5710190000000  0.5225370000000  0.4495600000000 1.0
C      1  0.5714150000000  0.4739530000000  0.5465630000000 1.0
C      1  0.4307810000000  0.4366680000000  0.4623750000000 1.0
C      1  0.4296950000000  0.5592320000000  0.5444310000000 1.0
C      1  0.3924460000000  0.4727940000000  0.5999270000000 1.0
C      1  0.3938820000000  0.5501730000000  0.4153810000000 1.0
C      1  0.5189440000000  0.4970330000000  0.6220310000000 1.0
C      1  0.5161920000000  0.5106650000000  0.3747110000000 1.0
END
