TITL C-3623285-6872-484 -4.97260594666155e-07 125000 -651.821665550771 0 0 100 (T23) n - 1
REM
REM in /home/nfs/bkarasulu/CARBON/AIRSS/Generating-Clusters/LCBOP/Higher-Symm/SD-CG/FIRE-CG
REM
REM
REM
REM
REM
REM ./C.cell (b20cbc046b6831c77cfcea5457e17084)
REM AIRSS Version 0.9.1 bugfix July 2018 build 013d7b7c2542+ Fri, 06 Jul 2018 19:26:36 +0100
REM compiler GCC version 9.2.1 20190827 (Red Hat 9.2.1-1)
REM options -cpp -mtune=generic -march=x86-64 -g -O0 -fpre-include=/usr/include/finclude/math-vector-fortran.h
REM seed -698846981 431304603 -1204101518 511157705 352916415 1947942045 -1293990923 628117216 -545000909 -577932287 1869374654 1534543575 -345567970 -1784347117 -116319595 -337326764 -1644821205 -1869592598 -1568327961 530261488 -852437839 -328604166 1854056988 -1442452397 -1170640478 1355602533 896120069 38078125 132672330 -795323495 -1281820227 1144528270 -494940520
REM
CELL 1.54180   50.00000   50.00000   50.00000   90.00000   90.00000   90.00000
LATT -1
SFAC C  
C      1  0.5568940000000  0.5426660000000  0.5167430000000 1.0
C      1  0.5169190000000  0.5570840000000  0.5423000000000 1.0
C      1  0.5424770000000  0.5171090000000  0.5567180000000 1.0
C      1  0.4423730000000  0.4569810000000  0.5167430000000 1.0
C      1  0.4423730000000  0.5426670000000  0.4821720000000 1.0
C      1  0.5568940000000  0.4569800000000  0.4821720000000 1.0
C      1  0.4823480000000  0.4425630000000  0.5423000000000 1.0
C      1  0.4823480000000  0.5570840000000  0.4566140000000 1.0
C      1  0.5169190000000  0.4425630000000  0.4566140000000 1.0
C      1  0.4567910000000  0.4825380000000  0.5567180000000 1.0
C      1  0.4567910000000  0.5171090000000  0.4421970000000 1.0
C      1  0.5424770000000  0.4825380000000  0.4421970000000 1.0
C      1  0.5119300000000  0.5049410000000  0.3939250000000 1.0
C      1  0.3941010000000  0.5121210000000  0.5045750000000 1.0
C      1  0.5047510000000  0.3942910000000  0.5117540000000 1.0
C      1  0.4873370000000  0.4947060000000  0.3939250000000 1.0
C      1  0.4873370000000  0.5049420000000  0.6049900000000 1.0
C      1  0.5119310000000  0.4947060000000  0.6049900000000 1.0
C      1  0.6051660000000  0.4875270000000  0.5045750000000 1.0
C      1  0.6051660000000  0.5121200000000  0.4943390000000 1.0
C      1  0.3941010000000  0.4875270000000  0.4943400000000 1.0
C      1  0.4945160000000  0.6053560000000  0.5117540000000 1.0
C      1  0.4945160000000  0.3942910000000  0.4871610000000 1.0
C      1  0.5047520000000  0.6053560000000  0.4871600000000 1.0
C      1  0.5301630000000  0.4453430000000  0.4824080000000 1.0
C      1  0.4825850000000  0.5303540000000  0.4449760000000 1.0
C      1  0.4451530000000  0.4827750000000  0.5299870000000 1.0
C      1  0.4691040000000  0.5543050000000  0.4824080000000 1.0
C      1  0.4691040000000  0.4453430000000  0.5165060000000 1.0
C      1  0.5301640000000  0.5543050000000  0.5165060000000 1.0
C      1  0.5166820000000  0.4692940000000  0.4449760000000 1.0
C      1  0.5166830000000  0.5303540000000  0.5539380000000 1.0
C      1  0.4825850000000  0.4692940000000  0.5539380000000 1.0
C      1  0.5541150000000  0.5168720000000  0.5299870000000 1.0
C      1  0.5541150000000  0.4827750000000  0.4689270000000 1.0
C      1  0.4451530000000  0.5168730000000  0.4689270000000 1.0
C      1  0.5317920000000  0.4813020000000  0.5904760000000 1.0
C      1  0.5906530000000  0.5319820000000  0.4809360000000 1.0
C      1  0.4811120000000  0.5908430000000  0.5316160000000 1.0
C      1  0.4674750000000  0.5183450000000  0.5904760000000 1.0
C      1  0.4674750000000  0.4813020000000  0.4084380000000 1.0
C      1  0.5317920000000  0.5183450000000  0.4084380000000 1.0
C      1  0.4086140000000  0.4676650000000  0.4809360000000 1.0
C      1  0.4086150000000  0.5319820000000  0.5179790000000 1.0
C      1  0.5906530000000  0.4676650000000  0.5179790000000 1.0
C      1  0.5181550000000  0.4088050000000  0.5316160000000 1.0
C      1  0.5181550000000  0.5908430000000  0.4672990000000 1.0
C      1  0.4811120000000  0.4088050000000  0.4672990000000 1.0
C      1  0.4329300000000  0.5741550000000  0.5174630000000 1.0
C      1  0.5176400000000  0.4331200000000  0.5737890000000 1.0
C      1  0.5739650000000  0.5178300000000  0.4327530000000 1.0
C      1  0.5663380000000  0.4254920000000  0.5174630000000 1.0
C      1  0.5663380000000  0.5741550000000  0.4814510000000 1.0
C      1  0.4329290000000  0.4254920000000  0.4814510000000 1.0
C      1  0.4816280000000  0.5665280000000  0.5737890000000 1.0
C      1  0.4816270000000  0.4331200000000  0.4251260000000 1.0
C      1  0.5176400000000  0.5665280000000  0.4251260000000 1.0
C      1  0.4253020000000  0.4818180000000  0.4327530000000 1.0
C      1  0.4253020000000  0.5178300000000  0.5661610000000 1.0
C      1  0.5739650000000  0.4818170000000  0.5661610000000 1.0
C      1  0.4965760000000  0.5137540000000  0.5418660000000 1.0
C      1  0.5420420000000  0.4967650000000  0.5133880000000 1.0
C      1  0.5135650000000  0.5422320000000  0.4963990000000 1.0
C      1  0.5026920000000  0.4858930000000  0.5418660000000 1.0
C      1  0.5026920000000  0.5137540000000  0.4570490000000 1.0
C      1  0.4965750000000  0.4858930000000  0.4570490000000 1.0
C      1  0.4572250000000  0.5028820000000  0.5133880000000 1.0
C      1  0.4572250000000  0.4967660000000  0.4855270000000 1.0
C      1  0.5420420000000  0.5028820000000  0.4855260000000 1.0
C      1  0.4857030000000  0.4574150000000  0.4963990000000 1.0
C      1  0.4857030000000  0.5422320000000  0.5025160000000 1.0
C      1  0.5135640000000  0.4574150000000  0.5025160000000 1.0
C      1  0.5288090000000  0.5462460000000  0.4117400000000 1.0
C      1  0.4119170000000  0.5290000000000  0.5458800000000 1.0
C      1  0.5460560000000  0.4121070000000  0.5286330000000 1.0
C      1  0.4704580000000  0.4534010000000  0.4117400000000 1.0
C      1  0.4704580000000  0.5462460000000  0.5871740000000 1.0
C      1  0.5288090000000  0.4534010000000  0.5871740000000 1.0
C      1  0.5873510000000  0.4706480000000  0.5458800000000 1.0
C      1  0.5873510000000  0.5289990000000  0.4530350000000 1.0
C      1  0.4119170000000  0.4706480000000  0.4530350000000 1.0
C      1  0.4532120000000  0.5875410000000  0.5286330000000 1.0
C      1  0.4532110000000  0.4121070000000  0.4702820000000 1.0
C      1  0.5460560000000  0.5875400000000  0.4702810000000 1.0
C      1  0.5738870000000  0.5504440000000  0.4949820000000 1.0
C      1  0.4951590000000  0.5740770000000  0.5500780000000 1.0
C      1  0.5502540000000  0.4953480000000  0.5737100000000 1.0
C      1  0.4253810000000  0.4492030000000  0.4949820000000 1.0
C      1  0.4253810000000  0.5504450000000  0.5039330000000 1.0
C      1  0.5738860000000  0.4492030000000  0.5039330000000 1.0
C      1  0.5041090000000  0.4255710000000  0.5500780000000 1.0
C      1  0.5041090000000  0.5740760000000  0.4488370000000 1.0
C      1  0.4951580000000  0.4255710000000  0.4488370000000 1.0
C      1  0.4490130000000  0.5042990000000  0.5737100000000 1.0
C      1  0.4490130000000  0.4953480000000  0.4252040000000 1.0
C      1  0.5502540000000  0.5042990000000  0.4252040000000 1.0
C      1  0.5218790000000  0.5220690000000  0.4772110000000 1.0
C      1  0.4773880000000  0.4775780000000  0.4772120000000 1.0
C      1  0.5218790000000  0.4775780000000  0.5217030000000 1.0
C      1  0.4773880000000  0.5220700000000  0.5217030000000 1.0
END
