TITL C-3623289-7120-1741 -1680.59738755098 125000 -1143.21984513095 0 0 185 (C1) n - 1
REM
REM in /home/nfs/bkarasulu/CARBON/AIRSS/Generating-Clusters/LCBOP/Higher-Symm/SD-CG/FIRE-CG
REM
REM
REM
REM
REM
REM ./C.cell (b20cbc046b6831c77cfcea5457e17084)
REM AIRSS Version 0.9.1 bugfix July 2018 build 013d7b7c2542+ Fri, 06 Jul 2018 19:26:36 +0100
REM compiler GCC version 9.2.1 20190827 (Red Hat 9.2.1-1)
REM options -cpp -mtune=generic -march=x86-64 -g -O0 -fpre-include=/usr/include/finclude/math-vector-fortran.h
REM seed 1137694059 -1735464550 131729363 1454184453 1577850804 1056685010 37156069 488360336 -1411741378 1874835299 -1164163689 -572610046 1911996717 -1168862590 1357655756 1877923171 -1813169360 1977245063 -2107624194 -747105859 -689032296 643225014 -1810043756 -1020578927 -800534686 -928819397 2085655479 -1683782770 1684953259 -1697720709 -634824332 -1555898555 -1295488185
REM
CELL 1.54180   50.00000   50.00000   50.00000   90.00000   90.00000   90.00000
LATT -1
SFAC C  
C      1  0.4756960000000  0.4456170000000  0.5029890000000 1.0
C      1  0.4798090000000  0.4534490000000  0.4767510000000 1.0
C      1  0.4792110000000  0.4879790000000  0.6236630000000 1.0
C      1  0.4351110000000  0.5119150000000  0.3659720000000 1.0
C      1  0.5109500000000  0.4162290000000  0.6073700000000 1.0
C      1  0.5498800000000  0.4166510000000  0.3840970000000 1.0
C      1  0.4812840000000  0.4188050000000  0.5097800000000 1.0
C      1  0.4946920000000  0.3965370000000  0.4708690000000 1.0
C      1  0.4045500000000  0.4783320000000  0.5164430000000 1.0
C      1  0.4052340000000  0.4815890000000  0.4871190000000 1.0
C      1  0.6328200000000  0.5033820000000  0.4505320000000 1.0
C      1  0.6321480000000  0.5149270000000  0.5187110000000 1.0
C      1  0.4333980000000  0.4933140000000  0.5758720000000 1.0
C      1  0.4234620000000  0.5042110000000  0.4295540000000 1.0
C      1  0.4143980000000  0.4544720000000  0.5283840000000 1.0
C      1  0.4154020000000  0.4598030000000  0.4710660000000 1.0
C      1  0.4382400000000  0.6067320000000  0.5244090000000 1.0
C      1  0.4406300000000  0.6056260000000  0.4942850000000 1.0
C      1  0.4220780000000  0.4319940000000  0.5112390000000 1.0
C      1  0.4263920000000  0.4351390000000  0.4836790000000 1.0
C      1  0.4594180000000  0.4245020000000  0.5955800000000 1.0
C      1  0.4924640000000  0.3826910000000  0.4167180000000 1.0
C      1  0.3838880000000  0.5565300000000  0.4859860000000 1.0
C      1  0.3866750000000  0.5490840000000  0.5372040000000 1.0
C      1  0.5648990000000  0.3949690000000  0.4737580000000 1.0
C      1  0.5540740000000  0.4090030000000  0.5332810000000 1.0
C      1  0.5929800000000  0.4356590000000  0.4609090000000 1.0
C      1  0.5826870000000  0.4678430000000  0.5613630000000 1.0
C      1  0.3973590000000  0.5736780000000  0.5399610000000 1.0
C      1  0.3931020000000  0.5821550000000  0.4837760000000 1.0
C      1  0.5268140000000  0.5692310000000  0.5567060000000 1.0
C      1  0.5266570000000  0.5672680000000  0.4470540000000 1.0
C      1  0.5328110000000  0.4860770000000  0.4667440000000 1.0
C      1  0.5225890000000  0.4933470000000  0.5131660000000 1.0
C      1  0.4775670000000  0.5673620000000  0.5140350000000 1.0
C      1  0.4997320000000  0.5571910000000  0.4988600000000 1.0
C      1  0.5015670000000  0.5080170000000  0.5673540000000 1.0
C      1  0.5388370000000  0.4992720000000  0.4420730000000 1.0
C      1  0.5706970000000  0.4989920000000  0.6063600000000 1.0
C      1  0.6154080000000  0.4661710000000  0.4212510000000 1.0
C      1  0.4659550000000  0.5874830000000  0.5587830000000 1.0
C      1  0.4692010000000  0.5817050000000  0.4529280000000 1.0
C      1  0.5273340000000  0.6149670000000  0.5373490000000 1.0
C      1  0.5311810000000  0.6107650000000  0.4675930000000 1.0
C      1  0.4854900000000  0.4696990000000  0.4323030000000 1.0
C      1  0.4642590000000  0.4856950000000  0.5253600000000 1.0
C      1  0.5434750000000  0.3645080000000  0.4463330000000 1.0
C      1  0.5025740000000  0.3999110000000  0.5519670000000 1.0
C      1  0.5012290000000  0.5557700000000  0.5547450000000 1.0
C      1  0.5078630000000  0.5465780000000  0.4397160000000 1.0
C      1  0.5519120000000  0.5039450000000  0.5635160000000 1.0
C      1  0.5863630000000  0.4832670000000  0.4546230000000 1.0
C      1  0.5072640000000  0.5151230000000  0.5191060000000 1.0
C      1  0.4958800000000  0.5290610000000  0.4975680000000 1.0
C      1  0.4214550000000  0.4572470000000  0.4425410000000 1.0
C      1  0.4237100000000  0.4485090000000  0.5559110000000 1.0
C      1  0.6181080000000  0.4440140000000  0.5381870000000 1.0
C      1  0.6250570000000  0.4269730000000  0.5197390000000 1.0
C      1  0.4648060000000  0.6025070000000  0.4752930000000 1.0
C      1  0.4568170000000  0.6116170000000  0.5460280000000 1.0
C      1  0.4523170000000  0.5554580000000  0.5074790000000 1.0
C      1  0.4396240000000  0.5591700000000  0.4831630000000 1.0
C      1  0.5037180000000  0.3695930000000  0.4796510000000 1.0
C      1  0.5038580000000  0.3664370000000  0.5089130000000 1.0
C      1  0.4847770000000  0.6003860000000  0.4101620000000 1.0
C      1  0.4958710000000  0.5896320000000  0.5979490000000 1.0
C      1  0.5184000000000  0.6231030000000  0.5134890000000 1.0
C      1  0.5116240000000  0.6201250000000  0.4866000000000 1.0
C      1  0.6842180000000  0.5123340000000  0.5254470000000 1.0
C      1  0.6218400000000  0.5562540000000  0.4517430000000 1.0
C      1  0.5690700000000  0.4879560000000  0.5415060000000 1.0
C      1  0.5835330000000  0.4599620000000  0.4729650000000 1.0
C      1  0.4375040000000  0.5192140000000  0.3391990000000 1.0
C      1  0.5072420000000  0.4830820000000  0.6243140000000 1.0
C      1  0.4458980000000  0.5316880000000  0.5213330000000 1.0
C      1  0.4252770000000  0.5591680000000  0.4608410000000 1.0
C      1  0.4322820000000  0.5299990000000  0.5452980000000 1.0
C      1  0.4077710000000  0.5445100000000  0.4469960000000 1.0
C      1  0.5576000000000  0.4737050000000  0.6055710000000 1.0
C      1  0.5915670000000  0.4508440000000  0.4156650000000 1.0
C      1  0.4421490000000  0.5297210000000  0.3868040000000 1.0
C      1  0.4661580000000  0.5122660000000  0.6164690000000 1.0
C      1  0.4405770000000  0.5277140000000  0.3142950000000 1.0
C      1  0.5357560000000  0.5602760000000  0.6076210000000 1.0
C      1  0.4631140000000  0.5340970000000  0.5772060000000 1.0
C      1  0.4576770000000  0.5423590000000  0.4287950000000 1.0
C      1  0.4623300000000  0.4657960000000  0.6194950000000 1.0
C      1  0.4256110000000  0.4864280000000  0.3732790000000 1.0
C      1  0.5600840000000  0.4569990000000  0.4901130000000 1.0
C      1  0.5550140000000  0.4642840000000  0.5187880000000 1.0
C      1  0.5644540000000  0.4878360000000  0.4342250000000 1.0
C      1  0.5252260000000  0.4969230000000  0.5655360000000 1.0
C      1  0.4506490000000  0.4516950000000  0.5982090000000 1.0
C      1  0.4195980000000  0.4718790000000  0.3949780000000 1.0
C      1  0.4422870000000  0.5213020000000  0.4154450000000 1.0
C      1  0.4522360000000  0.5101660000000  0.5899070000000 1.0
C      1  0.5359760000000  0.4209620000000  0.5992870000000 1.0
C      1  0.5470790000000  0.4165940000000  0.4113080000000 1.0
C      1  0.4751940000000  0.4934350000000  0.4389040000000 1.0
C      1  0.4571020000000  0.5081540000000  0.5099940000000 1.0
C      1  0.4444920000000  0.4092710000000  0.5773720000000 1.0
C      1  0.4981930000000  0.3609880000000  0.4318650000000 1.0
C      1  0.5080520000000  0.6092920000000  0.5811450000000 1.0
C      1  0.5035910000000  0.6114090000000  0.4283990000000 1.0
C      1  0.5662110000000  0.5393610000000  0.5377110000000 1.0
C      1  0.5608100000000  0.5395790000000  0.4768010000000 1.0
C      1  0.5225700000000  0.4243980000000  0.4236640000000 1.0
C      1  0.5042000000000  0.4282150000000  0.5528060000000 1.0
C      1  0.4691670000000  0.5736520000000  0.3706060000000 1.0
C      1  0.4938000000000  0.5540120000000  0.6313210000000 1.0
C      1  0.5272400000000  0.4678000000000  0.5255550000000 1.0
C      1  0.5373310000000  0.4573580000000  0.4694200000000 1.0
C      1  0.4934180000000  0.4518140000000  0.4522150000000 1.0
C      1  0.4798290000000  0.4625560000000  0.5253060000000 1.0
C      1  0.4502760000000  0.5667320000000  0.4128050000000 1.0
C      1  0.4613490000000  0.5555810000000  0.5965750000000 1.0
C      1  0.4202570000000  0.4769390000000  0.4226380000000 1.0
C      1  0.4345430000000  0.4645890000000  0.5773690000000 1.0
C      1  0.5437690000000  0.5738780000000  0.5146280000000 1.0
C      1  0.5262880000000  0.5665420000000  0.4942760000000 1.0
C      1  0.4818420000000  0.5718130000000  0.5413610000000 1.0
C      1  0.4796360000000  0.5528810000000  0.4461710000000 1.0
C      1  0.6101950000000  0.4615540000000  0.5584550000000 1.0
C      1  0.6286760000000  0.4726780000000  0.5752780000000 1.0
C      1  0.5317110000000  0.4736380000000  0.6177900000000 1.0
C      1  0.5688740000000  0.4688900000000  0.4127980000000 1.0
C      1  0.5681130000000  0.4075740000000  0.4282610000000 1.0
C      1  0.5556740000000  0.4303090000000  0.5814110000000 1.0
C      1  0.4708050000000  0.5411900000000  0.6209560000000 1.0
C      1  0.4506180000000  0.5577950000000  0.3850870000000 1.0
C      1  0.4140750000000  0.5939060000000  0.5341520000000 1.0
C      1  0.4139300000000  0.5999190000000  0.4832800000000 1.0
C      1  0.6057020000000  0.5147660000000  0.5175730000000 1.0
C      1  0.6574900000000  0.4942530000000  0.4580630000000 1.0
C      1  0.4189470000000  0.5066040000000  0.5547110000000 1.0
C      1  0.4072140000000  0.5164300000000  0.4496110000000 1.0
C      1  0.4621670000000  0.5897470000000  0.4248820000000 1.0
C      1  0.4699980000000  0.5809440000000  0.5871660000000 1.0
C      1  0.5405920000000  0.5589110000000  0.4707920000000 1.0
C      1  0.5479130000000  0.5608440000000  0.5391660000000 1.0
C      1  0.5608240000000  0.5170430000000  0.4947860000000 1.0
C      1  0.5763920000000  0.5141300000000  0.5219580000000 1.0
C      1  0.3876870000000  0.5287790000000  0.4935850000000 1.0
C      1  0.3876500000000  0.5247670000000  0.5221820000000 1.0
C      1  0.5198770000000  0.4375630000000  0.4518030000000 1.0
C      1  0.5047740000000  0.4545200000000  0.5385150000000 1.0
C      1  0.5626400000000  0.3859850000000  0.4470130000000 1.0
C      1  0.5609040000000  0.4154460000000  0.5581800000000 1.0
C      1  0.5875670000000  0.4281720000000  0.4337380000000 1.0
C      1  0.5662440000000  0.4567730000000  0.5835130000000 1.0
C      1  0.5367080000000  0.4100300000000  0.5117220000000 1.0
C      1  0.5422870000000  0.4067780000000  0.4846630000000 1.0
C      1  0.5621790000000  0.5178310000000  0.5869230000000 1.0
C      1  0.6128380000000  0.4853040000000  0.4425500000000 1.0
C      1  0.5236920000000  0.5960150000000  0.4436050000000 1.0
C      1  0.5247090000000  0.5984860000000  0.5603140000000 1.0
C      1  0.6584120000000  0.5139520000000  0.5221290000000 1.0
C      1  0.6272700000000  0.5307910000000  0.4505940000000 1.0
C      1  0.4920890000000  0.6320290000000  0.5736440000000 1.0
C      1  0.4909630000000  0.6311550000000  0.4459360000000 1.0
C      1  0.4318110000000  0.4200810000000  0.5550090000000 1.0
C      1  0.4357180000000  0.4323660000000  0.4390230000000 1.0
C      1  0.3985540000000  0.5076380000000  0.4759120000000 1.0
C      1  0.3996500000000  0.5008690000000  0.5335220000000 1.0
C      1  0.5088350000000  0.4146630000000  0.5119710000000 1.0
C      1  0.5188880000000  0.4126940000000  0.4685880000000 1.0
C      1  0.4842780000000  0.4165130000000  0.6058750000000 1.0
C      1  0.5002660000000  0.4084670000000  0.4150730000000 1.0
C      1  0.4860140000000  0.6228770000000  0.4734410000000 1.0
C      1  0.4707230000000  0.6339510000000  0.5566270000000 1.0
C      1  0.4437810000000  0.5364200000000  0.2899320000000 1.0
C      1  0.5527130000000  0.5428000000000  0.5962270000000 1.0
C      1  0.5102850000000  0.5705850000000  0.6146620000000 1.0
C      1  0.4849990000000  0.5925070000000  0.3828120000000 1.0
C      1  0.5213020000000  0.5210450000000  0.4346000000000 1.0
C      1  0.4889530000000  0.5323650000000  0.5653160000000 1.0
C      1  0.4597450000000  0.4029560000000  0.5185100000000 1.0
C      1  0.4671760000000  0.4040220000000  0.4662080000000 1.0
C      1  0.5160730000000  0.3591730000000  0.4542830000000 1.0
C      1  0.5029030000000  0.3776310000000  0.5346520000000 1.0
C      1  0.4431930000000  0.4196510000000  0.4641550000000 1.0
C      1  0.4349660000000  0.4121330000000  0.5276790000000 1.0
C      1  0.4697680000000  0.5061100000000  0.4616810000000 1.0
C      1  0.4736400000000  0.5146100000000  0.4875240000000 1.0
C      1  0.5388870000000  0.4993540000000  0.4907770000000 1.0
END
