TITL C-3623283-6828-610 77.624162386496 125000 -1113.91551659885 0 0 176 (C1) n - 1
REM
REM in /home/nfs/bkarasulu/CARBON/AIRSS/Generating-Clusters/LCBOP/Higher-Symm/SD-CG/FIRE-CG
REM
REM
REM
REM
REM
REM ./C.cell (b20cbc046b6831c77cfcea5457e17084)
REM AIRSS Version 0.9.1 bugfix July 2018 build 013d7b7c2542+ Fri, 06 Jul 2018 19:26:36 +0100
REM compiler GCC version 9.2.1 20190827 (Red Hat 9.2.1-1)
REM options -cpp -mtune=generic -march=x86-64 -g -O0 -fpre-include=/usr/include/finclude/math-vector-fortran.h
REM seed 1670843821 1509397125 -1892867408 -1218454715 -550668179 -333995026 -274743885 1183834401 695095840 1033350108 -1725871235 810127688 -1320624349 -1917142279 -1354181478 -533700860 -452921010 936997422 -559431105 -1593150837 -1947742916 -1883699376 1601388726 2002919652 1393436004 -742960430 -328693399 748646885 -1063347044 2045787461 -886273079 965039353 379275318
REM
CELL 1.54180   50.00000   50.00000   50.00000   90.00000   90.00000   90.00000
LATT -1
SFAC C  
C      1  0.4340040000000  0.5675950000000  0.4694980000000 1.0
C      1  0.5694690000000  0.4676080000000  0.4280510000000 1.0
C      1  0.4692780000000  0.4290540000000  0.5679130000000 1.0
C      1  0.5681870000000  0.4312710000000  0.4682300000000 1.0
C      1  0.4291270000000  0.4262770000000  0.5312890000000 1.0
C      1  0.5658950000000  0.5707280000000  0.5386650000000 1.0
C      1  0.4348080000000  0.5296330000000  0.4329920000000 1.0
C      1  0.5662150000000  0.5310910000000  0.5729740000000 1.0
C      1  0.4327980000000  0.4676840000000  0.5662480000000 1.0
C      1  0.5301260000000  0.5744750000000  0.5790220000000 1.0
C      1  0.4675190000000  0.5718340000000  0.4272440000000 1.0
C      1  0.5321320000000  0.4291020000000  0.4298020000000 1.0
C      1  0.4316130000000  0.5692270000000  0.5319130000000 1.0
C      1  0.5669280000000  0.4687140000000  0.5696810000000 1.0
C      1  0.4715650000000  0.4304870000000  0.4320610000000 1.0
C      1  0.5663350000000  0.4325120000000  0.5300610000000 1.0
C      1  0.4322590000000  0.4280340000000  0.4677270000000 1.0
C      1  0.5664580000000  0.5700810000000  0.4629380000000 1.0
C      1  0.4328410000000  0.5309600000000  0.5679460000000 1.0
C      1  0.5672560000000  0.5318990000000  0.4267760000000 1.0
C      1  0.4350280000000  0.4678510000000  0.4329340000000 1.0
C      1  0.5293140000000  0.5723910000000  0.4252460000000 1.0
C      1  0.4657890000000  0.5716050000000  0.5743550000000 1.0
C      1  0.5306090000000  0.4300310000000  0.5687460000000 1.0
C      1  0.5281650000000  0.5300730000000  0.6075430000000 1.0
C      1  0.5283130000000  0.6074480000000  0.5387010000000 1.0
C      1  0.5931490000000  0.5305650000000  0.5302320000000 1.0
C      1  0.4689050000000  0.4679690000000  0.6006950000000 1.0
C      1  0.5314590000000  0.4667650000000  0.3946390000000 1.0
C      1  0.4689530000000  0.5306790000000  0.3950820000000 1.0
C      1  0.4703970000000  0.3938160000000  0.5302550000000 1.0
C      1  0.5332210000000  0.3944090000000  0.4681490000000 1.0
C      1  0.4688900000000  0.6047900000000  0.4676080000000 1.0
C      1  0.4013840000000  0.4685520000000  0.5276530000000 1.0
C      1  0.6010990000000  0.4701770000000  0.4682300000000 1.0
C      1  0.3995090000000  0.5298540000000  0.4700790000000 1.0
C      1  0.5297240000000  0.5321020000000  0.3919080000000 1.0
C      1  0.5282410000000  0.6063670000000  0.4643410000000 1.0
C      1  0.5949950000000  0.5302160000000  0.4691420000000 1.0
C      1  0.4716460000000  0.4690570000000  0.3992290000000 1.0
C      1  0.5296500000000  0.4671390000000  0.6042280000000 1.0
C      1  0.4667530000000  0.5294670000000  0.6054990000000 1.0
C      1  0.4704640000000  0.3940500000000  0.4678250000000 1.0
C      1  0.5331850000000  0.3936680000000  0.5315140000000 1.0
C      1  0.4692550000000  0.6030540000000  0.5331300000000 1.0
C      1  0.4006760000000  0.4678620000000  0.4697490000000 1.0
C      1  0.5971050000000  0.4717850000000  0.5292380000000 1.0
C      1  0.3987290000000  0.5314980000000  0.5290660000000 1.0
C      1  0.5178330000000  0.3752940000000  0.5152060000000 1.0
C      1  0.3785200000000  0.5172800000000  0.5167020000000 1.0
C      1  0.5137620000000  0.5158570000000  0.3750590000000 1.0
C      1  0.4847720000000  0.6212680000000  0.5176460000000 1.0
C      1  0.5154190000000  0.6220120000000  0.4850640000000 1.0
C      1  0.4855340000000  0.3751090000000  0.4825120000000 1.0
C      1  0.6166530000000  0.4862430000000  0.5149020000000 1.0
C      1  0.3820590000000  0.4836940000000  0.4843650000000 1.0
C      1  0.6151750000000  0.5170900000000  0.4837770000000 1.0
C      1  0.4841920000000  0.4837950000000  0.3786590000000 1.0
C      1  0.5145600000000  0.4807730000000  0.6238750000000 1.0
C      1  0.4819910000000  0.5126720000000  0.6228090000000 1.0
C      1  0.5187270000000  0.3751850000000  0.4839750000000 1.0
C      1  0.3798890000000  0.5140780000000  0.4833750000000 1.0
C      1  0.5124190000000  0.5134780000000  0.6245700000000 1.0
C      1  0.4822070000000  0.6242930000000  0.4825910000000 1.0
C      1  0.5146480000000  0.6202990000000  0.5166020000000 1.0
C      1  0.4868230000000  0.3756690000000  0.5152630000000 1.0
C      1  0.6179690000000  0.4866940000000  0.4843510000000 1.0
C      1  0.3815110000000  0.4823630000000  0.5135610000000 1.0
C      1  0.6141740000000  0.5187520000000  0.5161300000000 1.0
C      1  0.4817910000000  0.4820480000000  0.6216550000000 1.0
C      1  0.5168760000000  0.4810440000000  0.3753360000000 1.0
C      1  0.4845610000000  0.5142870000000  0.3775670000000 1.0
C      1  0.4916470000000  0.5635280000000  0.5166580000000 1.0
C      1  0.5658370000000  0.4893860000000  0.4833000000000 1.0
C      1  0.5191020000000  0.4815450000000  0.5644880000000 1.0
C      1  0.5075110000000  0.4242700000000  0.5155700000000 1.0
C      1  0.4662080000000  0.4390550000000  0.4941140000000 1.0
C      1  0.5320180000000  0.5722790000000  0.4927600000000 1.0
C      1  0.4481630000000  0.4849650000000  0.4908110000000 1.0
C      1  0.5461510000000  0.4822440000000  0.5239140000000 1.0
C      1  0.4412700000000  0.5151230000000  0.5242480000000 1.0
C      1  0.4970450000000  0.5432080000000  0.5624070000000 1.0
C      1  0.5138930000000  0.5258710000000  0.4312750000000 1.0
C      1  0.4900190000000  0.4868870000000  0.4383960000000 1.0
C      1  0.4792100000000  0.5678430000000  0.4917010000000 1.0
C      1  0.5553080000000  0.5013380000000  0.5053880000000 1.0
C      1  0.5144310000000  0.4779220000000  0.4343410000000 1.0
C      1  0.5069720000000  0.4210590000000  0.4892710000000 1.0
C      1  0.4679000000000  0.4414710000000  0.5201570000000 1.0
C      1  0.5183490000000  0.5718810000000  0.5168570000000 1.0
C      1  0.4499550000000  0.4890000000000  0.5183110000000 1.0
C      1  0.5464240000000  0.4756640000000  0.4688640000000 1.0
C      1  0.4384900000000  0.5073120000000  0.4761450000000 1.0
C      1  0.4882460000000  0.5312600000000  0.4356380000000 1.0
C      1  0.5220720000000  0.5359830000000  0.5610100000000 1.0
C      1  0.4960790000000  0.4912580000000  0.5733060000000 1.0
C      1  0.5354520000000  0.4890740000000  0.4478870000000 1.0
C      1  0.4848600000000  0.4596810000000  0.5324130000000 1.0
C      1  0.4559100000000  0.5284850000000  0.4811290000000 1.0
C      1  0.4793720000000  0.5280420000000  0.4630750000000 1.0
C      1  0.5285220000000  0.5193800000000  0.5410880000000 1.0
C      1  0.4777920000000  0.5009510000000  0.5550980000000 1.0
C      1  0.5141040000000  0.5226870000000  0.5167050000000 1.0
C      1  0.4926990000000  0.5525060000000  0.4732470000000 1.0
C      1  0.5076640000000  0.4452090000000  0.4748400000000 1.0
C      1  0.5287270000000  0.4608890000000  0.4840670000000 1.0
C      1  0.4710420000000  0.4828370000000  0.5355260000000 1.0
C      1  0.5344790000000  0.5185550000000  0.4979030000000 1.0
C      1  0.5357640000000  0.4935240000000  0.5464270000000 1.0
C      1  0.4812420000000  0.4539590000000  0.4766110000000 1.0
C      1  0.4588940000000  0.5315300000000  0.5087760000000 1.0
C      1  0.4794160000000  0.5276840000000  0.5485300000000 1.0
C      1  0.5325480000000  0.5163950000000  0.4493990000000 1.0
C      1  0.4832140000000  0.4980040000000  0.4630050000000 1.0
C      1  0.5202490000000  0.5538140000000  0.4745600000000 1.0
C      1  0.4858910000000  0.5345030000000  0.5207560000000 1.0
C      1  0.5103190000000  0.4499620000000  0.5264130000000 1.0
C      1  0.5299320000000  0.4634130000000  0.5122480000000 1.0
C      1  0.4725740000000  0.4793870000000  0.4789380000000 1.0
C      1  0.5333640000000  0.5298180000000  0.4732090000000 1.0
C      1  0.4840850000000  0.4457510000000  0.5876300000000 1.0
C      1  0.4547890000000  0.5841070000000  0.4863760000000 1.0
C      1  0.5881400000000  0.4843150000000  0.4445720000000 1.0
C      1  0.5144110000000  0.5565830000000  0.5998150000000 1.0
C      1  0.4817280000000  0.5579520000000  0.4029810000000 1.0
C      1  0.5171420000000  0.4437620000000  0.4084400000000 1.0
C      1  0.5536950000000  0.4101700000000  0.4837250000000 1.0
C      1  0.4453870000000  0.4043620000000  0.5162010000000 1.0
C      1  0.5548790000000  0.5969530000000  0.5344510000000 1.0
C      1  0.4193080000000  0.5121510000000  0.4539710000000 1.0
C      1  0.5827550000000  0.5158170000000  0.5534180000000 1.0
C      1  0.4147110000000  0.4833250000000  0.5490820000000 1.0
C      1  0.4861530000000  0.4457630000000  0.4111220000000 1.0
C      1  0.4475010000000  0.5895270000000  0.5175780000000 1.0
C      1  0.5845890000000  0.4852790000000  0.5525800000000 1.0
C      1  0.5147680000000  0.5579560000000  0.4025590000000 1.0
C      1  0.4788500000000  0.5564800000000  0.5990530000000 1.0
C      1  0.5150850000000  0.4453090000000  0.5890490000000 1.0
C      1  0.5532380000000  0.4101720000000  0.5154350000000 1.0
C      1  0.4452530000000  0.4039000000000  0.4810300000000 1.0
C      1  0.5482820000000  0.5886330000000  0.4755290000000 1.0
C      1  0.4192140000000  0.5152680000000  0.5449820000000 1.0
C      1  0.5850630000000  0.5158150000000  0.4450450000000 1.0
C      1  0.4138850000000  0.4819470000000  0.4475100000000 1.0
C      1  0.4826080000000  0.5922880000000  0.4434300000000 1.0
C      1  0.5870700000000  0.4482150000000  0.4835160000000 1.0
C      1  0.4473260000000  0.4831660000000  0.5869800000000 1.0
C      1  0.5175330000000  0.4083150000000  0.4458920000000 1.0
C      1  0.4848290000000  0.4078250000000  0.5530750000000 1.0
C      1  0.5130160000000  0.5934940000000  0.5608110000000 1.0
C      1  0.4125110000000  0.5530710000000  0.4844880000000 1.0
C      1  0.5795520000000  0.5534110000000  0.5178790000000 1.0
C      1  0.4131740000000  0.4449960000000  0.5142670000000 1.0
C      1  0.5506950000000  0.5151740000000  0.5931980000000 1.0
C      1  0.4494980000000  0.5148230000000  0.4120370000000 1.0
C      1  0.5536540000000  0.4821620000000  0.4069160000000 1.0
C      1  0.4821030000000  0.5912720000000  0.5580160000000 1.0
C      1  0.5849940000000  0.4493040000000  0.5144430000000 1.0
C      1  0.4503430000000  0.4837920000000  0.4133990000000 1.0
C      1  0.5169640000000  0.4073850000000  0.5543360000000 1.0
C      1  0.4860000000000  0.4089900000000  0.4467030000000 1.0
C      1  0.5132410000000  0.5930580000000  0.4418710000000 1.0
C      1  0.4117060000000  0.5540980000000  0.5151990000000 1.0
C      1  0.5813660000000  0.5528490000000  0.4821540000000 1.0
C      1  0.4138060000000  0.4451110000000  0.4837620000000 1.0
C      1  0.5523770000000  0.5170610000000  0.4056940000000 1.0
C      1  0.4466600000000  0.5147200000000  0.5886570000000 1.0
C      1  0.5523080000000  0.4831090000000  0.5921820000000 1.0
C      1  0.4415120000000  0.5589280000000  0.5597330000000 1.0
C      1  0.5565730000000  0.5595780000000  0.4361320000000 1.0
C      1  0.5584240000000  0.4407070000000  0.4403700000000 1.0
C      1  0.4418410000000  0.4392970000000  0.5574300000000 1.0
C      1  0.5561700000000  0.4421670000000  0.5575170000000 1.0
C      1  0.4450760000000  0.4409100000000  0.4427480000000 1.0
C      1  0.4432790000000  0.5579420000000  0.4413950000000 1.0
C      1  0.5576250000000  0.5601200000000  0.5658770000000 1.0
END
