TITL C-3623289-7120-481 0.042442632402917 125000 -148.095988505059 0 0 26 (D2h) n - 1
REM
REM in /home/nfs/bkarasulu/CARBON/AIRSS/Generating-Clusters/LCBOP/Higher-Symm/SD-CG/FIRE-CG
REM
REM
REM
REM
REM
REM ./C.cell (b20cbc046b6831c77cfcea5457e17084)
REM AIRSS Version 0.9.1 bugfix July 2018 build 013d7b7c2542+ Fri, 06 Jul 2018 19:26:36 +0100
REM compiler GCC version 9.2.1 20190827 (Red Hat 9.2.1-1)
REM options -cpp -mtune=generic -march=x86-64 -g -O0 -fpre-include=/usr/include/finclude/math-vector-fortran.h
REM seed 1018062859 854665255 1225251734 -1503542322 1237464044 856768967 1166816379 1218104194 152742556 759683537 2140206635 -1428107145 -619215823 1820274896 -1622498464 -741829532 -893056525 -1006626587 -1130263305 -1224546371 -728057778 -722260040 764951204 -948083820 -1836450679 -1062334549 -1982159835 1960382980 1137219166 1842640067 925321120 712509126 -1062029605
REM
CELL 1.54180   50.00000   50.00000   50.00000   90.00000   90.00000   90.00000
LATT -1
SFAC C  
C      1  0.5277140000000  0.4981450000000  0.5651190000000 1.0
C      1  0.4722860000000  0.4982150000000  0.4348810000000 1.0
C      1  0.5277240000000  0.4981900000000  0.4348850000000 1.0
C      1  0.4722760000000  0.4981680000000  0.5651150000000 1.0
C      1  0.5446070000000  0.4981300000000  0.5873410000000 1.0
C      1  0.4553930000000  0.4982310000000  0.4126590000000 1.0
C      1  0.5446210000000  0.4981890000000  0.4126660000000 1.0
C      1  0.4553790000000  0.4981660000000  0.5873340000000 1.0
C      1  0.4236460000000  0.4982620000000  0.3707640000000 1.0
C      1  0.5763540000000  0.4981030000000  0.6292360000000 1.0
C      1  0.4236270000000  0.4981640000000  0.6292250000000 1.0
C      1  0.5763730000000  0.4981880000000  0.3707750000000 1.0
C      1  0.4567460000000  0.4981930000000  0.5132490000000 1.0
C      1  0.5432540000000  0.4981650000000  0.4867510000000 1.0
C      1  0.4567480000000  0.4982030000000  0.4867450000000 1.0
C      1  0.5432520000000  0.4981560000000  0.5132550000000 1.0
C      1  0.5384050000000  0.4981490000000  0.5393020000000 1.0
C      1  0.4615950000000  0.4982100000000  0.4606980000000 1.0
C      1  0.5384110000000  0.4981760000000  0.4607030000000 1.0
C      1  0.4615890000000  0.4981820000000  0.5392970000000 1.0
C      1  0.5606250000000  0.4981890000000  0.3915510000000 1.0
C      1  0.4393740000000  0.4981650000000  0.6084490000000 1.0
C      1  0.5606090000000  0.4981170000000  0.6084580000000 1.0
C      1  0.4393910000000  0.4982460000000  0.3915420000000 1.0
C      1  0.4999950000000  0.4981550000000  0.5685210000000 1.0
C      1  0.5000050000000  0.4982040000000  0.4314790000000 1.0
END
