TITL C-3623286-7563-715 13334.1495570186 125000 -1099.1548650373 0 0 178 (C1) n - 1
REM
REM in /home/nfs/bkarasulu/CARBON/AIRSS/Generating-Clusters/LCBOP/Higher-Symm/SD-CG/FIRE-CG
REM
REM
REM
REM
REM
REM ./C.cell (b20cbc046b6831c77cfcea5457e17084)
REM AIRSS Version 0.9.1 bugfix July 2018 build 013d7b7c2542+ Fri, 06 Jul 2018 19:26:36 +0100
REM compiler GCC version 9.2.1 20190827 (Red Hat 9.2.1-1)
REM options -cpp -mtune=generic -march=x86-64 -g -O0 -fpre-include=/usr/include/finclude/math-vector-fortran.h
REM seed -1334904338 -102189574 -874086341 1919879315 -192753820 1900101961 -1143015737 779791190 -1512423055 -512628046 1511506298 -1345783243 1439829426 -568175688 1468989550 1914980350 868938409 1261458051 -673514947 316088886 1189481731 1096161063 1452702815 301566137 763353400 -286667853 1471413958 2037088661 -2070072143 -207115493 -1290687941 -856026088 312829779
REM
CELL 1.54180   50.00000   50.00000   50.00000   90.00000   90.00000   90.00000
LATT -1
SFAC C  
C      1  0.4542770000000  0.5805140000000  0.5304700000000 1.0
C      1  0.5028270000000  0.4409630000000  0.5794610000000 1.0
C      1  0.5748610000000  0.5145690000000  0.4461810000000 1.0
C      1  0.5475880000000  0.4179610000000  0.5241750000000 1.0
C      1  0.5536160000000  0.5761350000000  0.4864500000000 1.0
C      1  0.4425210000000  0.4216440000000  0.4849230000000 1.0
C      1  0.4769260000000  0.5483990000000  0.5848580000000 1.0
C      1  0.4846930000000  0.4450730000000  0.4249930000000 1.0
C      1  0.5138670000000  0.5541980000000  0.4240960000000 1.0
C      1  0.4237280000000  0.4864110000000  0.4454340000000 1.0
C      1  0.4219380000000  0.5046470000000  0.5594110000000 1.0
C      1  0.5791750000000  0.4719090000000  0.5473480000000 1.0
C      1  0.6104600000000  0.4843630000000  0.5166490000000 1.0
C      1  0.5187040000000  0.6096260000000  0.4880900000000 1.0
C      1  0.4815040000000  0.5128990000000  0.6162370000000 1.0
C      1  0.3930470000000  0.5172840000000  0.5189550000000 1.0
C      1  0.3910640000000  0.4891880000000  0.4816000000000 1.0
C      1  0.6088530000000  0.5129420000000  0.4804070000000 1.0
C      1  0.4797640000000  0.3868880000000  0.4881010000000 1.0
C      1  0.4833680000000  0.6144050000000  0.5182610000000 1.0
C      1  0.5154290000000  0.3845810000000  0.5189030000000 1.0
C      1  0.5163170000000  0.4815440000000  0.6084680000000 1.0
C      1  0.5124400000000  0.5195670000000  0.3914520000000 1.0
C      1  0.4879080000000  0.4801950000000  0.3931800000000 1.0
C      1  0.6086980000000  0.4425990000000  0.4851590000000 1.0
C      1  0.4954450000000  0.6011310000000  0.4399720000000 1.0
C      1  0.4371340000000  0.4870030000000  0.6027600000000 1.0
C      1  0.3924670000000  0.5550750000000  0.4833810000000 1.0
C      1  0.3960060000000  0.4415490000000  0.5023770000000 1.0
C      1  0.6009280000000  0.5596960000000  0.5034120000000 1.0
C      1  0.5050490000000  0.3983320000000  0.4407680000000 1.0
C      1  0.5150470000000  0.6145970000000  0.5577110000000 1.0
C      1  0.4887240000000  0.3959150000000  0.5620560000000 1.0
C      1  0.5562820000000  0.5183050000000  0.6081080000000 1.0
C      1  0.5582600000000  0.4976660000000  0.3987970000000 1.0
C      1  0.4413710000000  0.5023160000000  0.3978010000000 1.0
C      1  0.6075940000000  0.4554540000000  0.5118120000000 1.0
C      1  0.5191010000000  0.6043890000000  0.4592690000000 1.0
C      1  0.4532820000000  0.5114220000000  0.6082410000000 1.0
C      1  0.3927430000000  0.5452670000000  0.5109970000000 1.0
C      1  0.3941210000000  0.4604200000000  0.4793080000000 1.0
C      1  0.6037850000000  0.5415040000000  0.4797800000000 1.0
C      1  0.4802650000000  0.3928790000000  0.4593690000000 1.0
C      1  0.4888900000000  0.6102270000000  0.5466490000000 1.0
C      1  0.5139820000000  0.3917500000000  0.5475190000000 1.0
C      1  0.5449580000000  0.4904550000000  0.6093280000000 1.0
C      1  0.5409280000000  0.5212850000000  0.3965030000000 1.0
C      1  0.4590690000000  0.4786600000000  0.3962360000000 1.0
C      1  0.3904890000000  0.5404950000000  0.4369860000000 1.0
C      1  0.4518000000000  0.3993130000000  0.5301240000000 1.0
C      1  0.5405490000000  0.4497700000000  0.3910170000000 1.0
C      1  0.6088240000000  0.4604890000000  0.4392160000000 1.0
C      1  0.6064010000000  0.5463180000000  0.5527720000000 1.0
C      1  0.3903250000000  0.4543080000000  0.5514160000000 1.0
C      1  0.5599230000000  0.6148250000000  0.5372070000000 1.0
C      1  0.5560460000000  0.3944970000000  0.4498500000000 1.0
C      1  0.4459870000000  0.6029260000000  0.4525960000000 1.0
C      1  0.4581600000000  0.5506260000000  0.3883910000000 1.0
C      1  0.4478860000000  0.4386040000000  0.6068730000000 1.0
C      1  0.5460430000000  0.5664870000000  0.6082060000000 1.0
C      1  0.4945720000000  0.4726080000000  0.5368190000000 1.0
C      1  0.5385780000000  0.4953740000000  0.4792010000000 1.0
C      1  0.4726480000000  0.5439510000000  0.5046380000000 1.0
C      1  0.5257260000000  0.5357350000000  0.5579470000000 1.0
C      1  0.5126240000000  0.4626620000000  0.4628750000000 1.0
C      1  0.4749510000000  0.5440670000000  0.4530830000000 1.0
C      1  0.4620360000000  0.5069280000000  0.4760560000000 1.0
C      1  0.4635900000000  0.4977660000000  0.5275850000000 1.0
C      1  0.5445120000000  0.5170720000000  0.5460410000000 1.0
C      1  0.5424790000000  0.4410940000000  0.4761660000000 1.0
C      1  0.5252120000000  0.5389810000000  0.5087060000000 1.0
C      1  0.4710110000000  0.4586100000000  0.5064360000000 1.0
C      1  0.4458090000000  0.4680020000000  0.4992770000000 1.0
C      1  0.4988050000000  0.4395380000000  0.4707760000000 1.0
C      1  0.4695200000000  0.4993920000000  0.4499240000000 1.0
C      1  0.5520150000000  0.5302690000000  0.5028510000000 1.0
C      1  0.5590230000000  0.4550290000000  0.4928240000000 1.0
C      1  0.4443330000000  0.5394680000000  0.5050270000000 1.0
C      1  0.4929150000000  0.5599570000000  0.4677850000000 1.0
C      1  0.5025410000000  0.4462840000000  0.5335410000000 1.0
C      1  0.5107540000000  0.5576370000000  0.5479720000000 1.0
C      1  0.5290190000000  0.5024230000000  0.4531730000000 1.0
C      1  0.5403960000000  0.4948170000000  0.5616890000000 1.0
C      1  0.4686050000000  0.5041000000000  0.5541250000000 1.0
C      1  0.4660990000000  0.4095730000000  0.5054970000000 1.0
C      1  0.5019000000000  0.4704930000000  0.4177810000000 1.0
C      1  0.4147930000000  0.5045630000000  0.4704520000000 1.0
C      1  0.5298220000000  0.5864010000000  0.5044760000000 1.0
C      1  0.5292990000000  0.4058760000000  0.5044410000000 1.0
C      1  0.4704820000000  0.5905840000000  0.5073880000000 1.0
C      1  0.4969530000000  0.5299720000000  0.4143790000000 1.0
C      1  0.5016160000000  0.4695270000000  0.5853120000000 1.0
C      1  0.4958410000000  0.5302840000000  0.5974410000000 1.0
C      1  0.5853500000000  0.4967830000000  0.4701830000000 1.0
C      1  0.5862260000000  0.4953510000000  0.5302660000000 1.0
C      1  0.4154210000000  0.5026010000000  0.5313510000000 1.0
C      1  0.5721640000000  0.4180390000000  0.4508050000000 1.0
C      1  0.4607210000000  0.5655360000000  0.4128400000000 1.0
C      1  0.4149480000000  0.4562530000000  0.5654930000000 1.0
C      1  0.4309000000000  0.5790510000000  0.4523900000000 1.0
C      1  0.4301000000000  0.4177850000000  0.5353880000000 1.0
C      1  0.5703050000000  0.5879870000000  0.5363800000000 1.0
C      1  0.5382710000000  0.4353700000000  0.4158720000000 1.0
C      1  0.5472370000000  0.5803570000000  0.5833470000000 1.0
C      1  0.4540380000000  0.4285760000000  0.5809840000000 1.0
C      1  0.5832410000000  0.5488590000000  0.5688210000000 1.0
C      1  0.5820600000000  0.4639030000000  0.4293650000000 1.0
C      1  0.4173030000000  0.5366280000000  0.4274780000000 1.0
C      1  0.5212830000000  0.4236700000000  0.4833840000000 1.0
C      1  0.4794460000000  0.5218840000000  0.4354570000000 1.0
C      1  0.4378700000000  0.4891270000000  0.5170860000000 1.0
C      1  0.4818010000000  0.5684110000000  0.4925610000000 1.0
C      1  0.4829670000000  0.4349940000000  0.5147250000000 1.0
C      1  0.5191920000000  0.5645840000000  0.5210640000000 1.0
C      1  0.5149510000000  0.4805520000000  0.4414330000000 1.0
C      1  0.5169610000000  0.5221680000000  0.5804140000000 1.0
C      1  0.4892140000000  0.4844800000000  0.5622840000000 1.0
C      1  0.5641260000000  0.5151860000000  0.5248360000000 1.0
C      1  0.5636580000000  0.4820210000000  0.4837870000000 1.0
C      1  0.4369530000000  0.5191490000000  0.4845050000000 1.0
C      1  0.5305190000000  0.3860160000000  0.4466660000000 1.0
C      1  0.4488910000000  0.5257110000000  0.3831310000000 1.0
C      1  0.3823240000000  0.4484960000000  0.5263760000000 1.0
C      1  0.4704840000000  0.6128690000000  0.4476970000000 1.0
C      1  0.4659430000000  0.3847280000000  0.5493360000000 1.0
C      1  0.5361940000000  0.6265930000000  0.5429200000000 1.0
C      1  0.5505300000000  0.4740950000000  0.3847420000000 1.0
C      1  0.5459210000000  0.5421080000000  0.6200950000000 1.0
C      1  0.4426110000000  0.4630350000000  0.6168290000000 1.0
C      1  0.6139660000000  0.5519840000000  0.5275870000000 1.0
C      1  0.6210770000000  0.4558200000000  0.4629380000000 1.0
C      1  0.3787800000000  0.5439400000000  0.4612210000000 1.0
C      1  0.4078240000000  0.5616100000000  0.5282960000000 1.0
C      1  0.5333020000000  0.4142070000000  0.5491780000000 1.0
C      1  0.5410850000000  0.5396720000000  0.4194740000000 1.0
C      1  0.5860220000000  0.4490330000000  0.5308280000000 1.0
C      1  0.5809370000000  0.5418580000000  0.4616820000000 1.0
C      1  0.4160740000000  0.4589740000000  0.4599300000000 1.0
C      1  0.4721130000000  0.5865590000000  0.5529720000000 1.0
C      1  0.4597010000000  0.4143860000000  0.4583420000000 1.0
C      1  0.5374890000000  0.5812840000000  0.4590980000000 1.0
C      1  0.4575240000000  0.4600660000000  0.4189300000000 1.0
C      1  0.4519500000000  0.5332460000000  0.5875290000000 1.0
C      1  0.5618920000000  0.4718380000000  0.5953510000000 1.0
C      1  0.4353180000000  0.5604590000000  0.5239030000000 1.0
C      1  0.5176380000000  0.4366220000000  0.5553320000000 1.0
C      1  0.5458300000000  0.5213930000000  0.4413590000000 1.0
C      1  0.5638680000000  0.4396450000000  0.5167690000000 1.0
C      1  0.5595600000000  0.5468480000000  0.4807300000000 1.0
C      1  0.4378060000000  0.4511490000000  0.4774320000000 1.0
C      1  0.4865470000000  0.5644400000000  0.5632140000000 1.0
C      1  0.4769980000000  0.4364470000000  0.4530200000000 1.0
C      1  0.5182030000000  0.5602860000000  0.4538690000000 1.0
C      1  0.4526720000000  0.4787760000000  0.4407250000000 1.0
C      1  0.4463170000000  0.5186600000000  0.5642070000000 1.0
C      1  0.5603750000000  0.4756180000000  0.5675830000000 1.0
C      1  0.4908410000000  0.5773090000000  0.4202760000000 1.0
C      1  0.4215490000000  0.4821370000000  0.5776650000000 1.0
C      1  0.5906560000000  0.4228550000000  0.4727890000000 1.0
C      1  0.5094240000000  0.4233430000000  0.4225820000000 1.0
C      1  0.5258910000000  0.5983550000000  0.5782350000000 1.0
C      1  0.4817930000000  0.4203170000000  0.5776850000000 1.0
C      1  0.5754020000000  0.5280620000000  0.5875670000000 1.0
C      1  0.5759150000000  0.4923430000000  0.4225030000000 1.0
C      1  0.4231580000000  0.5081120000000  0.4212960000000 1.0
C      1  0.4131140000000  0.5728460000000  0.4737760000000 1.0
C      1  0.4185370000000  0.4221840000000  0.5074110000000 1.0
C      1  0.5776660000000  0.5788950000000  0.5083350000000 1.0
C      1  0.5011430000000  0.6269840000000  0.5010050000000 1.0
C      1  0.4981020000000  0.4931170000000  0.6270180000000 1.0
C      1  0.4970560000000  0.3707550000000  0.5030650000000 1.0
C      1  0.5006780000000  0.4989120000000  0.3772110000000 1.0
C      1  0.6247620000000  0.5007040000000  0.4994910000000 1.0
C      1  0.3770910000000  0.5010320000000  0.5025310000000 1.0
C      1  0.5670020000000  0.5726480000000  0.5625850000000 1.0
C      1  0.4333270000000  0.4338140000000  0.5603280000000 1.0
C      1  0.4363590000000  0.5602790000000  0.4305350000000 1.0
C      1  0.5638020000000  0.4395260000000  0.4320410000000 1.0
END
