TITL C-3623289-7120-722 -8742.46610251973 125000 -1020.40896531985 0 0 167 (C1) n - 1
REM
REM in /home/nfs/bkarasulu/CARBON/AIRSS/Generating-Clusters/LCBOP/Higher-Symm/SD-CG/FIRE-CG
REM
REM
REM
REM
REM
REM ./C.cell (b20cbc046b6831c77cfcea5457e17084)
REM AIRSS Version 0.9.1 bugfix July 2018 build 013d7b7c2542+ Fri, 06 Jul 2018 19:26:36 +0100
REM compiler GCC version 9.2.1 20190827 (Red Hat 9.2.1-1)
REM options -cpp -mtune=generic -march=x86-64 -g -O0 -fpre-include=/usr/include/finclude/math-vector-fortran.h
REM seed 89787044 172011467 249676357 -269571861 -1815212816 -842287206 1090067317 -921232320 1883590630 -1611358162 207935924 -1872215378 828615860 1554433612 1668716929 797838722 905873563 2026295700 -1557555517 1159284460 2054300804 -573353775 333986247 1099970973 -126315374 1923763909 1308626377 -746633237 -1149498435 -1995313567 1339566355 -1409539876 1712419360
REM
CELL 1.54180   50.00000   50.00000   50.00000   90.00000   90.00000   90.00000
LATT -1
SFAC C  
C      1  0.4988090000000  0.5308570000000  0.4692980000000 1.0
C      1  0.4673250000000  0.5016820000000  0.5302740000000 1.0
C      1  0.5248300000000  0.4526940000000  0.4876380000000 1.0
C      1  0.4973660000000  0.4703940000000  0.5303230000000 1.0
C      1  0.5091520000000  0.4791600000000  0.4801830000000 1.0
C      1  0.5258580000000  0.5421520000000  0.5351510000000 1.0
C      1  0.4537800000000  0.5129910000000  0.4743920000000 1.0
C      1  0.5314120000000  0.4941620000000  0.5166690000000 1.0
C      1  0.5334330000000  0.4944830000000  0.4694770000000 1.0
C      1  0.5356990000000  0.5401650000000  0.5090530000000 1.0
C      1  0.4837570000000  0.5206820000000  0.4931110000000 1.0
C      1  0.4676740000000  0.4637420000000  0.4972910000000 1.0
C      1  0.5883800000000  0.4466930000000  0.5412410000000 1.0
C      1  0.5453290000000  0.5914040000000  0.4475690000000 1.0
C      1  0.4391040000000  0.5429030000000  0.5931890000000 1.0
C      1  0.5882850000000  0.5503810000000  0.4532220000000 1.0
C      1  0.4089890000000  0.5518850000000  0.5429470000000 1.0
C      1  0.4089830000000  0.4465200000000  0.4551220000000 1.0
C      1  0.5441670000000  0.4099260000000  0.5539950000000 1.0
C      1  0.4565730000000  0.4097140000000  0.4465920000000 1.0
C      1  0.4527130000000  0.5856670000000  0.5520390000000 1.0
C      1  0.4489900000000  0.4571090000000  0.4158950000000 1.0
C      1  0.5498130000000  0.4617610000000  0.5836630000000 1.0
C      1  0.5507310000000  0.5446230000000  0.4100190000000 1.0
C      1  0.5802690000000  0.4991700000000  0.4559420000000 1.0
C      1  0.4611710000000  0.5711770000000  0.5039400000000 1.0
C      1  0.5023380000000  0.4641120000000  0.5769630000000 1.0
C      1  0.5774960000000  0.4946820000000  0.5381680000000 1.0
C      1  0.4103340000000  0.4979960000000  0.4551620000000 1.0
C      1  0.4207560000000  0.5043430000000  0.5371990000000 1.0
C      1  0.4614790000000  0.4183330000000  0.4952090000000 1.0
C      1  0.5446410000000  0.4108970000000  0.5033130000000 1.0
C      1  0.5434900000000  0.5878250000000  0.4987600000000 1.0
C      1  0.5012690000000  0.5413450000000  0.4216930000000 1.0
C      1  0.4914200000000  0.5442990000000  0.5892350000000 1.0
C      1  0.4968230000000  0.4603700000000  0.4283290000000 1.0
C      1  0.5789070000000  0.5708210000000  0.5391160000000 1.0
C      1  0.5385310000000  0.5838780000000  0.5727750000000 1.0
C      1  0.5672090000000  0.5414230000000  0.5798890000000 1.0
C      1  0.5817290000000  0.4252250000000  0.4565060000000 1.0
C      1  0.4211540000000  0.4300740000000  0.5377770000000 1.0
C      1  0.4199290000000  0.5730900000000  0.4606550000000 1.0
C      1  0.5395910000000  0.4174270000000  0.4269400000000 1.0
C      1  0.4610810000000  0.4222150000000  0.5695020000000 1.0
C      1  0.4612440000000  0.5819050000000  0.4306180000000 1.0
C      1  0.5699680000000  0.4586260000000  0.4158740000000 1.0
C      1  0.4281080000000  0.4607350000000  0.5784130000000 1.0
C      1  0.4283170000000  0.5416710000000  0.4197700000000 1.0
C      1  0.4181030000000  0.4558070000000  0.5514410000000 1.0
C      1  0.5562330000000  0.4110940000000  0.4511900000000 1.0
C      1  0.4538990000000  0.5562240000000  0.4182440000000 1.0
C      1  0.4129780000000  0.5490050000000  0.4439520000000 1.0
C      1  0.5796370000000  0.5451910000000  0.5538060000000 1.0
C      1  0.5841180000000  0.4506270000000  0.4407560000000 1.0
C      1  0.5559980000000  0.5878980000000  0.5479140000000 1.0
C      1  0.4476580000000  0.5818160000000  0.4566290000000 1.0
C      1  0.4475690000000  0.4188950000000  0.5436110000000 1.0
C      1  0.4547070000000  0.4484840000000  0.5806810000000 1.0
C      1  0.5439760000000  0.4447280000000  0.4171850000000 1.0
C      1  0.5430190000000  0.5576220000000  0.5854230000000 1.0
C      1  0.5366560000000  0.5891340000000  0.5264490000000 1.0
C      1  0.5190300000000  0.5415480000000  0.5832790000000 1.0
C      1  0.5762450000000  0.5227620000000  0.5363490000000 1.0
C      1  0.5394920000000  0.4102360000000  0.4745230000000 1.0
C      1  0.4657430000000  0.4243030000000  0.5226540000000 1.0
C      1  0.4653230000000  0.5721910000000  0.4765250000000 1.0
C      1  0.5244270000000  0.4625500000000  0.4269850000000 1.0
C      1  0.4746290000000  0.4672980000000  0.5739280000000 1.0
C      1  0.4735830000000  0.5375550000000  0.4264420000000 1.0
C      1  0.5774950000000  0.4710840000000  0.4594840000000 1.0
C      1  0.4254520000000  0.4767080000000  0.5339220000000 1.0
C      1  0.4108300000000  0.5263500000000  0.4614310000000 1.0
C      1  0.5208600000000  0.3749270000000  0.5195890000000 1.0
C      1  0.5125490000000  0.5233950000000  0.3799530000000 1.0
C      1  0.3775710000000  0.5136540000000  0.5205000000000 1.0
C      1  0.5195960000000  0.6234750000000  0.4823600000000 1.0
C      1  0.4745060000000  0.6159840000000  0.5125030000000 1.0
C      1  0.4787010000000  0.3765990000000  0.4849990000000 1.0
C      1  0.5142230000000  0.4783720000000  0.6200640000000 1.0
C      1  0.4859450000000  0.4766590000000  0.3847910000000 1.0
C      1  0.4797840000000  0.5195170000000  0.6274730000000 1.0
C      1  0.3737500000000  0.4808860000000  0.4772860000000 1.0
C      1  0.6198010000000  0.4838450000000  0.5197180000000 1.0
C      1  0.6209680000000  0.5128820000000  0.4738550000000 1.0
C      1  0.5693710000000  0.4885610000000  0.4073890000000 1.0
C      1  0.4097310000000  0.5742870000000  0.4893160000000 1.0
C      1  0.4895090000000  0.4125260000000  0.5712120000000 1.0
C      1  0.5668180000000  0.5134620000000  0.5883720000000 1.0
C      1  0.4301890000000  0.5117020000000  0.4124640000000 1.0
C      1  0.4240420000000  0.4879010000000  0.5902000000000 1.0
C      1  0.4109200000000  0.4287820000000  0.5096320000000 1.0
C      1  0.5911560000000  0.4260190000000  0.4861240000000 1.0
C      1  0.5880900000000  0.5694880000000  0.5091360000000 1.0
C      1  0.4903430000000  0.5905910000000  0.4306100000000 1.0
C      1  0.5078430000000  0.5918630000000  0.5725740000000 1.0
C      1  0.5107940000000  0.4079290000000  0.4257020000000 1.0
C      1  0.4720010000000  0.5413860000000  0.6105100000000 1.0
C      1  0.5995350000000  0.4757550000000  0.5392760000000 1.0
C      1  0.5434810000000  0.6062210000000  0.4757510000000 1.0
C      1  0.4780690000000  0.4585160000000  0.4062430000000 1.0
C      1  0.5223200000000  0.4621590000000  0.5973490000000 1.0
C      1  0.5206960000000  0.5435860000000  0.3998070000000 1.0
C      1  0.6005690000000  0.5207650000000  0.4536530000000 1.0
C      1  0.3984900000000  0.5227080000000  0.5387390000000 1.0
C      1  0.3928790000000  0.4741130000000  0.4554040000000 1.0
C      1  0.5430080000000  0.3934670000000  0.5269340000000 1.0
C      1  0.4596650000000  0.3970180000000  0.4755250000000 1.0
C      1  0.4568130000000  0.5941310000000  0.5219010000000 1.0
C      1  0.4924660000000  0.4310700000000  0.4624990000000 1.0
C      1  0.4668600000000  0.4921080000000  0.4380040000000 1.0
C      1  0.4255210000000  0.4694830000000  0.4891420000000 1.0
C      1  0.4897070000000  0.5658800000000  0.5372410000000 1.0
C      1  0.5125930000000  0.5719330000000  0.4692740000000 1.0
C      1  0.5113210000000  0.4293310000000  0.5322350000000 1.0
C      1  0.4604590000000  0.5114130000000  0.5720990000000 1.0
C      1  0.5319310000000  0.5092980000000  0.4288520000000 1.0
C      1  0.5299670000000  0.4988530000000  0.5609040000000 1.0
C      1  0.4331450000000  0.5376730000000  0.5077870000000 1.0
C      1  0.5720360000000  0.5288220000000  0.4884610000000 1.0
C      1  0.5679750000000  0.4628130000000  0.5048860000000 1.0
C      1  0.5614570000000  0.5295450000000  0.5133410000000 1.0
C      1  0.5169020000000  0.5694610000000  0.5348010000000 1.0
C      1  0.5236060000000  0.5261700000000  0.5583960000000 1.0
C      1  0.5588880000000  0.4618830000000  0.4794340000000 1.0
C      1  0.4425610000000  0.4697310000000  0.5112160000000 1.0
C      1  0.4324120000000  0.5312760000000  0.4812250000000 1.0
C      1  0.5188080000000  0.4305940000000  0.4698080000000 1.0
C      1  0.4874830000000  0.4429160000000  0.5290100000000 1.0
C      1  0.4888320000000  0.5582020000000  0.4694530000000 1.0
C      1  0.5330730000000  0.4849250000000  0.4417090000000 1.0
C      1  0.4675520000000  0.4895990000000  0.5568110000000 1.0
C      1  0.4649200000000  0.5184320000000  0.4467330000000 1.0
C      1  0.4872630000000  0.4762730000000  0.4505520000000 1.0
C      1  0.4343840000000  0.4883490000000  0.4699690000000 1.0
C      1  0.4736310000000  0.4408080000000  0.4815300000000 1.0
C      1  0.4762990000000  0.5337880000000  0.5676970000000 1.0
C      1  0.5137220000000  0.5268870000000  0.4434820000000 1.0
C      1  0.5124170000000  0.4776570000000  0.5536840000000 1.0
C      1  0.4437010000000  0.5174420000000  0.5251770000000 1.0
C      1  0.5583880000000  0.5101330000000  0.4718990000000 1.0
C      1  0.5568280000000  0.4827420000000  0.5216000000000 1.0
C      1  0.4775560000000  0.5503970000000  0.5154990000000 1.0
C      1  0.5315600000000  0.5626040000000  0.4897010000000 1.0
C      1  0.5303310000000  0.4354470000000  0.5123650000000 1.0
C      1  0.5526690000000  0.4908890000000  0.5776950000000 1.0
C      1  0.5850660000000  0.5540940000000  0.4829780000000 1.0
C      1  0.4813900000000  0.5826540000000  0.5596710000000 1.0
C      1  0.5553260000000  0.5148680000000  0.4129960000000 1.0
C      1  0.4367010000000  0.5140720000000  0.5874000000000 1.0
C      1  0.4443010000000  0.4862820000000  0.4202250000000 1.0
C      1  0.5849380000000  0.4405170000000  0.5118390000000 1.0
C      1  0.4133300000000  0.4438140000000  0.4846500000000 1.0
C      1  0.4154770000000  0.5595630000000  0.5144400000000 1.0
C      1  0.4857050000000  0.4144870000000  0.4399130000000 1.0
C      1  0.5150320000000  0.4157860000000  0.5571120000000 1.0
C      1  0.5162710000000  0.5860450000000  0.4444240000000 1.0
C      1  0.4993900000000  0.3717830000000  0.5025560000000 1.0
C      1  0.4990670000000  0.4996150000000  0.3778200000000 1.0
C      1  0.3714010000000  0.4970460000000  0.4994950000000 1.0
C      1  0.4962070000000  0.6235670000000  0.4972140000000 1.0
C      1  0.4970250000000  0.4981560000000  0.6281420000000 1.0
C      1  0.6246620000000  0.4983290000000  0.4969000000000 1.0
C      1  0.5632240000000  0.4380610000000  0.5615340000000 1.0
C      1  0.5638690000000  0.5640390000000  0.4352520000000 1.0
C      1  0.4313910000000  0.5624390000000  0.5646960000000 1.0
C      1  0.4361780000000  0.4361350000000  0.4369910000000 1.0
C      1  0.4965420000000  0.4956770000000  0.5071840000000 1.0
END
