TITL C-3623282-6910-1430 -1.08127339495493e-06 125000 -618.537185007341 0 0 105 (C1) n - 1
REM
REM in /home/nfs/bkarasulu/CARBON/AIRSS/Generating-Clusters/LCBOP/Higher-Symm/SD-CG/FIRE-CG
REM
REM
REM
REM
REM
REM ./C.cell (b20cbc046b6831c77cfcea5457e17084)
REM AIRSS Version 0.9.1 bugfix July 2018 build 013d7b7c2542+ Fri, 06 Jul 2018 19:26:36 +0100
REM compiler GCC version 9.2.1 20190827 (Red Hat 9.2.1-1)
REM options -cpp -mtune=generic -march=x86-64 -g -O0 -fpre-include=/usr/include/finclude/math-vector-fortran.h
REM seed -945158028 -264814699 926153538 -1968386862 -608951009 -344339066 -1509847998 -932183752 1374255807 -502956483 985040972 -318338016 1152605006 -133861581 1269024169 -1204374534 -679163852 -1610411290 -890806968 2055481452 -1245053296 -930290476 49756281 -1459462103 -1658123029 -1673252410 1147379451 998669973 -1406987352 647062863 874682470 -287554566 -1903746701
REM
CELL 1.54180   50.00000   50.00000   50.00000   90.00000   90.00000   90.00000
LATT -1
SFAC C  
C      1  0.4241010000000  0.5307180000000  0.4809380000000 1.0
C      1  0.4606230000000  0.4676720000000  0.4382710000000 1.0
C      1  0.5162610000000  0.5296700000000  0.4261140000000 1.0
C      1  0.5694000000000  0.4720020000000  0.4579970000000 1.0
C      1  0.5759030000000  0.5275560000000  0.5196650000000 1.0
C      1  0.5378520000000  0.4651710000000  0.5622430000000 1.0
C      1  0.4822740000000  0.5275640000000  0.5729470000000 1.0
C      1  0.4278200000000  0.4736000000000  0.5415120000000 1.0
C      1  0.4121140000000  0.4451640000000  0.5778640000000 1.0
C      1  0.3951830000000  0.5691590000000  0.4887370000000 1.0
C      1  0.4277570000000  0.4361520000000  0.4205660000000 1.0
C      1  0.5021000000000  0.5604510000000  0.3910730000000 1.0
C      1  0.5823290000000  0.4381910000000  0.4252530000000 1.0
C      1  0.6086840000000  0.5619170000000  0.5088050000000 1.0
C      1  0.5720230000000  0.4351430000000  0.5792440000000 1.0
C      1  0.4953330000000  0.5563970000000  0.6101020000000 1.0
C      1  0.5188790000000  0.5658030000000  0.5455220000000 1.0
C      1  0.4734420000000  0.4304910000000  0.5520760000000 1.0
C      1  0.4539720000000  0.5708490000000  0.5210840000000 1.0
C      1  0.4547060000000  0.4321730000000  0.4836440000000 1.0
C      1  0.4781410000000  0.5677030000000  0.4557880000000 1.0
C      1  0.5197370000000  0.4294430000000  0.4501330000000 1.0
C      1  0.5483240000000  0.5689160000000  0.4790370000000 1.0
C      1  0.5595090000000  0.4306510000000  0.5125690000000 1.0
C      1  0.4972930000000  0.5486580000000  0.4154310000000 1.0
C      1  0.5627020000000  0.4526660000000  0.4378240000000 1.0
C      1  0.5863080000000  0.5475990000000  0.5019510000000 1.0
C      1  0.5612370000000  0.4492410000000  0.5583500000000 1.0
C      1  0.5003810000000  0.5460730000000  0.5852400000000 1.0
C      1  0.4329040000000  0.4561030000000  0.5636840000000 1.0
C      1  0.4149790000000  0.5521970000000  0.4969270000000 1.0
C      1  0.4398400000000  0.4487150000000  0.4415850000000 1.0
C      1  0.5140330000000  0.4419380000000  0.4779760000000 1.0
C      1  0.5250400000000  0.5549120000000  0.4915690000000 1.0
C      1  0.5340230000000  0.4396440000000  0.5021330000000 1.0
C      1  0.5060020000000  0.5520310000000  0.5230730000000 1.0
C      1  0.4786260000000  0.4416780000000  0.5255970000000 1.0
C      1  0.4775200000000  0.5553610000000  0.5088400000000 1.0
C      1  0.4820370000000  0.4439620000000  0.4937630000000 1.0
C      1  0.4915720000000  0.5537000000000  0.4783760000000 1.0
C      1  0.5366540000000  0.5276680000000  0.4919220000000 1.0
C      1  0.5331040000000  0.4663510000000  0.5140220000000 1.0
C      1  0.5068110000000  0.5217700000000  0.5274460000000 1.0
C      1  0.4742930000000  0.4689790000000  0.5318050000000 1.0
C      1  0.4634670000000  0.5289280000000  0.5089840000000 1.0
C      1  0.4755130000000  0.4764380000000  0.4886430000000 1.0
C      1  0.4923950000000  0.5248300000000  0.4701600000000 1.0
C      1  0.5211860000000  0.4701110000000  0.4688390000000 1.0
C      1  0.5343150000000  0.4481010000000  0.4304730000000 1.0
C      1  0.5732070000000  0.5531240000000  0.4764650000000 1.0
C      1  0.5738150000000  0.4476860000000  0.5320060000000 1.0
C      1  0.5244970000000  0.5538700000000  0.5709230000000 1.0
C      1  0.4606250000000  0.4494960000000  0.5713620000000 1.0
C      1  0.4278260000000  0.5556050000000  0.5228600000000 1.0
C      1  0.4320860000000  0.4431280000000  0.4691280000000 1.0
C      1  0.4726070000000  0.5559550000000  0.4299810000000 1.0
C      1  0.5866730000000  0.5192040000000  0.5448060000000 1.0
C      1  0.5281630000000  0.4839160000000  0.5825110000000 1.0
C      1  0.4558350000000  0.5197130000000  0.5822240000000 1.0
C      1  0.4042200000000  0.4832720000000  0.5282230000000 1.0
C      1  0.4146870000000  0.5141490000000  0.4590100000000 1.0
C      1  0.4695830000000  0.4850330000000  0.4164270000000 1.0
C      1  0.5421740000000  0.5200160000000  0.4167120000000 1.0
C      1  0.5928510000000  0.4840120000000  0.4702540000000 1.0
C      1  0.4501320000000  0.5171910000000  0.4859520000000 1.0
C      1  0.4757220000000  0.4812130000000  0.4603550000000 1.0
C      1  0.5124780000000  0.5144390000000  0.4515730000000 1.0
C      1  0.5467420000000  0.4843450000000  0.4723690000000 1.0
C      1  0.5506790000000  0.5128840000000  0.5140380000000 1.0
C      1  0.5227980000000  0.4766780000000  0.5385370000000 1.0
C      1  0.4870410000000  0.5121380000000  0.5477700000000 1.0
C      1  0.4502910000000  0.4852730000000  0.5260750000000 1.0
C      1  0.5751510000000  0.5341130000000  0.5668730000000 1.0
C      1  0.5022420000000  0.4757370000000  0.5929740000000 1.0
C      1  0.4334980000000  0.5308490000000  0.5678050000000 1.0
C      1  0.3977400000000  0.4663950000000  0.5050750000000 1.0
C      1  0.4223690000000  0.5298570000000  0.4349250000000 1.0
C      1  0.4949790000000  0.4756190000000  0.4059900000000 1.0
C      1  0.5649340000000  0.5313870000000  0.4301870000000 1.0
C      1  0.5995060000000  0.4742720000000  0.4966490000000 1.0
C      1  0.4478560000000  0.4880850000000  0.4960200000000 1.0
C      1  0.4670140000000  0.5114200000000  0.4599420000000 1.0
C      1  0.5040200000000  0.4849930000000  0.4526650000000 1.0
C      1  0.5374610000000  0.5128130000000  0.4677020000000 1.0
C      1  0.5504570000000  0.4850160000000  0.5016390000000 1.0
C      1  0.5323520000000  0.5074740000000  0.5379940000000 1.0
C      1  0.4942020000000  0.4823640000000  0.5454150000000 1.0
C      1  0.4615570000000  0.5128330000000  0.5320240000000 1.0
C      1  0.5920620000000  0.4696950000000  0.5243250000000 1.0
C      1  0.5472920000000  0.5355790000000  0.5739800000000 1.0
C      1  0.4737200000000  0.4705110000000  0.5884480000000 1.0
C      1  0.4195350000000  0.5346770000000  0.5426960000000 1.0
C      1  0.4109630000000  0.4616680000000  0.4793110000000 1.0
C      1  0.4495220000000  0.5373160000000  0.4257200000000 1.0
C      1  0.5229860000000  0.4698160000000  0.4123530000000 1.0
C      1  0.5798000000000  0.5341370000000  0.4547560000000 1.0
C      1  0.5957740000000  0.4919180000000  0.5428940000000 1.0
C      1  0.5357220000000  0.5097690000000  0.5690830000000 1.0
C      1  0.4567140000000  0.4935490000000  0.5937540000000 1.0
C      1  0.4024910000000  0.5121380000000  0.5333180000000 1.0
C      1  0.4189940000000  0.4870590000000  0.4706400000000 1.0
C      1  0.4631280000000  0.5118950000000  0.4285790000000 1.0
C      1  0.5405390000000  0.4927500000000  0.4076420000000 1.0
C      1  0.5961920000000  0.5113630000000  0.4621600000000 1.0
C      1  0.4962980000000  0.5044660000000  0.4986270000000 1.0
END
