TITL C-3623286-7563-269 -1.69288405106141e-07 125000 -665.118519243797 0 0 109 (C1) n - 1
REM
REM in /home/nfs/bkarasulu/CARBON/AIRSS/Generating-Clusters/LCBOP/Higher-Symm/SD-CG/FIRE-CG
REM
REM
REM
REM
REM
REM ./C.cell (b20cbc046b6831c77cfcea5457e17084)
REM AIRSS Version 0.9.1 bugfix July 2018 build 013d7b7c2542+ Fri, 06 Jul 2018 19:26:36 +0100
REM compiler GCC version 9.2.1 20190827 (Red Hat 9.2.1-1)
REM options -cpp -mtune=generic -march=x86-64 -g -O0 -fpre-include=/usr/include/finclude/math-vector-fortran.h
REM seed -694282787 -1577588755 906019179 -264952172 -1691633676 2091074756 -1416937074 193364979 -624807767 -593647512 1173155743 1766573510 669398947 479684875 169952896 -1426769713 -1807053594 1126275978 -1399372100 -1874410826 1368692720 1671507593 1107798180 -1249165613 -1816004188 488887078 -1982107359 541604400 -582100470 1586076479 -646284378 -77864408 1541647141
REM
CELL 1.54180   50.00000   50.00000   50.00000   90.00000   90.00000   90.00000
LATT -1
SFAC C  
C      1  0.5405910000000  0.4936750000000  0.5662210000000 1.0
C      1  0.5912350000000  0.4829520000000  0.4710080000000 1.0
C      1  0.5114920000000  0.4990500000000  0.4266560000000 1.0
C      1  0.4325840000000  0.4973680000000  0.4640830000000 1.0
C      1  0.4335050000000  0.4835870000000  0.5731000000000 1.0
C      1  0.5610380000000  0.4215290000000  0.3854970000000 1.0
C      1  0.4160080000000  0.4186050000000  0.4032070000000 1.0
C      1  0.3681370000000  0.4226610000000  0.5300130000000 1.0
C      1  0.5038530000000  0.4383250000000  0.6404360000000 1.0
C      1  0.6321180000000  0.4149380000000  0.5310650000000 1.0
C      1  0.4891100000000  0.5673290000000  0.4341400000000 1.0
C      1  0.4336740000000  0.5657670000000  0.4885190000000 1.0
C      1  0.4715940000000  0.5638960000000  0.5575970000000 1.0
C      1  0.5496360000000  0.5641670000000  0.5483830000000 1.0
C      1  0.5603530000000  0.5710280000000  0.4684590000000 1.0
C      1  0.4686600000000  0.5782310000000  0.4510920000000 1.0
C      1  0.4450510000000  0.5774780000000  0.5122720000000 1.0
C      1  0.4986570000000  0.5734250000000  0.5575850000000 1.0
C      1  0.5554400000000  0.5783910000000  0.5236610000000 1.0
C      1  0.5379190000000  0.5817540000000  0.4537210000000 1.0
C      1  0.6009880000000  0.4650300000000  0.4881810000000 1.0
C      1  0.5275910000000  0.4806690000000  0.4131970000000 1.0
C      1  0.4265250000000  0.4776910000000  0.4451710000000 1.0
C      1  0.4176460000000  0.4673030000000  0.5589200000000 1.0
C      1  0.5323060000000  0.4728970000000  0.5829370000000 1.0
C      1  0.5998990000000  0.5174500000000  0.5291320000000 1.0
C      1  0.5685820000000  0.5211900000000  0.4174210000000 1.0
C      1  0.4422870000000  0.5182910000000  0.4078660000000 1.0
C      1  0.3986530000000  0.5158550000000  0.5277380000000 1.0
C      1  0.4895490000000  0.5162480000000  0.6067260000000 1.0
C      1  0.4998320000000  0.4191840000000  0.5271280000000 1.0
C      1  0.5250150000000  0.4200370000000  0.5119120000000 1.0
C      1  0.5180340000000  0.4202480000000  0.4833980000000 1.0
C      1  0.4890440000000  0.4186630000000  0.4812460000000 1.0
C      1  0.4775710000000  0.4184850000000  0.5080160000000 1.0
C      1  0.4504470000000  0.5656690000000  0.5376990000000 1.0
C      1  0.5247520000000  0.5631130000000  0.5640820000000 1.0
C      1  0.5642130000000  0.5691120000000  0.4977990000000 1.0
C      1  0.5184340000000  0.5693860000000  0.4366190000000 1.0
C      1  0.4446470000000  0.5667250000000  0.4616610000000 1.0
C      1  0.4915560000000  0.4508380000000  0.5697310000000 1.0
C      1  0.5690740000000  0.4498180000000  0.5205500000000 1.0
C      1  0.5423830000000  0.4535700000000  0.4487080000000 1.0
C      1  0.4652790000000  0.4506610000000  0.4468350000000 1.0
C      1  0.4341740000000  0.4495450000000  0.5167100000000 1.0
C      1  0.5731090000000  0.5474680000000  0.4560520000000 1.0
C      1  0.4808980000000  0.5436530000000  0.4185850000000 1.0
C      1  0.4154040000000  0.5429960000000  0.4921960000000 1.0
C      1  0.4663020000000  0.5415380000000  0.5751620000000 1.0
C      1  0.5677910000000  0.5422090000000  0.5544530000000 1.0
C      1  0.5093550000000  0.5196700000000  0.5390680000000 1.0
C      1  0.5173570000000  0.5372260000000  0.4921230000000 1.0
C      1  0.5026080000000  0.5271280000000  0.4666580000000 1.0
C      1  0.4741810000000  0.5231130000000  0.4751620000000 1.0
C      1  0.4736380000000  0.5231750000000  0.5041990000000 1.0
C      1  0.5343640000000  0.4305800000000  0.4629890000000 1.0
C      1  0.4748910000000  0.4271730000000  0.4587240000000 1.0
C      1  0.4513730000000  0.4271150000000  0.5136840000000 1.0
C      1  0.4955780000000  0.4278280000000  0.5535290000000 1.0
C      1  0.5505610000000  0.4282430000000  0.5204700000000 1.0
C      1  0.4919310000000  0.4774530000000  0.4791130000000 1.0
C      1  0.4720620000000  0.4761340000000  0.5032320000000 1.0
C      1  0.4839730000000  0.4754850000000  0.5298430000000 1.0
C      1  0.5323360000000  0.4784840000000  0.5105550000000 1.0
C      1  0.5227860000000  0.4803250000000  0.4833430000000 1.0
C      1  0.4496140000000  0.5198550000000  0.4608500000000 1.0
C      1  0.4533410000000  0.5216280000000  0.5229960000000 1.0
C      1  0.5237740000000  0.5160960000000  0.5626410000000 1.0
C      1  0.5449330000000  0.5273010000000  0.4953850000000 1.0
C      1  0.5170450000000  0.5223450000000  0.4418840000000 1.0
C      1  0.5722760000000  0.5203790000000  0.4457100000000 1.0
C      1  0.4695930000000  0.5165370000000  0.4157920000000 1.0
C      1  0.4097570000000  0.5157760000000  0.5015830000000 1.0
C      1  0.4701960000000  0.5153380000000  0.5857880000000 1.0
C      1  0.5786540000000  0.5163560000000  0.5476660000000 1.0
C      1  0.5483900000000  0.5372100000000  0.4085850000000 1.0
C      1  0.4272830000000  0.5361210000000  0.4223030000000 1.0
C      1  0.4122430000000  0.5307460000000  0.5460920000000 1.0
C      1  0.5114740000000  0.5325050000000  0.6050010000000 1.0
C      1  0.5945400000000  0.5296460000000  0.5056700000000 1.0
C      1  0.5105260000000  0.4565980000000  0.5901950000000 1.0
C      1  0.5953440000000  0.4481800000000  0.5099540000000 1.0
C      1  0.5407310000000  0.4568820000000  0.4205960000000 1.0
C      1  0.4390500000000  0.4540260000000  0.4365360000000 1.0
C      1  0.4136990000000  0.4507930000000  0.5364470000000 1.0
C      1  0.4380530000000  0.5393580000000  0.5387390000000 1.0
C      1  0.5232860000000  0.5386720000000  0.5800670000000 1.0
C      1  0.5693600000000  0.5404500000000  0.4999610000000 1.0
C      1  0.5280880000000  0.5440560000000  0.4269200000000 1.0
C      1  0.4376030000000  0.5425790000000  0.4478650000000 1.0
C      1  0.4427860000000  0.4735800000000  0.5036300000000 1.0
C      1  0.4767760000000  0.4727640000000  0.5575690000000 1.0
C      1  0.5575560000000  0.4757990000000  0.5240910000000 1.0
C      1  0.5438050000000  0.4784990000000  0.4634040000000 1.0
C      1  0.4799320000000  0.4749210000000  0.4515900000000 1.0
C      1  0.4270120000000  0.4358820000000  0.4193180000000 1.0
C      1  0.3901280000000  0.4362400000000  0.5333550000000 1.0
C      1  0.5073910000000  0.4468830000000  0.6160770000000 1.0
C      1  0.6144700000000  0.4310860000000  0.5207220000000 1.0
C      1  0.5511760000000  0.4388000000000  0.4023380000000 1.0
C      1  0.4607360000000  0.4910590000000  0.5729850000000 1.0
C      1  0.5619650000000  0.4929020000000  0.5472620000000 1.0
C      1  0.5681040000000  0.4951100000000  0.4600020000000 1.0
C      1  0.4834780000000  0.4939900000000  0.4292480000000 1.0
C      1  0.4254120000000  0.4933460000000  0.4912690000000 1.0
C      1  0.5115250000000  0.4736170000000  0.5278470000000 1.0
C      1  0.5039430000000  0.5908620000000  0.4990290000000 1.0
C      1  0.4998700000000  0.5266740000000  0.5141980000000 1.0
C      1  0.5131700000000  0.5668850000000  0.4944710000000 1.0
END
