TITL C-3623289-7120-905 398.296291965552 125000 -958.665164016404 0 0 157 (C1) n - 1
REM
REM in /home/nfs/bkarasulu/CARBON/AIRSS/Generating-Clusters/LCBOP/Higher-Symm/SD-CG/FIRE-CG
REM
REM
REM
REM
REM
REM ./C.cell (b20cbc046b6831c77cfcea5457e17084)
REM AIRSS Version 0.9.1 bugfix July 2018 build 013d7b7c2542+ Fri, 06 Jul 2018 19:26:36 +0100
REM compiler GCC version 9.2.1 20190827 (Red Hat 9.2.1-1)
REM options -cpp -mtune=generic -march=x86-64 -g -O0 -fpre-include=/usr/include/finclude/math-vector-fortran.h
REM seed -569414575 -555073697 -28192358 -823541339 -921461663 1199872016 -1941413758 -1770736784 -1369850433 -150997810 685393106 -476941444 -437289527 781613030 -998085318 1836262177 -1290722884 -1162375366 1329149743 1117381805 38549511 -1061151478 74873539 -1296768985 1374396620 -1582487643 1302257466 -868806902 1325543859 1161080845 1093798102 -1837413328 -1156785633
REM
CELL 1.54180   50.00000   50.00000   50.00000   90.00000   90.00000   90.00000
LATT -1
SFAC C  
C      1  0.5865260000000  0.4841250000000  0.5878170000000 1.0
C      1  0.4347590000000  0.4726330000000  0.4196740000000 1.0
C      1  0.5311340000000  0.4327440000000  0.5660950000000 1.0
C      1  0.4591320000000  0.4553990000000  0.4175150000000 1.0
C      1  0.6122850000000  0.4800730000000  0.5132700000000 1.0
C      1  0.3881610000000  0.4873800000000  0.4985880000000 1.0
C      1  0.5669480000000  0.3788270000000  0.4602490000000 1.0
C      1  0.4273680000000  0.3670380000000  0.5278340000000 1.0
C      1  0.4935640000000  0.4102270000000  0.4806760000000 1.0
C      1  0.4892120000000  0.3901770000000  0.5284140000000 1.0
C      1  0.5255270000000  0.5923600000000  0.4189480000000 1.0
C      1  0.3910650000000  0.6733560000000  0.5184080000000 1.0
C      1  0.5435370000000  0.5056060000000  0.5591800000000 1.0
C      1  0.4754980000000  0.5121490000000  0.4485810000000 1.0
C      1  0.5544510000000  0.5693030000000  0.4498920000000 1.0
C      1  0.4718030000000  0.5364080000000  0.5320110000000 1.0
C      1  0.4085210000000  0.5108640000000  0.5376950000000 1.0
C      1  0.6004920000000  0.5097510000000  0.4766420000000 1.0
C      1  0.4965070000000  0.5409120000000  0.6242610000000 1.0
C      1  0.4911210000000  0.5398780000000  0.3737730000000 1.0
C      1  0.5214920000000  0.4888240000000  0.5219300000000 1.0
C      1  0.4756300000000  0.4763320000000  0.5017500000000 1.0
C      1  0.5406690000000  0.3964460000000  0.4971010000000 1.0
C      1  0.4508340000000  0.3919230000000  0.4933910000000 1.0
C      1  0.4311360000000  0.4466180000000  0.4665240000000 1.0
C      1  0.5593480000000  0.4489260000000  0.5274230000000 1.0
C      1  0.5310460000000  0.4483080000000  0.4218970000000 1.0
C      1  0.4724810000000  0.4442390000000  0.5886690000000 1.0
C      1  0.4673560000000  0.4322440000000  0.5202720000000 1.0
C      1  0.5297260000000  0.4428330000000  0.4846580000000 1.0
C      1  0.4289910000000  0.4650800000000  0.5939340000000 1.0
C      1  0.5775030000000  0.4673010000000  0.4163340000000 1.0
C      1  0.5867190000000  0.4654370000000  0.5676620000000 1.0
C      1  0.4105880000000  0.4596160000000  0.4270300000000 1.0
C      1  0.4231220000000  0.4782890000000  0.5698600000000 1.0
C      1  0.5849650000000  0.4795030000000  0.4407830000000 1.0
C      1  0.5591830000000  0.6033030000000  0.4865970000000 1.0
C      1  0.4294340000000  0.6037970000000  0.5064120000000 1.0
C      1  0.5452310000000  0.5504880000000  0.5995950000000 1.0
C      1  0.4544100000000  0.5495250000000  0.4098520000000 1.0
C      1  0.5960320000000  0.5246840000000  0.4290910000000 1.0
C      1  0.4305610000000  0.5256180000000  0.5799210000000 1.0
C      1  0.4571190000000  0.5131990000000  0.5280890000000 1.0
C      1  0.5548900000000  0.5238930000000  0.4513790000000 1.0
C      1  0.4367770000000  0.5021850000000  0.4203250000000 1.0
C      1  0.5769840000000  0.5108820000000  0.5925250000000 1.0
C      1  0.4585220000000  0.5202330000000  0.5955850000000 1.0
C      1  0.5292140000000  0.5062800000000  0.3827020000000 1.0
C      1  0.4982010000000  0.6037170000000  0.4692490000000 1.0
C      1  0.4881170000000  0.5873030000000  0.5492630000000 1.0
C      1  0.4980720000000  0.5329970000000  0.5248920000000 1.0
C      1  0.5313730000000  0.5675160000000  0.4634920000000 1.0
C      1  0.4801650000000  0.4187150000000  0.5969490000000 1.0
C      1  0.5195140000000  0.4252240000000  0.4112120000000 1.0
C      1  0.5358870000000  0.4908230000000  0.4052520000000 1.0
C      1  0.4672430000000  0.4912010000000  0.5902770000000 1.0
C      1  0.5388880000000  0.6098090000000  0.4360660000000 1.0
C      1  0.4033560000000  0.6507110000000  0.5144370000000 1.0
C      1  0.4641540000000  0.4872670000000  0.5371810000000 1.0
C      1  0.5435180000000  0.4991100000000  0.4541710000000 1.0
C      1  0.4814960000000  0.5490960000000  0.3993570000000 1.0
C      1  0.5174950000000  0.5418310000000  0.6037010000000 1.0
C      1  0.5218430000000  0.4938460000000  0.4344130000000 1.0
C      1  0.4834950000000  0.4852130000000  0.5632680000000 1.0
C      1  0.4166620000000  0.5787950000000  0.5066730000000 1.0
C      1  0.5776330000000  0.5821250000000  0.4933230000000 1.0
C      1  0.4856840000000  0.4957640000000  0.4046630000000 1.0
C      1  0.5239060000000  0.4765190000000  0.5918710000000 1.0
C      1  0.5503080000000  0.4653220000000  0.4081840000000 1.0
C      1  0.4566610000000  0.4653970000000  0.6000340000000 1.0
C      1  0.6022870000000  0.4092500000000  0.5187310000000 1.0
C      1  0.3889080000000  0.4045090000000  0.4755300000000 1.0
C      1  0.5630130000000  0.4790740000000  0.4598940000000 1.0
C      1  0.4393340000000  0.4726990000000  0.5467440000000 1.0
C      1  0.4158900000000  0.6277120000000  0.5104590000000 1.0
C      1  0.5529840000000  0.6130650000000  0.4596510000000 1.0
C      1  0.5044740000000  0.5430860000000  0.4177730000000 1.0
C      1  0.5052380000000  0.5275010000000  0.5814850000000 1.0
C      1  0.5271500000000  0.5628020000000  0.4151120000000 1.0
C      1  0.4777690000000  0.5356510000000  0.5769150000000 1.0
C      1  0.4383870000000  0.5253420000000  0.4023090000000 1.0
C      1  0.5656600000000  0.5311910000000  0.6102240000000 1.0
C      1  0.4903310000000  0.5628500000000  0.4867230000000 1.0
C      1  0.5195900000000  0.5487650000000  0.5319540000000 1.0
C      1  0.5705530000000  0.5467870000000  0.5573860000000 1.0
C      1  0.4370430000000  0.5400120000000  0.4547850000000 1.0
C      1  0.4541210000000  0.5867860000000  0.4505470000000 1.0
C      1  0.5386020000000  0.5842780000000  0.5569890000000 1.0
C      1  0.4676580000000  0.6025260000000  0.4721580000000 1.0
C      1  0.5448010000000  0.6029460000000  0.5349590000000 1.0
C      1  0.4704550000000  0.5304570000000  0.6220310000000 1.0
C      1  0.5122100000000  0.5229630000000  0.3698040000000 1.0
C      1  0.5963330000000  0.5356840000000  0.4884870000000 1.0
C      1  0.4198430000000  0.5377270000000  0.5320850000000 1.0
C      1  0.5138070000000  0.5720110000000  0.5488940000000 1.0
C      1  0.5043340000000  0.5743870000000  0.4638670000000 1.0
C      1  0.4981070000000  0.5126140000000  0.4278790000000 1.0
C      1  0.5150850000000  0.4993020000000  0.5732990000000 1.0
C      1  0.5219640000000  0.4149290000000  0.4858420000000 1.0
C      1  0.4750850000000  0.4055250000000  0.5067940000000 1.0
C      1  0.4572550000000  0.4507290000000  0.4682190000000 1.0
C      1  0.5353200000000  0.4459550000000  0.5413150000000 1.0
C      1  0.4938860000000  0.4172520000000  0.4122880000000 1.0
C      1  0.4994750000000  0.4026880000000  0.5870560000000 1.0
C      1  0.4246120000000  0.5515370000000  0.5065390000000 1.0
C      1  0.5829860000000  0.5559320000000  0.5041750000000 1.0
C      1  0.4082660000000  0.4442940000000  0.4504780000000 1.0
C      1  0.5831300000000  0.4491600000000  0.5440240000000 1.0
C      1  0.5545390000000  0.4529780000000  0.4989150000000 1.0
C      1  0.4398840000000  0.4415170000000  0.5156580000000 1.0
C      1  0.5548560000000  0.5574320000000  0.4235000000000 1.0
C      1  0.4634060000000  0.5481410000000  0.5557440000000 1.0
C      1  0.4138820000000  0.5049120000000  0.5668200000000 1.0
C      1  0.6009350000000  0.5032840000000  0.4475070000000 1.0
C      1  0.4345310000000  0.5458330000000  0.5577100000000 1.0
C      1  0.5696160000000  0.5342980000000  0.4288280000000 1.0
C      1  0.4468000000000  0.5618080000000  0.4366900000000 1.0
C      1  0.5540710000000  0.5654220000000  0.5737660000000 1.0
C      1  0.5945340000000  0.4868330000000  0.4936980000000 1.0
C      1  0.4062830000000  0.4873360000000  0.5191630000000 1.0
C      1  0.6015490000000  0.4290240000000  0.5367960000000 1.0
C      1  0.3897070000000  0.4249190000000  0.4582120000000 1.0
C      1  0.5710460000000  0.4720560000000  0.4858730000000 1.0
C      1  0.4242810000000  0.4642610000000  0.5238790000000 1.0
C      1  0.5665530000000  0.5198700000000  0.5676530000000 1.0
C      1  0.4470260000000  0.5140160000000  0.4444490000000 1.0
C      1  0.4810750000000  0.4586310000000  0.4802840000000 1.0
C      1  0.5137180000000  0.4609060000000  0.5297060000000 1.0
C      1  0.4805280000000  0.5184700000000  0.4750020000000 1.0
C      1  0.5428010000000  0.5054250000000  0.5311610000000 1.0
C      1  0.5689310000000  0.5477930000000  0.5280580000000 1.0
C      1  0.4416480000000  0.5446990000000  0.4836090000000 1.0
C      1  0.5037680000000  0.5085380000000  0.5125710000000 1.0
C      1  0.4862720000000  0.5001150000000  0.4940480000000 1.0
C      1  0.4775140000000  0.4703800000000  0.4018310000000 1.0
C      1  0.5310410000000  0.4505800000000  0.5883470000000 1.0
C      1  0.4530380000000  0.3947800000000  0.4647870000000 1.0
C      1  0.5359470000000  0.3882040000000  0.5236870000000 1.0
C      1  0.5087380000000  0.4571230000000  0.4691490000000 1.0
C      1  0.4879220000000  0.4467850000000  0.5359370000000 1.0
C      1  0.5176020000000  0.4071440000000  0.5657820000000 1.0
C      1  0.4736310000000  0.4259350000000  0.4301110000000 1.0
C      1  0.5158650000000  0.4640870000000  0.4419080000000 1.0
C      1  0.4837180000000  0.4540470000000  0.5640220000000 1.0
C      1  0.4269580000000  0.3825860000000  0.5053950000000 1.0
C      1  0.5656860000000  0.3902000000000  0.4850530000000 1.0
C      1  0.4758770000000  0.5923800000000  0.5232630000000 1.0
C      1  0.5117410000000  0.6047180000000  0.4957710000000 1.0
C      1  0.4026770000000  0.3898940000000  0.4931200000000 1.0
C      1  0.5890250000000  0.3961850000000  0.4996130000000 1.0
C      1  0.4575580000000  0.6029040000000  0.5017210000000 1.0
C      1  0.5384320000000  0.6075040000000  0.5065270000000 1.0
C      1  0.4752940000000  0.4111750000000  0.4558350000000 1.0
C      1  0.5144610000000  0.3926280000000  0.5412300000000 1.0
C      1  0.4708120000000  0.5432950000000  0.4846220000000 1.0
C      1  0.5437560000000  0.5344310000000  0.5238380000000 1.0
C      1  0.4969260000000  0.5822060000000  0.5070090000000 1.0
END
