TITL C-3623285-6872-804 21.2009127646103 125000 -1148.78098714834 0 0 189 (C1) n - 1
REM
REM in /home/nfs/bkarasulu/CARBON/AIRSS/Generating-Clusters/LCBOP/Higher-Symm/SD-CG/FIRE-CG
REM
REM
REM
REM
REM
REM ./C.cell (b20cbc046b6831c77cfcea5457e17084)
REM AIRSS Version 0.9.1 bugfix July 2018 build 013d7b7c2542+ Fri, 06 Jul 2018 19:26:36 +0100
REM compiler GCC version 9.2.1 20190827 (Red Hat 9.2.1-1)
REM options -cpp -mtune=generic -march=x86-64 -g -O0 -fpre-include=/usr/include/finclude/math-vector-fortran.h
REM seed 1097093263 -1760237566 -1643906097 1653489315 187079915 -561574607 -495581799 -1132923103 1794026171 1776540621 965045823 -1058212924 1870376517 889926345 -630100836 -1275484212 400127905 1846281257 -952034779 1130052854 -1853360241 -2129320137 -304378360 1318078221 524201410 365125753 -85840127 1985035930 606661789 -2059706126 1089734401 -90436247 -2071872294
REM
CELL 1.54180   50.00000   50.00000   50.00000   90.00000   90.00000   90.00000
LATT -1
SFAC C  
C      1  0.5169250000000  0.4115600000000  0.5490910000000 1.0
C      1  0.5077630000000  0.5577220000000  0.4366020000000 1.0
C      1  0.5135270000000  0.4603930000000  0.5705420000000 1.0
C      1  0.4913490000000  0.5193820000000  0.4147220000000 1.0
C      1  0.4331140000000  0.4389360000000  0.5420080000000 1.0
C      1  0.5804860000000  0.5538390000000  0.4435730000000 1.0
C      1  0.4963460000000  0.5009500000000  0.5468920000000 1.0
C      1  0.5172010000000  0.5009650000000  0.4605860000000 1.0
C      1  0.4421240000000  0.5628800000000  0.5277630000000 1.0
C      1  0.5577060000000  0.4430530000000  0.4884380000000 1.0
C      1  0.4466780000000  0.4224010000000  0.5256790000000 1.0
C      1  0.5548120000000  0.5634170000000  0.4386810000000 1.0
C      1  0.4560750000000  0.5278300000000  0.4625500000000 1.0
C      1  0.5502330000000  0.4843510000000  0.5455370000000 1.0
C      1  0.4216100000000  0.5755790000000  0.5420500000000 1.0
C      1  0.5666540000000  0.4240620000000  0.4724840000000 1.0
C      1  0.5796080000000  0.5689920000000  0.5271900000000 1.0
C      1  0.4137810000000  0.4539760000000  0.4783010000000 1.0
C      1  0.3864240000000  0.4849770000000  0.4502860000000 1.0
C      1  0.6059420000000  0.5436820000000  0.5588370000000 1.0
C      1  0.4722410000000  0.4254390000000  0.6066910000000 1.0
C      1  0.5199950000000  0.5523540000000  0.3660740000000 1.0
C      1  0.5720250000000  0.4978680000000  0.3904700000000 1.0
C      1  0.4524540000000  0.4879460000000  0.6160290000000 1.0
C      1  0.4231710000000  0.4904240000000  0.5530620000000 1.0
C      1  0.5933090000000  0.5055600000000  0.4544760000000 1.0
C      1  0.5518970000000  0.4376350000000  0.5709410000000 1.0
C      1  0.4607430000000  0.5595710000000  0.4306350000000 1.0
C      1  0.4483650000000  0.3948480000000  0.4698740000000 1.0
C      1  0.5101900000000  0.6207260000000  0.5245120000000 1.0
C      1  0.5150940000000  0.4585680000000  0.3858850000000 1.0
C      1  0.5115120000000  0.5206090000000  0.5962270000000 1.0
C      1  0.5036890000000  0.6416120000000  0.4487200000000 1.0
C      1  0.5287370000000  0.4017960000000  0.5230690000000 1.0
C      1  0.4445500000000  0.4278370000000  0.4143500000000 1.0
C      1  0.5266760000000  0.5854960000000  0.5788530000000 1.0
C      1  0.5036500000000  0.4934640000000  0.6075240000000 1.0
C      1  0.5194280000000  0.4868930000000  0.3861970000000 1.0
C      1  0.4215510000000  0.3851140000000  0.5620830000000 1.0
C      1  0.5828090000000  0.5865940000000  0.3831360000000 1.0
C      1  0.5071340000000  0.3927840000000  0.4555990000000 1.0
C      1  0.4639020000000  0.6034010000000  0.5701040000000 1.0
C      1  0.4855120000000  0.4435960000000  0.5080020000000 1.0
C      1  0.4925210000000  0.5562900000000  0.4976930000000 1.0
C      1  0.5202030000000  0.4828740000000  0.5534910000000 1.0
C      1  0.4991000000000  0.5037820000000  0.4368630000000 1.0
C      1  0.5487070000000  0.5985950000000  0.5083010000000 1.0
C      1  0.4044960000000  0.3876920000000  0.4867070000000 1.0
C      1  0.4871820000000  0.5659740000000  0.5581380000000 1.0
C      1  0.4910020000000  0.4319610000000  0.4314350000000 1.0
C      1  0.4840640000000  0.5312480000000  0.5908810000000 1.0
C      1  0.5223840000000  0.4329480000000  0.3918220000000 1.0
C      1  0.6086210000000  0.4853910000000  0.5545400000000 1.0
C      1  0.3964230000000  0.5430190000000  0.4543200000000 1.0
C      1  0.4702780000000  0.4019780000000  0.4856300000000 1.0
C      1  0.4860100000000  0.6061850000000  0.5223320000000 1.0
C      1  0.4989000000000  0.4879770000000  0.4822510000000 1.0
C      1  0.5028160000000  0.5174770000000  0.5219990000000 1.0
C      1  0.4186780000000  0.5028320000000  0.5804810000000 1.0
C      1  0.5983680000000  0.4846790000000  0.4329440000000 1.0
C      1  0.5104800000000  0.4516440000000  0.4360060000000 1.0
C      1  0.4649090000000  0.5546340000000  0.5425810000000 1.0
C      1  0.6261620000000  0.5390770000000  0.5403190000000 1.0
C      1  0.3697120000000  0.4917600000000  0.4715170000000 1.0
C      1  0.4818480000000  0.4572150000000  0.5320380000000 1.0
C      1  0.5317840000000  0.5498670000000  0.4488230000000 1.0
C      1  0.4914490000000  0.3769480000000  0.5299850000000 1.0
C      1  0.5377670000000  0.6078470000000  0.4267060000000 1.0
C      1  0.4900320000000  0.4452950000000  0.6088060000000 1.0
C      1  0.5051350000000  0.5305060000000  0.3699420000000 1.0
C      1  0.3873270000000  0.4922960000000  0.5209620000000 1.0
C      1  0.6219180000000  0.5168580000000  0.4915250000000 1.0
C      1  0.5209600000000  0.6262030000000  0.4358030000000 1.0
C      1  0.5086180000000  0.3861490000000  0.5079320000000 1.0
C      1  0.4623220000000  0.4578320000000  0.4722730000000 1.0
C      1  0.5367110000000  0.5515330000000  0.5267330000000 1.0
C      1  0.4237270000000  0.5886600000000  0.4815250000000 1.0
C      1  0.5946160000000  0.4235250000000  0.5347120000000 1.0
C      1  0.5351170000000  0.4601240000000  0.4410440000000 1.0
C      1  0.4582300000000  0.5291080000000  0.5525550000000 1.0
C      1  0.3734760000000  0.5573250000000  0.4997630000000 1.0
C      1  0.6228240000000  0.4584160000000  0.5102080000000 1.0
C      1  0.5811290000000  0.5526670000000  0.5495670000000 1.0
C      1  0.4099650000000  0.4705310000000  0.4560450000000 1.0
C      1  0.5049130000000  0.4662900000000  0.5967870000000 1.0
C      1  0.5018100000000  0.5101770000000  0.3893210000000 1.0
C      1  0.3905160000000  0.4899330000000  0.4033450000000 1.0
C      1  0.5933370000000  0.5427640000000  0.6037190000000 1.0
C      1  0.4091620000000  0.3813470000000  0.5387130000000 1.0
C      1  0.5762670000000  0.6218130000000  0.4691660000000 1.0
C      1  0.6182660000000  0.4420850000000  0.4889700000000 1.0
C      1  0.3717220000000  0.5590670000000  0.5264030000000 1.0
C      1  0.5833580000000  0.5680620000000  0.6043720000000 1.0
C      1  0.3922730000000  0.4638080000000  0.3967810000000 1.0
C      1  0.5139440000000  0.5626290000000  0.5686870000000 1.0
C      1  0.4646520000000  0.4416530000000  0.4279010000000 1.0
C      1  0.5243000000000  0.4338570000000  0.5650220000000 1.0
C      1  0.4855270000000  0.5469930000000  0.4228040000000 1.0
C      1  0.5374260000000  0.6154210000000  0.5283350000000 1.0
C      1  0.4206030000000  0.3950260000000  0.4648050000000 1.0
C      1  0.6108160000000  0.5233540000000  0.4152910000000 1.0
C      1  0.4170190000000  0.4589590000000  0.5869860000000 1.0
C      1  0.5514760000000  0.5239510000000  0.4869570000000 1.0
C      1  0.4602710000000  0.4994910000000  0.5135590000000 1.0
C      1  0.5508050000000  0.5842140000000  0.4194400000000 1.0
C      1  0.4953560000000  0.3923770000000  0.5528080000000 1.0
C      1  0.6275460000000  0.4808960000000  0.4291220000000 1.0
C      1  0.3903210000000  0.4988390000000  0.5880590000000 1.0
C      1  0.4872770000000  0.4614460000000  0.4851320000000 1.0
C      1  0.5121740000000  0.5438500000000  0.5164890000000 1.0
C      1  0.5606970000000  0.4854060000000  0.5151920000000 1.0
C      1  0.4779330000000  0.5331920000000  0.4825910000000 1.0
C      1  0.5507820000000  0.6165360000000  0.5535400000000 1.0
C      1  0.4111980000000  0.4055200000000  0.4402930000000 1.0
C      1  0.4543100000000  0.4083800000000  0.5966710000000 1.0
C      1  0.5387170000000  0.5691580000000  0.3747150000000 1.0
C      1  0.6331800000000  0.4337420000000  0.4440480000000 1.0
C      1  0.3650890000000  0.5398640000000  0.5711810000000 1.0
C      1  0.5778230000000  0.4447600000000  0.5322670000000 1.0
C      1  0.4344170000000  0.5633260000000  0.4801240000000 1.0
C      1  0.4678190000000  0.4207890000000  0.5067350000000 1.0
C      1  0.4857090000000  0.5836350000000  0.5040460000000 1.0
C      1  0.4371570000000  0.3945170000000  0.5816160000000 1.0
C      1  0.5578130000000  0.5800630000000  0.3921230000000 1.0
C      1  0.6018100000000  0.5269790000000  0.5817800000000 1.0
C      1  0.3917830000000  0.5028220000000  0.4282630000000 1.0
C      1  0.4866990000000  0.6553130000000  0.4629760000000 1.0
C      1  0.5551660000000  0.3962310000000  0.5192520000000 1.0
C      1  0.4098840000000  0.5226700000000  0.4398740000000 1.0
C      1  0.5910770000000  0.5029810000000  0.5691940000000 1.0
C      1  0.5398970000000  0.4827920000000  0.4540860000000 1.0
C      1  0.4785960000000  0.5166150000000  0.5664530000000 1.0
C      1  0.5969110000000  0.5319390000000  0.4400330000000 1.0
C      1  0.4260200000000  0.4606180000000  0.5581590000000 1.0
C      1  0.5553590000000  0.4055600000000  0.4166710000000 1.0
C      1  0.4381250000000  0.5528710000000  0.6013340000000 1.0
C      1  0.4023650000000  0.3827790000000  0.5129140000000 1.0
C      1  0.5599140000000  0.6094050000000  0.4852510000000 1.0
C      1  0.4780710000000  0.4944140000000  0.6217610000000 1.0
C      1  0.5467600000000  0.4938820000000  0.3836080000000 1.0
C      1  0.3991190000000  0.4390020000000  0.4044680000000 1.0
C      1  0.5719030000000  0.5893790000000  0.5923040000000 1.0
C      1  0.3740060000000  0.4978880000000  0.4971150000000 1.0
C      1  0.6280080000000  0.5268120000000  0.5168190000000 1.0
C      1  0.5959400000000  0.5068420000000  0.4831060000000 1.0
C      1  0.4138940000000  0.5014690000000  0.5279620000000 1.0
C      1  0.4679310000000  0.6107730000000  0.5440610000000 1.0
C      1  0.4968760000000  0.3915300000000  0.4822960000000 1.0
C      1  0.5878030000000  0.4189050000000  0.4550010000000 1.0
C      1  0.4043540000000  0.5664270000000  0.5623580000000 1.0
C      1  0.4361490000000  0.5106940000000  0.4483980000000 1.0
C      1  0.5641780000000  0.5073340000000  0.5586940000000 1.0
C      1  0.6196750000000  0.4726020000000  0.5332300000000 1.0
C      1  0.3818000000000  0.5522600000000  0.4748220000000 1.0
C      1  0.5536910000000  0.5721690000000  0.5166440000000 1.0
C      1  0.4390340000000  0.4511210000000  0.4870890000000 1.0
C      1  0.4315680000000  0.4825710000000  0.5983540000000 1.0
C      1  0.5928980000000  0.5006530000000  0.4081350000000 1.0
C      1  0.6501560000000  0.5200250000000  0.4463110000000 1.0
C      1  0.3727470000000  0.4620290000000  0.5625570000000 1.0
C      1  0.5786120000000  0.4090030000000  0.4300490000000 1.0
C      1  0.4160080000000  0.5600620000000  0.5874790000000 1.0
C      1  0.6397530000000  0.4561230000000  0.4308910000000 1.0
C      1  0.3706210000000  0.5182380000000  0.5858640000000 1.0
C      1  0.5673370000000  0.4580020000000  0.5093370000000 1.0
C      1  0.4353220000000  0.5459640000000  0.5048140000000 1.0
C      1  0.5523950000000  0.5359140000000  0.5542710000000 1.0
C      1  0.4350490000000  0.4819540000000  0.4453760000000 1.0
C      1  0.6361870000000  0.5089380000000  0.4243180000000 1.0
C      1  0.3880210000000  0.4691940000000  0.5854530000000 1.0
C      1  0.4566560000000  0.4631880000000  0.4451170000000 1.0
C      1  0.5279580000000  0.5373150000000  0.5758070000000 1.0
C      1  0.5645420000000  0.4563420000000  0.5545200000000 1.0
C      1  0.4479470000000  0.5552860000000  0.4559290000000 1.0
C      1  0.4171390000000  0.4223230000000  0.4183060000000 1.0
C      1  0.5508150000000  0.5995490000000  0.5762910000000 1.0
C      1  0.6424140000000  0.5200360000000  0.4720980000000 1.0
C      1  0.3743020000000  0.4737130000000  0.5382410000000 1.0
C      1  0.6134430000000  0.4292040000000  0.4636090000000 1.0
C      1  0.3788210000000  0.5568830000000  0.5536350000000 1.0
C      1  0.5706320000000  0.5060930000000  0.4976780000000 1.0
C      1  0.4348600000000  0.5152990000000  0.5122810000000 1.0
C      1  0.4725410000000  0.5785260000000  0.5809880000000 1.0
C      1  0.5067550000000  0.4074190000000  0.4309840000000 1.0
C      1  0.4661720000000  0.5547750000000  0.5968420000000 1.0
C      1  0.5282180000000  0.4118460000000  0.4110700000000 1.0
C      1  0.5321520000000  0.5271160000000  0.4665590000000 1.0
C      1  0.4735840000000  0.4835090000000  0.5345470000000 1.0
C      1  0.4849430000000  0.5088540000000  0.4983830000000 1.0
END
