TITL C-3623287-7182-1164 0.142569325142645 125000 -524.749844242442 0 0 87 (C1) n - 1
REM
REM in /home/nfs/bkarasulu/CARBON/AIRSS/Generating-Clusters/LCBOP/Higher-Symm/SD-CG/FIRE-CG
REM
REM
REM
REM
REM
REM ./C.cell (b20cbc046b6831c77cfcea5457e17084)
REM AIRSS Version 0.9.1 bugfix July 2018 build 013d7b7c2542+ Fri, 06 Jul 2018 19:26:36 +0100
REM compiler GCC version 9.2.1 20190827 (Red Hat 9.2.1-1)
REM options -cpp -mtune=generic -march=x86-64 -g -O0 -fpre-include=/usr/include/finclude/math-vector-fortran.h
REM seed -1817401338 332786089 1622641279 -1861363613 -306503864 1692351322 -1080039502 -1777166115 -1115180894 199495758 -489841818 1348568108 -36082247 96353294 -2068125453 -1565136073 264035964 1916821969 1283477018 -732301011 1730006026 -246779713 -214633765 1206643744 -750016203 246880894 1379907388 -945760856 1030118083 -738512769 2071668716 1914536125 -1229602334
REM
CELL 1.54180   50.00000   50.00000   50.00000   90.00000   90.00000   90.00000
LATT -1
SFAC C  
C      1  0.4918350000000  0.5642470000000  0.3998590000000 1.0
C      1  0.3970430000000  0.5468370000000  0.4367740000000 1.0
C      1  0.4249740000000  0.4748910000000  0.4060460000000 1.0
C      1  0.4991480000000  0.4481040000000  0.3918780000000 1.0
C      1  0.5824440000000  0.4138830000000  0.4456470000000 1.0
C      1  0.5708830000000  0.4991090000000  0.4022560000000 1.0
C      1  0.5707460000000  0.5950560000000  0.4431710000000 1.0
C      1  0.4752160000000  0.5464240000000  0.4690980000000 1.0
C      1  0.4405460000000  0.5094180000000  0.4857010000000 1.0
C      1  0.4618310000000  0.4556810000000  0.4712480000000 1.0
C      1  0.5086490000000  0.4488020000000  0.4652320000000 1.0
C      1  0.5576520000000  0.4711880000000  0.4839470000000 1.0
C      1  0.5544770000000  0.5176680000000  0.4716470000000 1.0
C      1  0.5193180000000  0.5601680000000  0.4829180000000 1.0
C      1  0.4794890000000  0.4572330000000  0.5959770000000 1.0
C      1  0.5069160000000  0.4533280000000  0.5867630000000 1.0
C      1  0.5213000000000  0.4680740000000  0.5660610000000 1.0
C      1  0.5116470000000  0.4902390000000  0.5497180000000 1.0
C      1  0.4856450000000  0.5035020000000  0.5496370000000 1.0
C      1  0.4585400000000  0.4960850000000  0.5630370000000 1.0
C      1  0.4594230000000  0.4766170000000  0.5873310000000 1.0
C      1  0.5324330000000  0.5124600000000  0.5519550000000 1.0
C      1  0.4903580000000  0.5330650000000  0.5526410000000 1.0
C      1  0.4526440000000  0.5244040000000  0.5791150000000 1.0
C      1  0.4493000000000  0.4909370000000  0.6117820000000 1.0
C      1  0.4807440000000  0.4594240000000  0.6263910000000 1.0
C      1  0.5247270000000  0.4531600000000  0.6114640000000 1.0
C      1  0.5478120000000  0.4768300000000  0.5782240000000 1.0
C      1  0.4686210000000  0.5034830000000  0.4872170000000 1.0
C      1  0.4779430000000  0.4768490000000  0.4838760000000 1.0
C      1  0.5060640000000  0.4709170000000  0.4817650000000 1.0
C      1  0.5306710000000  0.4830870000000  0.4886760000000 1.0
C      1  0.5315460000000  0.5112220000000  0.4852710000000 1.0
C      1  0.5130990000000  0.5318330000000  0.4886850000000 1.0
C      1  0.4861030000000  0.5252520000000  0.4830900000000 1.0
C      1  0.5331900000000  0.5670710000000  0.4565730000000 1.0
C      1  0.4689390000000  0.5548530000000  0.4421110000000 1.0
C      1  0.4286140000000  0.5175450000000  0.4593430000000 1.0
C      1  0.4531680000000  0.4602010000000  0.4427470000000 1.0
C      1  0.5150310000000  0.4418430000000  0.4377270000000 1.0
C      1  0.5632060000000  0.4571250000000  0.4573780000000 1.0
C      1  0.5644050000000  0.5222620000000  0.4448510000000 1.0
C      1  0.4315630000000  0.4754790000000  0.4325640000000 1.0
C      1  0.4940340000000  0.4430370000000  0.4182230000000 1.0
C      1  0.5605240000000  0.4299430000000  0.4486690000000 1.0
C      1  0.5724080000000  0.4992200000000  0.4295580000000 1.0
C      1  0.5609920000000  0.5703440000000  0.4498390000000 1.0
C      1  0.4906050000000  0.5665990000000  0.4270830000000 1.0
C      1  0.4218840000000  0.5427970000000  0.4475760000000 1.0
C      1  0.5838610000000  0.4883700000000  0.4888070000000 1.0
C      1  0.5795310000000  0.5170900000000  0.4878270000000 1.0
C      1  0.4971940000000  0.5820120000000  0.4861180000000 1.0
C      1  0.4702850000000  0.5713880000000  0.4849950000000 1.0
C      1  0.4207340000000  0.4916850000000  0.4983820000000 1.0
C      1  0.4704880000000  0.4258400000000  0.4725590000000 1.0
C      1  0.4990320000000  0.4226020000000  0.4762960000000 1.0
C      1  0.5111710000000  0.5808960000000  0.4417430000000 1.0
C      1  0.4411350000000  0.5639850000000  0.4472440000000 1.0
C      1  0.4170270000000  0.4916110000000  0.4506760000000 1.0
C      1  0.4671600000000  0.4387760000000  0.4278230000000 1.0
C      1  0.5343020000000  0.4200690000000  0.4434150000000 1.0
C      1  0.5819420000000  0.4760290000000  0.4440230000000 1.0
C      1  0.5785340000000  0.5477180000000  0.4503120000000 1.0
C      1  0.5368580000000  0.4986560000000  0.6192290000000 1.0
C      1  0.5395560000000  0.5192160000000  0.5986090000000 1.0
C      1  0.5197320000000  0.5387620000000  0.5896870000000 1.0
C      1  0.4922900000000  0.5425560000000  0.5989710000000 1.0
C      1  0.4779240000000  0.5278130000000  0.6196700000000 1.0
C      1  0.4874760000000  0.5056650000000  0.6361550000000 1.0
C      1  0.5136350000000  0.4926220000000  0.6359450000000 1.0
C      1  0.5018380000000  0.5993260000000  0.4626060000000 1.0
C      1  0.4455540000000  0.5801190000000  0.4720550000000 1.0
C      1  0.4066720000000  0.4806750000000  0.4755630000000 1.0
C      1  0.4628090000000  0.4159990000000  0.4457780000000 1.0
C      1  0.5191160000000  0.4050410000000  0.4642820000000 1.0
C      1  0.6009500000000  0.4806450000000  0.4658260000000 1.0
C      1  0.5931440000000  0.5399840000000  0.4754340000000 1.0
C      1  0.5501450000000  0.5052920000000  0.5736630000000 1.0
C      1  0.5182590000000  0.5365760000000  0.5593280000000 1.0
C      1  0.4743630000000  0.5425610000000  0.5744500000000 1.0
C      1  0.4515690000000  0.5191590000000  0.6072980000000 1.0
C      1  0.4666200000000  0.4835860000000  0.6337230000000 1.0
C      1  0.5085930000000  0.4626770000000  0.6334950000000 1.0
C      1  0.5458430000000  0.4723560000000  0.6067360000000 1.0
C      1  0.3912320000000  0.4812550000000  0.5348580000000 1.0
C      1  0.4162940000000  0.4872730000000  0.5256550000000 1.0
C      1  0.4376190000000  0.4892590000000  0.5436090000000 1.0
END
