TITL C-3623283-6828-773 1739082.0417146 125000 -1172.57745285206 0 0 191 (C1) n - 1
REM
REM in /home/nfs/bkarasulu/CARBON/AIRSS/Generating-Clusters/LCBOP/Higher-Symm/SD-CG/FIRE-CG
REM
REM
REM
REM
REM
REM ./C.cell (b20cbc046b6831c77cfcea5457e17084)
REM AIRSS Version 0.9.1 bugfix July 2018 build 013d7b7c2542+ Fri, 06 Jul 2018 19:26:36 +0100
REM compiler GCC version 9.2.1 20190827 (Red Hat 9.2.1-1)
REM options -cpp -mtune=generic -march=x86-64 -g -O0 -fpre-include=/usr/include/finclude/math-vector-fortran.h
REM seed 1129125534 1447907638 -762518638 1119210916 -481495072 -2137742113 746631820 1101583493 -480889127 -2139534235 -38138897 1490794215 -1688333894 338400737 619246366 -1862299 1227550456 -2118462248 1795600143 1251796155 1543616078 -1832905787 -1924932040 -2114651368 1872607567 1048338359 2078621527 -1875146888 -1687788936 753634536 1396450710 -583703061 391794927
REM
CELL 1.54180   50.00000   50.00000   50.00000   90.00000   90.00000   90.00000
LATT -1
SFAC C  
C      1  0.5979830000000  0.4362190000000  0.5283580000000 1.0
C      1  0.5002290000000  0.6149980000000  0.5192450000000 1.0
C      1  0.4029710000000  0.4418510000000  0.5231690000000 1.0
C      1  0.4875790000000  0.5264780000000  0.3795110000000 1.0
C      1  0.4648530000000  0.5086250000000  0.3828390000000 1.0
C      1  0.5124990000000  0.5133710000000  0.3762190000000 1.0
C      1  0.5565040000000  0.4748950000000  0.4478550000000 1.0
C      1  0.4932010000000  0.5466720000000  0.4344560000000 1.0
C      1  0.4594260000000  0.4657030000000  0.4485890000000 1.0
C      1  0.5119060000000  0.5157430000000  0.5958730000000 1.0
C      1  0.4844680000000  0.5038650000000  0.5966150000000 1.0
C      1  0.4927950000000  0.4747540000000  0.5997880000000 1.0
C      1  0.5204380000000  0.5186900000000  0.4640320000000 1.0
C      1  0.4760500000000  0.5088320000000  0.4725710000000 1.0
C      1  0.5094660000000  0.4767130000000  0.4788890000000 1.0
C      1  0.5095330000000  0.4281680000000  0.4807280000000 1.0
C      1  0.5624310000000  0.5356350000000  0.4640180000000 1.0
C      1  0.4383410000000  0.5348420000000  0.4711720000000 1.0
C      1  0.6108440000000  0.4758010000000  0.4948400000000 1.0
C      1  0.4659650000000  0.5945480000000  0.4886470000000 1.0
C      1  0.4319730000000  0.4164330000000  0.4932710000000 1.0
C      1  0.5204940000000  0.5525490000000  0.5294630000000 1.0
C      1  0.4476400000000  0.5022670000000  0.5290600000000 1.0
C      1  0.4910280000000  0.4729300000000  0.5256620000000 1.0
C      1  0.4119700000000  0.5784200000000  0.5433600000000 1.0
C      1  0.4665250000000  0.3643340000000  0.5394610000000 1.0
C      1  0.6156580000000  0.5314320000000  0.5427090000000 1.0
C      1  0.4244760000000  0.3932070000000  0.4751740000000 1.0
C      1  0.6379470000000  0.4857680000000  0.4853270000000 1.0
C      1  0.4485470000000  0.6140400000000  0.4727580000000 1.0
C      1  0.4629910000000  0.5052510000000  0.6185420000000 1.0
C      1  0.5126130000000  0.4675550000000  0.6187080000000 1.0
C      1  0.5202150000000  0.5317750000000  0.6174310000000 1.0
C      1  0.4121810000000  0.5400300000000  0.4601630000000 1.0
C      1  0.5119660000000  0.4030090000000  0.4654590000000 1.0
C      1  0.5790970000000  0.5582950000000  0.4581440000000 1.0
C      1  0.4916380000000  0.5778480000000  0.5865230000000 1.0
C      1  0.4376480000000  0.4558920000000  0.5862720000000 1.0
C      1  0.5785370000000  0.4774700000000  0.5886310000000 1.0
C      1  0.5133420000000  0.4053560000000  0.5471550000000 1.0
C      1  0.5656660000000  0.5542900000000  0.5376250000000 1.0
C      1  0.4130190000000  0.5300600000000  0.5418420000000 1.0
C      1  0.4024960000000  0.4599810000000  0.4374060000000 1.0
C      1  0.5716080000000  0.4487400000000  0.3982160000000 1.0
C      1  0.5167940000000  0.6030350000000  0.4347890000000 1.0
C      1  0.4402920000000  0.4293290000000  0.4297860000000 1.0
C      1  0.5948690000000  0.4854300000000  0.4236280000000 1.0
C      1  0.4704710000000  0.5878060000000  0.4283640000000 1.0
C      1  0.4467400000000  0.5755680000000  0.4181540000000 1.0
C      1  0.4645250000000  0.4190540000000  0.4188200000000 1.0
C      1  0.6018940000000  0.5131550000000  0.4207890000000 1.0
C      1  0.5416570000000  0.3993920000000  0.5386420000000 1.0
C      1  0.5619290000000  0.5824250000000  0.5291330000000 1.0
C      1  0.3966400000000  0.5091710000000  0.5284120000000 1.0
C      1  0.4928530000000  0.3711740000000  0.4972760000000 1.0
C      1  0.6083360000000  0.5526890000000  0.4972500000000 1.0
C      1  0.3964730000000  0.5649000000000  0.4979540000000 1.0
C      1  0.5586510000000  0.4169910000000  0.5585230000000 1.0
C      1  0.5413860000000  0.5933770000000  0.5492980000000 1.0
C      1  0.3985930000000  0.4870930000000  0.5495320000000 1.0
C      1  0.4899990000000  0.4574090000000  0.4402100000000 1.0
C      1  0.5478090000000  0.4974450000000  0.4317330000000 1.0
C      1  0.4663800000000  0.5324330000000  0.4309110000000 1.0
C      1  0.4216430000000  0.4481250000000  0.4178630000000 1.0
C      1  0.5764890000000  0.4763260000000  0.4021560000000 1.0
C      1  0.4942750000000  0.5979830000000  0.4150420000000 1.0
C      1  0.6097510000000  0.4627830000000  0.5233310000000 1.0
C      1  0.4729650000000  0.6060730000000  0.5159090000000 1.0
C      1  0.4176600000000  0.4172730000000  0.5199500000000 1.0
C      1  0.4853550000000  0.4317050000000  0.5805110000000 1.0
C      1  0.5550500000000  0.5220840000000  0.5750630000000 1.0
C      1  0.4470320000000  0.5369070000000  0.5839210000000 1.0
C      1  0.5761130000000  0.5060110000000  0.5854540000000 1.0
C      1  0.4661150000000  0.5613650000000  0.5919410000000 1.0
C      1  0.4569090000000  0.4335360000000  0.5901350000000 1.0
C      1  0.5766680000000  0.5589800000000  0.4293010000000 1.0
C      1  0.4165550000000  0.5345080000000  0.4316680000000 1.0
C      1  0.5137730000000  0.4130600000000  0.4372080000000 1.0
C      1  0.5173600000000  0.5248710000000  0.5166320000000 1.0
C      1  0.4877460000000  0.5224320000000  0.5209850000000 1.0
C      1  0.4745320000000  0.4970960000000  0.5181470000000 1.0
C      1  0.4490440000000  0.4870010000000  0.3885800000000 1.0
C      1  0.5353300000000  0.5021860000000  0.3841370000000 1.0
C      1  0.4894210000000  0.5554400000000  0.3818140000000 1.0
C      1  0.4910260000000  0.4594450000000  0.5763260000000 1.0
C      1  0.5302130000000  0.5071010000000  0.5750830000000 1.0
C      1  0.4686700000000  0.5154360000000  0.5717870000000 1.0
C      1  0.4798590000000  0.5356780000000  0.5480720000000 1.0
C      1  0.5017350000000  0.4712820000000  0.5535940000000 1.0
C      1  0.5278450000000  0.4820900000000  0.5590310000000 1.0
C      1  0.4336100000000  0.4663760000000  0.3980090000000 1.0
C      1  0.5528150000000  0.4932270000000  0.4037280000000 1.0
C      1  0.4966420000000  0.5803430000000  0.3912590000000 1.0
C      1  0.5011580000000  0.4172740000000  0.5254070000000 1.0
C      1  0.5661570000000  0.5354300000000  0.5161620000000 1.0
C      1  0.4386720000000  0.5321270000000  0.5250070000000 1.0
C      1  0.5374550000000  0.3973950000000  0.5083730000000 1.0
C      1  0.5654290000000  0.5850850000000  0.4991990000000 1.0
C      1  0.3987380000000  0.5106980000000  0.4968270000000 1.0
C      1  0.3955920000000  0.5386320000000  0.4843700000000 1.0
C      1  0.5176690000000  0.3839830000000  0.4882540000000 1.0
C      1  0.5876310000000  0.5700710000000  0.4839070000000 1.0
C      1  0.4236960000000  0.4795130000000  0.5985950000000 1.0
C      1  0.5632460000000  0.4659440000000  0.6092530000000 1.0
C      1  0.5200920000000  0.5744030000000  0.5954570000000 1.0
C      1  0.5097220000000  0.6238110000000  0.4925240000000 1.0
C      1  0.3896320000000  0.4504380000000  0.4982270000000 1.0
C      1  0.5931650000000  0.4223250000000  0.5044710000000 1.0
C      1  0.5411320000000  0.5928420000000  0.4249130000000 1.0
C      1  0.3947280000000  0.4859780000000  0.4283960000000 1.0
C      1  0.5558930000000  0.4303840000000  0.4102510000000 1.0
C      1  0.4455480000000  0.3753300000000  0.4715670000000 1.0
C      1  0.6379420000000  0.5129060000000  0.4791210000000 1.0
C      1  0.4216030000000  0.6068710000000  0.4730650000000 1.0
C      1  0.5791390000000  0.5087740000000  0.5203290000000 1.0
C      1  0.4537240000000  0.5520120000000  0.5426190000000 1.0
C      1  0.4772230000000  0.4243790000000  0.5151760000000 1.0
C      1  0.4963700000000  0.5832250000000  0.5582260000000 1.0
C      1  0.4393320000000  0.4659070000000  0.5596800000000 1.0
C      1  0.5897070000000  0.4626680000000  0.5667310000000 1.0
C      1  0.5391120000000  0.4639030000000  0.6206830000000 1.0
C      1  0.5242470000000  0.5583110000000  0.6181820000000 1.0
C      1  0.4385700000000  0.4932440000000  0.6188460000000 1.0
C      1  0.5416450000000  0.5235450000000  0.4445900000000 1.0
C      1  0.4557030000000  0.5169640000000  0.4546050000000 1.0
C      1  0.5114610000000  0.4523110000000  0.4635840000000 1.0
C      1  0.6052520000000  0.4790880000000  0.5471840000000 1.0
C      1  0.4551080000000  0.6004470000000  0.5369900000000 1.0
C      1  0.4258780000000  0.3973900000000  0.5383680000000 1.0
C      1  0.5959840000000  0.4603680000000  0.4731300000000 1.0
C      1  0.4898700000000  0.5812070000000  0.4737610000000 1.0
C      1  0.4335480000000  0.4440230000000  0.4803280000000 1.0
C      1  0.4142270000000  0.5062350000000  0.4281920000000 1.0
C      1  0.5386930000000  0.4279760000000  0.4324140000000 1.0
C      1  0.5487230000000  0.5657040000000  0.4220590000000 1.0
C      1  0.5318550000000  0.4286150000000  0.5021850000000 1.0
C      1  0.5526150000000  0.5369350000000  0.4907330000000 1.0
C      1  0.4484890000000  0.5440030000000  0.4973330000000 1.0
C      1  0.4441710000000  0.3785450000000  0.5444140000000 1.0
C      1  0.6006510000000  0.5070290000000  0.5417990000000 1.0
C      1  0.4405570000000  0.5776510000000  0.5449820000000 1.0
C      1  0.5416360000000  0.4493120000000  0.4544490000000 1.0
C      1  0.5273140000000  0.5456850000000  0.4283060000000 1.0
C      1  0.4370900000000  0.4935050000000  0.4511510000000 1.0
C      1  0.5227270000000  0.5340010000000  0.4879510000000 1.0
C      1  0.4659930000000  0.4883100000000  0.4901820000000 1.0
C      1  0.5136280000000  0.4783880000000  0.5062740000000 1.0
C      1  0.4833780000000  0.5708150000000  0.4473150000000 1.0
C      1  0.4461520000000  0.4428170000000  0.4541470000000 1.0
C      1  0.5860920000000  0.4735860000000  0.4494770000000 1.0
C      1  0.5478870000000  0.4694120000000  0.5413330000000 1.0
C      1  0.5007270000000  0.5566070000000  0.5488930000000 1.0
C      1  0.4524820000000  0.4927150000000  0.5575640000000 1.0
C      1  0.5822520000000  0.4354270000000  0.5539620000000 1.0
C      1  0.5133600000000  0.6028630000000  0.5431290000000 1.0
C      1  0.4164410000000  0.4641770000000  0.5389500000000 1.0
C      1  0.6165200000000  0.5524130000000  0.5248980000000 1.0
C      1  0.3927100000000  0.5709370000000  0.5255150000000 1.0
C      1  0.4872790000000  0.3595840000000  0.5226210000000 1.0
C      1  0.4439720000000  0.5732930000000  0.4945740000000 1.0
C      1  0.4614900000000  0.4081190000000  0.4991030000000 1.0
C      1  0.5961080000000  0.5037530000000  0.4959110000000 1.0
C      1  0.5545010000000  0.4365990000000  0.4801850000000 1.0
C      1  0.5379450000000  0.5865360000000  0.4886200000000 1.0
C      1  0.4135520000000  0.4906470000000  0.4769650000000 1.0
C      1  0.5159150000000  0.6020650000000  0.4707150000000 1.0
C      1  0.4060080000000  0.4593520000000  0.4736850000000 1.0
C      1  0.5823690000000  0.4367190000000  0.4827150000000 1.0
C      1  0.4168660000000  0.5822860000000  0.4870490000000 1.0
C      1  0.4689700000000  0.3828940000000  0.4863200000000 1.0
C      1  0.6132000000000  0.5261800000000  0.4858850000000 1.0
C      1  0.5413290000000  0.4464030000000  0.5253870000000 1.0
C      1  0.5196060000000  0.5721920000000  0.5079040000000 1.0
C      1  0.4316130000000  0.4785580000000  0.5172800000000 1.0
C      1  0.5383530000000  0.4212530000000  0.5807610000000 1.0
C      1  0.5412170000000  0.5740680000000  0.5741300000000 1.0
C      1  0.4092240000000  0.4974080000000  0.5777820000000 1.0
C      1  0.4415780000000  0.5473720000000  0.4214940000000 1.0
C      1  0.4901910000000  0.4286130000000  0.4277090000000 1.0
C      1  0.5928570000000  0.5386300000000  0.4172060000000 1.0
C      1  0.5001780000000  0.5569240000000  0.4882980000000 1.0
C      1  0.4494440000000  0.4637930000000  0.4982200000000 1.0
C      1  0.5560000000000  0.4912150000000  0.5247070000000 1.0
C      1  0.5307320000000  0.4992790000000  0.5149710000000 1.0
C      1  0.4777460000000  0.5374750000000  0.4956510000000 1.0
C      1  0.4713240000000  0.4511930000000  0.5160710000000 1.0
C      1  0.5560630000000  0.5492420000000  0.5649570000000 1.0
C      1  0.4197380000000  0.5260260000000  0.5719430000000 1.0
C      1  0.5097690000000  0.4160680000000  0.5737860000000 1.0
C      1  0.5006050000000  0.4992700000000  0.4610820000000 1.0
C      1  0.4988110000000  0.4858490000000  0.4336450000000 1.0
END
