TITL C-3623284-6838-1820 33225.6062334615 125000 -258.438879125823 0 0 54 (C6h) n - 1
REM
REM in /home/nfs/bkarasulu/CARBON/AIRSS/Generating-Clusters/LCBOP/Higher-Symm/SD-CG/FIRE-CG
REM
REM
REM
REM
REM
REM ./C.cell (b20cbc046b6831c77cfcea5457e17084)
REM AIRSS Version 0.9.1 bugfix July 2018 build 013d7b7c2542+ Fri, 06 Jul 2018 19:26:36 +0100
REM compiler GCC version 9.2.1 20190827 (Red Hat 9.2.1-1)
REM options -cpp -mtune=generic -march=x86-64 -g -O0 -fpre-include=/usr/include/finclude/math-vector-fortran.h
REM seed -1684704255 -2130334499 1803375305 1462520640 1054388219 603256696 916907113 1966829990 -293974490 -2133081718 765085156 -779563623 -859663398 -1558601694 1037388360 464178887 2057740415 -637948467 -124261121 -900679495 -1376161446 477118422 -830799223 734242702 -1481155107 -1300475080 1351369433 652088684 -331831719 -1677013197 -798989469 1047673617 1373564931
REM
CELL 1.54180   50.00000   50.00000   50.00000   90.00000   90.00000   90.00000
LATT -1
SFAC C  
C      1  0.5250740000000  0.4740910000000  0.5149570000000 1.0
C      1  0.4995830000000  0.4740910000000  0.5291940000000 1.0
C      1  0.4745090000000  0.4740910000000  0.5142360000000 1.0
C      1  0.4749260000000  0.4740920000000  0.4850420000000 1.0
C      1  0.5004170000000  0.4740920000000  0.4708050000000 1.0
C      1  0.5254910000000  0.4740920000000  0.4857630000000 1.0
C      1  0.5250740000000  0.5227510000000  0.5149580000000 1.0
C      1  0.4995830000000  0.5227510000000  0.5291940000000 1.0
C      1  0.4745080000000  0.5227510000000  0.5142360000000 1.0
C      1  0.4749250000000  0.5227510000000  0.4850420000000 1.0
C      1  0.5004170000000  0.5227520000000  0.4708050000000 1.0
C      1  0.5254910000000  0.5227520000000  0.4857640000000 1.0
C      1  0.5484660000000  0.4550970000000  0.5191030000000 1.0
C      1  0.5076900000000  0.4550970000000  0.5515230000000 1.0
C      1  0.4592240000000  0.4550970000000  0.5324210000000 1.0
C      1  0.4515350000000  0.4550970000000  0.4808960000000 1.0
C      1  0.4923100000000  0.4550980000000  0.4484750000000 1.0
C      1  0.5407780000000  0.4550980000000  0.4675780000000 1.0
C      1  0.5484650000000  0.5417450000000  0.5191040000000 1.0
C      1  0.5076890000000  0.5417450000000  0.5515240000000 1.0
C      1  0.4592230000000  0.5417450000000  0.5324210000000 1.0
C      1  0.4515340000000  0.5417450000000  0.4808970000000 1.0
C      1  0.4923100000000  0.5417460000000  0.4484760000000 1.0
C      1  0.5407770000000  0.5417460000000  0.4675800000000 1.0
C      1  0.4940040000000  0.5678940000000  0.4670310000000 1.0
C      1  0.5255550000000  0.5678940000000  0.4783240000000 1.0
C      1  0.5315500000000  0.5678940000000  0.5112940000000 1.0
C      1  0.5059940000000  0.5678930000000  0.5329710000000 1.0
C      1  0.4744440000000  0.5678930000000  0.5216770000000 1.0
C      1  0.4684490000000  0.5678930000000  0.4887070000000 1.0
C      1  0.4940050000000  0.4289490000000  0.4670280000000 1.0
C      1  0.5255560000000  0.4289490000000  0.4783210000000 1.0
C      1  0.5315510000000  0.4289490000000  0.5112920000000 1.0
C      1  0.5059950000000  0.4289490000000  0.5329690000000 1.0
C      1  0.4744450000000  0.4289490000000  0.5216760000000 1.0
C      1  0.4684500000000  0.4289490000000  0.4887060000000 1.0
C      1  0.5743620000000  0.5163260000000  0.5191810000000 1.0
C      1  0.5205710000000  0.5163260000000  0.5739870000000 1.0
C      1  0.4462110000000  0.5163250000000  0.5548100000000 1.0
C      1  0.4256390000000  0.5163260000000  0.4808210000000 1.0
C      1  0.4794270000000  0.5163280000000  0.4260140000000 1.0
C      1  0.5537930000000  0.5163280000000  0.4451930000000 1.0
C      1  0.5743610000000  0.4805170000000  0.5191810000000 1.0
C      1  0.5205720000000  0.4805150000000  0.5739870000000 1.0
C      1  0.4462120000000  0.4805160000000  0.5548100000000 1.0
C      1  0.4256400000000  0.4805150000000  0.4808210000000 1.0
C      1  0.4794270000000  0.4805170000000  0.4260130000000 1.0
C      1  0.5537930000000  0.4805180000000  0.4451920000000 1.0
C      1  0.5409070000000  0.4984220000000  0.4823710000000 1.0
C      1  0.5051860000000  0.4984220000000  0.4557570000000 1.0
C      1  0.4590930000000  0.4984210000000  0.5176280000000 1.0
C      1  0.4642780000000  0.4984210000000  0.4733880000000 1.0
C      1  0.5357190000000  0.4984210000000  0.5266120000000 1.0
C      1  0.4948140000000  0.4984210000000  0.5442410000000 1.0
END
