TITL C-3623284-6838-503 -677171.322579173 125000 -244.01437671883 0 0 42 (C2h) n - 1
REM
REM in /home/nfs/bkarasulu/CARBON/AIRSS/Generating-Clusters/LCBOP/Higher-Symm/SD-CG/FIRE-CG
REM
REM
REM
REM
REM
REM ./C.cell (b20cbc046b6831c77cfcea5457e17084)
REM AIRSS Version 0.9.1 bugfix July 2018 build 013d7b7c2542+ Fri, 06 Jul 2018 19:26:36 +0100
REM compiler GCC version 9.2.1 20190827 (Red Hat 9.2.1-1)
REM options -cpp -mtune=generic -march=x86-64 -g -O0 -fpre-include=/usr/include/finclude/math-vector-fortran.h
REM seed 302473150 948706945 1800959238 -553243205 1484332943 916506949 -1023116418 899482583 -1359295583 1084722172 -127706612 209637133 -1201817344 500805542 -1363172599 157345278 -718246735 1900759958 -2134330306 1559344647 -1926708550 -1957422425 936954264 479126169 1780591817 242334018 2031288988 -1480407324 -2088381177 -173780123 152474000 1198178762 573389296
REM
CELL 1.54180   50.00000   50.00000   50.00000   90.00000   90.00000   90.00000
LATT -1
SFAC C  
C      1  0.5307160000000  0.5524780000000  0.4823320000000 1.0
C      1  0.4692650000000  0.5524400000000  0.5176320000000 1.0
C      1  0.5307230000000  0.4496260000000  0.4823490000000 1.0
C      1  0.4692980000000  0.4495830000000  0.5176850000000 1.0
C      1  0.4682790000000  0.5515450000000  0.4887040000000 1.0
C      1  0.5316980000000  0.5514720000000  0.5112540000000 1.0
C      1  0.4683030000000  0.4506040000000  0.4887650000000 1.0
C      1  0.5317270000000  0.4505330000000  0.5112770000000 1.0
C      1  0.4399190000000  0.4869350000000  0.4617560000000 1.0
C      1  0.5600790000000  0.4868880000000  0.5383010000000 1.0
C      1  0.4399190000000  0.5151850000000  0.4617090000000 1.0
C      1  0.5600730000000  0.5151380000000  0.5382750000000 1.0
C      1  0.5610200000000  0.4874210000000  0.4664940000000 1.0
C      1  0.4389800000000  0.4873120000000  0.5335600000000 1.0
C      1  0.5610210000000  0.5147340000000  0.4664460000000 1.0
C      1  0.4389750000000  0.5146240000000  0.5334720000000 1.0
C      1  0.4629470000000  0.5299400000000  0.5341370000000 1.0
C      1  0.5370400000000  0.5300300000000  0.4657720000000 1.0
C      1  0.4629640000000  0.4720220000000  0.5342480000000 1.0
C      1  0.5370420000000  0.4721160000000  0.4658350000000 1.0
C      1  0.5343240000000  0.5256770000000  0.5258130000000 1.0
C      1  0.4656670000000  0.5257570000000  0.4741340000000 1.0
C      1  0.5343370000000  0.4763190000000  0.5258550000000 1.0
C      1  0.4656740000000  0.4764000000000  0.4742070000000 1.0
C      1  0.5155590000000  0.5706610000000  0.5249560000000 1.0
C      1  0.4844320000000  0.5707560000000  0.4750510000000 1.0
C      1  0.5155930000000  0.4313140000000  0.5249410000000 1.0
C      1  0.4844230000000  0.4314090000000  0.4750510000000 1.0
C      1  0.4886160000000  0.5706680000000  0.5280820000000 1.0
C      1  0.5113780000000  0.5707540000000  0.4719360000000 1.0
C      1  0.4886490000000  0.4313120000000  0.5280690000000 1.0
C      1  0.5113640000000  0.4313980000000  0.4719140000000 1.0
C      1  0.5150260000000  0.5157700000000  0.4543310000000 1.0
C      1  0.4849640000000  0.5157050000000  0.5456160000000 1.0
C      1  0.5150260000000  0.4863650000000  0.4543740000000 1.0
C      1  0.4849760000000  0.4862930000000  0.5456740000000 1.0
C      1  0.4879420000000  0.5216130000000  0.4540930000000 1.0
C      1  0.5120450000000  0.5215410000000  0.5458550000000 1.0
C      1  0.4879420000000  0.4805230000000  0.4541450000000 1.0
C      1  0.5120590000000  0.4804670000000  0.5458980000000 1.0
C      1  0.4715740000000  0.5010970000000  0.4924960000000 1.0
C      1  0.5284400000000  0.5009870000000  0.5075050000000 1.0
END
