TITL C-3623286-7563-39 774.623001162629 125000 -731.515559064546 0 0 119 (C1) n - 1
REM
REM in /home/nfs/bkarasulu/CARBON/AIRSS/Generating-Clusters/LCBOP/Higher-Symm/SD-CG/FIRE-CG
REM
REM
REM
REM
REM
REM ./C.cell (b20cbc046b6831c77cfcea5457e17084)
REM AIRSS Version 0.9.1 bugfix July 2018 build 013d7b7c2542+ Fri, 06 Jul 2018 19:26:36 +0100
REM compiler GCC version 9.2.1 20190827 (Red Hat 9.2.1-1)
REM options -cpp -mtune=generic -march=x86-64 -g -O0 -fpre-include=/usr/include/finclude/math-vector-fortran.h
REM seed 140173909 -590007399 -548966842 -1668272156 800130837 1597639332 -1960423731 231384838 -1099998445 2046333169 -559134282 233980167 1512798398 -2059631811 -1631023110 1745468614 -1299569851 242434584 1388188278 -777794312 -1192515428 215546672 -42491096 -1997071733 1821923153 -1933509332 1898640378 -887760677 -932943214 -1072009891 103467705 1092971068 1996127403
REM
CELL 1.54180   50.00000   50.00000   50.00000   90.00000   90.00000   90.00000
LATT -1
SFAC C  
C      1  0.4778620000000  0.4061690000000  0.4719800000000 1.0
C      1  0.5908410000000  0.5278330000000  0.4723410000000 1.0
C      1  0.4305520000000  0.5644010000000  0.4726220000000 1.0
C      1  0.4779790000000  0.4064010000000  0.5300590000000 1.0
C      1  0.5902460000000  0.5275990000000  0.5297020000000 1.0
C      1  0.4311010000000  0.5642230000000  0.5295920000000 1.0
C      1  0.4663940000000  0.5315470000000  0.4768810000000 1.0
C      1  0.4842250000000  0.4518850000000  0.4757590000000 1.0
C      1  0.5472680000000  0.5048090000000  0.4732940000000 1.0
C      1  0.4663200000000  0.5315910000000  0.5249010000000 1.0
C      1  0.4843160000000  0.4518220000000  0.5259110000000 1.0
C      1  0.5472320000000  0.5046990000000  0.5284420000000 1.0
C      1  0.5203950000000  0.4485630000000  0.4293550000000 1.0
C      1  0.5347770000000  0.5403950000000  0.4275780000000 1.0
C      1  0.4436520000000  0.5097670000000  0.4274960000000 1.0
C      1  0.5204720000000  0.4486850000000  0.5725120000000 1.0
C      1  0.5342660000000  0.5404410000000  0.5741900000000 1.0
C      1  0.4439370000000  0.5094770000000  0.5745390000000 1.0
C      1  0.4716200000000  0.4087040000000  0.4216340000000 1.0
C      1  0.5971190000000  0.5268510000000  0.4219140000000 1.0
C      1  0.4340360000000  0.5701460000000  0.4225470000000 1.0
C      1  0.4719920000000  0.4087290000000  0.5804250000000 1.0
C      1  0.5964940000000  0.5268670000000  0.5801140000000 1.0
C      1  0.4349180000000  0.5699180000000  0.5796490000000 1.0
C      1  0.5571300000000  0.5489320000000  0.4444420000000 1.0
C      1  0.4258850000000  0.5252190000000  0.4447870000000 1.0
C      1  0.5142530000000  0.4242390000000  0.4445900000000 1.0
C      1  0.5566480000000  0.5490020000000  0.5574330000000 1.0
C      1  0.4261320000000  0.5250680000000  0.5574890000000 1.0
C      1  0.5144700000000  0.4243870000000  0.5573010000000 1.0
C      1  0.5832600000000  0.4761980000000  0.5280100000000 1.0
C      1  0.4829860000000  0.5759440000000  0.5255400000000 1.0
C      1  0.4371500000000  0.4420290000000  0.5261330000000 1.0
C      1  0.5841670000000  0.4768990000000  0.4732420000000 1.0
C      1  0.4818120000000  0.5760740000000  0.4754780000000 1.0
C      1  0.4373730000000  0.4414670000000  0.4756320000000 1.0
C      1  0.5065720000000  0.4722980000000  0.5626330000000 1.0
C      1  0.5170430000000  0.5201590000000  0.5625500000000 1.0
C      1  0.4694900000000  0.5035840000000  0.5625440000000 1.0
C      1  0.5064500000000  0.4723150000000  0.4389890000000 1.0
C      1  0.5171760000000  0.5202500000000  0.4390840000000 1.0
C      1  0.4694340000000  0.5037510000000  0.4391270000000 1.0
C      1  0.4304230000000  0.5544240000000  0.4451050000000 1.0
C      1  0.4869050000000  0.4127330000000  0.4444690000000 1.0
C      1  0.5824880000000  0.5333870000000  0.4445790000000 1.0
C      1  0.4309770000000  0.5542300000000  0.5571180000000 1.0
C      1  0.4871600000000  0.4128550000000  0.5575320000000 1.0
C      1  0.5819030000000  0.5333360000000  0.5574080000000 1.0
C      1  0.5501260000000  0.4295710000000  0.5164460000000 1.0
C      1  0.5356960000000  0.5790340000000  0.5165900000000 1.0
C      1  0.4093820000000  0.4915250000000  0.5167880000000 1.0
C      1  0.5498700000000  0.4284640000000  0.4852890000000 1.0
C      1  0.5369650000000  0.5791340000000  0.4853480000000 1.0
C      1  0.4089270000000  0.4922310000000  0.4856420000000 1.0
C      1  0.4132000000000  0.5170090000000  0.5312620000000 1.0
C      1  0.5273200000000  0.4177960000000  0.5307270000000 1.0
C      1  0.5551380000000  0.5629400000000  0.5308400000000 1.0
C      1  0.4129500000000  0.5172920000000  0.4710590000000 1.0
C      1  0.5270610000000  0.4172780000000  0.4710700000000 1.0
C      1  0.5558530000000  0.5629440000000  0.4709800000000 1.0
C      1  0.4658140000000  0.5060400000000  0.5343160000000 1.0
C      1  0.5052310000000  0.4675040000000  0.5347200000000 1.0
C      1  0.5245100000000  0.5191680000000  0.5346990000000 1.0
C      1  0.4658050000000  0.5060140000000  0.4673900000000 1.0
C      1  0.5050920000000  0.4675810000000  0.4669040000000 1.0
C      1  0.5245690000000  0.5193880000000  0.4669830000000 1.0
C      1  0.5461890000000  0.4554300000000  0.4202930000000 1.0
C      1  0.5305250000000  0.5510370000000  0.4022340000000 1.0
C      1  0.4361820000000  0.5013240000000  0.4021050000000 1.0
C      1  0.5461610000000  0.4555600000000  0.5818180000000 1.0
C      1  0.5296810000000  0.5511960000000  0.5994140000000 1.0
C      1  0.4366920000000  0.5008600000000  0.5999240000000 1.0
C      1  0.4582120000000  0.4608750000000  0.4730850000000 1.0
C      1  0.5630950000000  0.4875480000000  0.4565390000000 1.0
C      1  0.4883500000000  0.5482450000000  0.4742710000000 1.0
C      1  0.4584620000000  0.4611100000000  0.5285480000000 1.0
C      1  0.5627700000000  0.4872190000000  0.5452880000000 1.0
C      1  0.4884850000000  0.5478950000000  0.5274260000000 1.0
C      1  0.5771210000000  0.4511760000000  0.4834580000000 1.0
C      1  0.5046580000000  0.5912360000000  0.4816000000000 1.0
C      1  0.4139740000000  0.4564490000000  0.4835180000000 1.0
C      1  0.5747890000000  0.4507170000000  0.5168860000000 1.0
C      1  0.5073280000000  0.5892030000000  0.5180900000000 1.0
C      1  0.4141880000000  0.4592350000000  0.5178150000000 1.0
C      1  0.4303230000000  0.4925240000000  0.6237780000000 1.0
C      1  0.5603440000000  0.4756460000000  0.5706430000000 1.0
C      1  0.5247080000000  0.5610480000000  0.6230200000000 1.0
C      1  0.4295420000000  0.4931980000000  0.3782530000000 1.0
C      1  0.5602240000000  0.4757000000000  0.4313300000000 1.0
C      1  0.5260810000000  0.5607500000000  0.3784650000000 1.0
C      1  0.6092140000000  0.5199850000000  0.6017900000000 1.0
C      1  0.4404300000000  0.5837110000000  0.6010590000000 1.0
C      1  0.4570850000000  0.4067220000000  0.6017040000000 1.0
C      1  0.6098450000000  0.5198130000000  0.4002920000000 1.0
C      1  0.4391660000000  0.5840320000000  0.4011010000000 1.0
C      1  0.4565790000000  0.4067930000000  0.4004410000000 1.0
C      1  0.4535290000000  0.5789580000000  0.4858680000000 1.0
C      1  0.4518680000000  0.4163570000000  0.4858520000000 1.0
C      1  0.5964310000000  0.5013320000000  0.4861240000000 1.0
C      1  0.4540640000000  0.5789300000000  0.5159550000000 1.0
C      1  0.4518120000000  0.4165730000000  0.5161810000000 1.0
C      1  0.5960060000000  0.5010530000000  0.5157320000000 1.0
C      1  0.4141140000000  0.5432960000000  0.5154400000000 1.0
C      1  0.5047450000000  0.4037680000000  0.5153320000000 1.0
C      1  0.5767660000000  0.5496230000000  0.5149690000000 1.0
C      1  0.4139180000000  0.5434180000000  0.4868980000000 1.0
C      1  0.5046140000000  0.4035690000000  0.4866180000000 1.0
C      1  0.5772110000000  0.5497070000000  0.4869950000000 1.0
C      1  0.4578330000000  0.4864410000000  0.5156710000000 1.0
C      1  0.5227380000000  0.4726890000000  0.5140280000000 1.0
C      1  0.5111910000000  0.5351230000000  0.5155200000000 1.0
C      1  0.4576660000000  0.4863280000000  0.4858860000000 1.0
C      1  0.5228170000000  0.4726440000000  0.4874370000000 1.0
C      1  0.5112220000000  0.5354930000000  0.4860590000000 1.0
C      1  0.5529820000000  0.5050820000000  0.5008680000000 1.0
C      1  0.4890460000000  0.4411660000000  0.5008070000000 1.0
C      1  0.4535400000000  0.5342920000000  0.5008620000000 1.0
C      1  0.4975710000000  0.4990430000000  0.5695700000000 1.0
C      1  0.4975570000000  0.4991560000000  0.4320770000000 1.0
END
