TITL C-3623288-6813-282 -1.06971719357804e-07 125000 -529.225563867161 0 0 84 (C1) n - 1
REM
REM in /home/nfs/bkarasulu/CARBON/AIRSS/Generating-Clusters/LCBOP/Higher-Symm/SD-CG/FIRE-CG
REM
REM
REM
REM
REM
REM ./C.cell (b20cbc046b6831c77cfcea5457e17084)
REM AIRSS Version 0.9.1 bugfix July 2018 build 013d7b7c2542+ Fri, 06 Jul 2018 19:26:36 +0100
REM compiler GCC version 9.2.1 20190827 (Red Hat 9.2.1-1)
REM options -cpp -mtune=generic -march=x86-64 -g -O0 -fpre-include=/usr/include/finclude/math-vector-fortran.h
REM seed 1838565695 1020138081 -1820116615 -175194139 1385760098 -1772243922 1656377874 508352778 -1755858066 104729414 1189309149 2123619087 1156178889 500224029 -652127099 2097911341 1127011100 215757606 -704798734 -837618582 1832485353 -199982159 -103162080 -1496983330 -345518992 741911811 -2019978404 275422413 -1668939575 -1344957420 -513609003 -957708701 -1098817171
REM
CELL 1.54180   50.00000   50.00000   50.00000   90.00000   90.00000   90.00000
LATT -1
SFAC C  
C      1  0.5010470000000  0.4502940000000  0.5802340000000 1.0
C      1  0.5630760000000  0.4629520000000  0.5219250000000 1.0
C      1  0.5264900000000  0.4736790000000  0.4272480000000 1.0
C      1  0.4443100000000  0.4543490000000  0.4418960000000 1.0
C      1  0.4342850000000  0.4479100000000  0.5271600000000 1.0
C      1  0.5131220000000  0.4503000000000  0.4840750000000 1.0
C      1  0.4947500000000  0.4359970000000  0.4675310000000 1.0
C      1  0.4731840000000  0.4219990000000  0.4796030000000 1.0
C      1  0.4846670000000  0.4189850000000  0.5342480000000 1.0
C      1  0.5073660000000  0.4343730000000  0.5282590000000 1.0
C      1  0.5275240000000  0.5882340000000  0.4555640000000 1.0
C      1  0.5010430000000  0.6026590000000  0.4558210000000 1.0
C      1  0.4883320000000  0.6007530000000  0.4813490000000 1.0
C      1  0.5117050000000  0.6039810000000  0.4993210000000 1.0
C      1  0.5370400000000  0.5912280000000  0.4865270000000 1.0
C      1  0.5427270000000  0.4612800000000  0.4470570000000 1.0
C      1  0.4630100000000  0.4351620000000  0.4319500000000 1.0
C      1  0.4353660000000  0.4252580000000  0.5101090000000 1.0
C      1  0.4830520000000  0.4283900000000  0.5800950000000 1.0
C      1  0.5550600000000  0.4362800000000  0.5297090000000 1.0
C      1  0.4900920000000  0.4413020000000  0.4395070000000 1.0
C      1  0.4459760000000  0.4281730000000  0.4840440000000 1.0
C      1  0.4680810000000  0.4264810000000  0.5559920000000 1.0
C      1  0.5307040000000  0.4329040000000  0.5442710000000 1.0
C      1  0.5398320000000  0.4559130000000  0.4748930000000 1.0
C      1  0.5567290000000  0.5114230000000  0.4068120000000 1.0
C      1  0.4784240000000  0.4848330000000  0.4225120000000 1.0
C      1  0.4256230000000  0.4723380000000  0.4838140000000 1.0
C      1  0.4599330000000  0.4752310000000  0.5611630000000 1.0
C      1  0.5451560000000  0.4709710000000  0.5690340000000 1.0
C      1  0.4297020000000  0.4998150000000  0.4744070000000 1.0
C      1  0.4420040000000  0.4971280000000  0.5518070000000 1.0
C      1  0.5349800000000  0.4944650000000  0.5835220000000 1.0
C      1  0.5542170000000  0.5389630000000  0.4066120000000 1.0
C      1  0.4849250000000  0.5131280000000  0.4220630000000 1.0
C      1  0.5279620000000  0.5052480000000  0.5334080000000 1.0
C      1  0.5461110000000  0.4984060000000  0.4906040000000 1.0
C      1  0.4959550000000  0.4977150000000  0.4784910000000 1.0
C      1  0.4835230000000  0.5025220000000  0.5240920000000 1.0
C      1  0.4984500000000  0.5215070000000  0.5663590000000 1.0
C      1  0.5516630000000  0.5786060000000  0.5122770000000 1.0
C      1  0.5221270000000  0.5651670000000  0.4374780000000 1.0
C      1  0.4759790000000  0.5475480000000  0.4552110000000 1.0
C      1  0.4710860000000  0.5804690000000  0.4936290000000 1.0
C      1  0.5059150000000  0.5940280000000  0.5262360000000 1.0
C      1  0.5721590000000  0.5096420000000  0.5523810000000 1.0
C      1  0.5119210000000  0.5208800000000  0.4155490000000 1.0
C      1  0.4445560000000  0.5050220000000  0.4498040000000 1.0
C      1  0.4321720000000  0.4977590000000  0.5240720000000 1.0
C      1  0.5048420000000  0.4982440000000  0.5815620000000 1.0
C      1  0.4347140000000  0.4499950000000  0.4685320000000 1.0
C      1  0.4512530000000  0.4490980000000  0.5503350000000 1.0
C      1  0.5278550000000  0.4482450000000  0.5684620000000 1.0
C      1  0.5550160000000  0.4711550000000  0.4941670000000 1.0
C      1  0.4991770000000  0.4653380000000  0.4269310000000 1.0
C      1  0.5258580000000  0.5530110000000  0.5417190000000 1.0
C      1  0.5690170000000  0.5274170000000  0.5279670000000 1.0
C      1  0.5200990000000  0.5341870000000  0.4711400000000 1.0
C      1  0.4578680000000  0.5304840000000  0.4948760000000 1.0
C      1  0.4825940000000  0.5507360000000  0.5299950000000 1.0
C      1  0.5231840000000  0.5062880000000  0.4743480000000 1.0
C      1  0.4782100000000  0.5096950000000  0.4972070000000 1.0
C      1  0.4800890000000  0.5247890000000  0.5437380000000 1.0
C      1  0.5241360000000  0.5274080000000  0.5537100000000 1.0
C      1  0.5483450000000  0.5124190000000  0.5145370000000 1.0
C      1  0.5648380000000  0.4795680000000  0.5468770000000 1.0
C      1  0.5321970000000  0.4985480000000  0.4147550000000 1.0
C      1  0.4520720000000  0.4809180000000  0.4347610000000 1.0
C      1  0.4264900000000  0.4714370000000  0.5130700000000 1.0
C      1  0.4869400000000  0.4758380000000  0.5767630000000 1.0
C      1  0.4649130000000  0.5256090000000  0.4405020000000 1.0
C      1  0.4338370000000  0.5156220000000  0.4995620000000 1.0
C      1  0.4320160000000  0.5151120000000  0.5701050000000 1.0
C      1  0.5574910000000  0.5138890000000  0.5784480000000 1.0
C      1  0.5279150000000  0.5473430000000  0.4155730000000 1.0
C      1  0.4788860000000  0.5785990000000  0.5228010000000 1.0
C      1  0.5312820000000  0.5808140000000  0.5355730000000 1.0
C      1  0.5699470000000  0.5554650000000  0.5183660000000 1.0
C      1  0.5043430000000  0.5488110000000  0.4532710000000 1.0
C      1  0.4645580000000  0.5546980000000  0.4807580000000 1.0
C      1  0.5070020000000  0.4580710000000  0.5118100000000 1.0
C      1  0.5220980000000  0.5473810000000  0.4948000000000 1.0
C      1  0.5090350000000  0.5475200000000  0.5183950000000 1.0
C      1  0.5070330000000  0.4853910000000  0.5255020000000 1.0
END
