TITL C-3623288-6813-1646 19726.2435161318 125000 -1011.15045439177 0 0 168 (C1) n - 1
REM
REM in /home/nfs/bkarasulu/CARBON/AIRSS/Generating-Clusters/LCBOP/Higher-Symm/SD-CG/FIRE-CG
REM
REM
REM
REM
REM
REM ./C.cell (b20cbc046b6831c77cfcea5457e17084)
REM AIRSS Version 0.9.1 bugfix July 2018 build 013d7b7c2542+ Fri, 06 Jul 2018 19:26:36 +0100
REM compiler GCC version 9.2.1 20190827 (Red Hat 9.2.1-1)
REM options -cpp -mtune=generic -march=x86-64 -g -O0 -fpre-include=/usr/include/finclude/math-vector-fortran.h
REM seed -1620203738 107563193 -762183897 -920141078 575584088 1925716137 -453232450 -745189784 -950422383 -1179342999 -1802991908 463109393 576797097 1018046713 1627922879 780868676 -1772547558 858635949 -840504621 2122067084 168377159 -261844181 -1597721295 1750707729 -2017511943 -1799406411 -1203958201 207374094 -621073908 -121507484 688022586 389437911 -1249592722
REM
CELL 1.54180   50.00000   50.00000   50.00000   90.00000   90.00000   90.00000
LATT -1
SFAC C  
C      1  0.5499990000000  0.4841720000000  0.5511470000000 1.0
C      1  0.4887040000000  0.5638870000000  0.5447810000000 1.0
C      1  0.4629130000000  0.4659500000000  0.5534060000000 1.0
C      1  0.4817840000000  0.4504610000000  0.5122180000000 1.0
C      1  0.5571790000000  0.5273530000000  0.5109820000000 1.0
C      1  0.4719880000000  0.5324310000000  0.5171910000000 1.0
C      1  0.5487740000000  0.4394280000000  0.4920750000000 1.0
C      1  0.5326580000000  0.5923760000000  0.4893380000000 1.0
C      1  0.4211010000000  0.4853070000000  0.4981230000000 1.0
C      1  0.4390830000000  0.5633590000000  0.4833290000000 1.0
C      1  0.4679280000000  0.4083950000000  0.4757800000000 1.0
C      1  0.5876110000000  0.5138270000000  0.4810660000000 1.0
C      1  0.5381170000000  0.4899560000000  0.4761130000000 1.0
C      1  0.4831590000000  0.5395110000000  0.4925630000000 1.0
C      1  0.4646510000000  0.4516250000000  0.4919030000000 1.0
C      1  0.4390730000000  0.5061060000000  0.4928910000000 1.0
C      1  0.5210870000000  0.4419750000000  0.4867620000000 1.0
C      1  0.5353920000000  0.5643030000000  0.4808700000000 1.0
C      1  0.5027630000000  0.4064410000000  0.4393790000000 1.0
C      1  0.5827480000000  0.5466220000000  0.4451000000000 1.0
C      1  0.4190570000000  0.5415030000000  0.4446080000000 1.0
C      1  0.5068950000000  0.4396460000000  0.5118500000000 1.0
C      1  0.5463600000000  0.5521260000000  0.5050880000000 1.0
C      1  0.4467730000000  0.5208980000000  0.5169450000000 1.0
C      1  0.5902560000000  0.5642760000000  0.4956680000000 1.0
C      1  0.3986410000000  0.5352450000000  0.4944290000000 1.0
C      1  0.5159830000000  0.3923420000000  0.4901560000000 1.0
C      1  0.4863910000000  0.5343350000000  0.5423740000000 1.0
C      1  0.4870760000000  0.4785750000000  0.5174800000000 1.0
C      1  0.5365260000000  0.5100380000000  0.5177490000000 1.0
C      1  0.4448620000000  0.4416080000000  0.5576930000000 1.0
C      1  0.5781510000000  0.4759940000000  0.5572050000000 1.0
C      1  0.4799140000000  0.5903620000000  0.5533220000000 1.0
C      1  0.4057840000000  0.5159500000000  0.4375780000000 1.0
C      1  0.5318000000000  0.4086800000000  0.4337300000000 1.0
C      1  0.5684840000000  0.5722680000000  0.4393920000000 1.0
C      1  0.5089500000000  0.4796630000000  0.5993490000000 1.0
C      1  0.5085620000000  0.5157870000000  0.5994500000000 1.0
C      1  0.4767200000000  0.4985180000000  0.6016280000000 1.0
C      1  0.4167260000000  0.5483140000000  0.4738780000000 1.0
C      1  0.4948530000000  0.3989020000000  0.4685250000000 1.0
C      1  0.5894490000000  0.5419410000000  0.4742030000000 1.0
C      1  0.4620310000000  0.5614040000000  0.5977170000000 1.0
C      1  0.4659850000000  0.4336820000000  0.5997510000000 1.0
C      1  0.5709440000000  0.4985660000000  0.6016810000000 1.0
C      1  0.4401450000000  0.5083630000000  0.5412310000000 1.0
C      1  0.5208870000000  0.4452160000000  0.5360090000000 1.0
C      1  0.5317750000000  0.5578860000000  0.5289930000000 1.0
C      1  0.4775610000000  0.6330980000000  0.4632420000000 1.0
C      1  0.3889370000000  0.4541640000000  0.4872090000000 1.0
C      1  0.5919930000000  0.4244360000000  0.4850470000000 1.0
C      1  0.5136820000000  0.5956530000000  0.5111430000000 1.0
C      1  0.4264190000000  0.4688800000000  0.5209780000000 1.0
C      1  0.5604760000000  0.4525730000000  0.5153130000000 1.0
C      1  0.4725760000000  0.4963180000000  0.3931620000000 1.0
C      1  0.5137630000000  0.4776940000000  0.3932680000000 1.0
C      1  0.5364130000000  0.5186900000000  0.3887620000000 1.0
C      1  0.5466400000000  0.3919190000000  0.4514500000000 1.0
C      1  0.5791430000000  0.5925690000000  0.4568120000000 1.0
C      1  0.3838220000000  0.5103380000000  0.4551450000000 1.0
C      1  0.5462550000000  0.5628220000000  0.5533860000000 1.0
C      1  0.4189390000000  0.5102960000000  0.5607980000000 1.0
C      1  0.5279650000000  0.4253410000000  0.5556350000000 1.0
C      1  0.5159630000000  0.5842630000000  0.4207740000000 1.0
C      1  0.4220420000000  0.4676680000000  0.4165600000000 1.0
C      1  0.5672470000000  0.4476670000000  0.4152220000000 1.0
C      1  0.5365940000000  0.4928050000000  0.4308160000000 1.0
C      1  0.4871420000000  0.5317460000000  0.4294270000000 1.0
C      1  0.4767900000000  0.4731320000000  0.4332160000000 1.0
C      1  0.5556610000000  0.4763370000000  0.6032910000000 1.0
C      1  0.4886980000000  0.5584080000000  0.5985340000000 1.0
C      1  0.4534580000000  0.4575320000000  0.6037140000000 1.0
C      1  0.4827760000000  0.4477300000000  0.4481650000000 1.0
C      1  0.5598790000000  0.5064340000000  0.4400830000000 1.0
C      1  0.4666610000000  0.5434730000000  0.4467730000000 1.0
C      1  0.6015050000000  0.4874860000000  0.5452150000000 1.0
C      1  0.4541650000000  0.5981420000000  0.5426780000000 1.0
C      1  0.4433130000000  0.4170150000000  0.5422320000000 1.0
C      1  0.5851160000000  0.4684380000000  0.4128470000000 1.0
C      1  0.4883130000000  0.5858690000000  0.4179640000000 1.0
C      1  0.4328500000000  0.4426830000000  0.4153300000000 1.0
C      1  0.5746650000000  0.4333090000000  0.5336130000000 1.0
C      1  0.5259750000000  0.6104540000000  0.5346560000000 1.0
C      1  0.4030690000000  0.4643020000000  0.5389400000000 1.0
C      1  0.4802080000000  0.4892310000000  0.4930660000000 1.0
C      1  0.5229550000000  0.5057730000000  0.4935880000000 1.0
C      1  0.5074670000000  0.5278290000000  0.4837190000000 1.0
C      1  0.5809230000000  0.5354360000000  0.3986400000000 1.0
C      1  0.4485410000000  0.5374070000000  0.4034490000000 1.0
C      1  0.4885400000000  0.4410970000000  0.4008530000000 1.0
C      1  0.5305250000000  0.4967470000000  0.4038070000000 1.0
C      1  0.4728500000000  0.5219460000000  0.4051720000000 1.0
C      1  0.4865440000000  0.4715550000000  0.4032330000000 1.0
C      1  0.3849830000000  0.5110300000000  0.4835960000000 1.0
C      1  0.5440350000000  0.3937230000000  0.4796670000000 1.0
C      1  0.5807620000000  0.5903900000000  0.4852610000000 1.0
C      1  0.5076130000000  0.5706500000000  0.5243270000000 1.0
C      1  0.4444770000000  0.4811200000000  0.5381880000000 1.0
C      1  0.5412850000000  0.4639290000000  0.5326570000000 1.0
C      1  0.5671840000000  0.4957880000000  0.4672930000000 1.0
C      1  0.4676890000000  0.5568630000000  0.4734900000000 1.0
C      1  0.4612430000000  0.4372020000000  0.4669400000000 1.0
C      1  0.4693110000000  0.6106360000000  0.4761700000000 1.0
C      1  0.4108700000000  0.4337650000000  0.4822690000000 1.0
C      1  0.5983780000000  0.4536810000000  0.4828600000000 1.0
C      1  0.5362810000000  0.4027360000000  0.5371940000000 1.0
C      1  0.5683540000000  0.5793780000000  0.5422160000000 1.0
C      1  0.3954100000000  0.5137050000000  0.5419120000000 1.0
C      1  0.4513300000000  0.4230270000000  0.4209460000000 1.0
C      1  0.5959960000000  0.4938200000000  0.4158100000000 1.0
C      1  0.4607430000000  0.5806240000000  0.4196370000000 1.0
C      1  0.4185660000000  0.5586730000000  0.5684380000000 1.0
C      1  0.4870170000000  0.3990840000000  0.5648390000000 1.0
C      1  0.5915910000000  0.5346960000000  0.5690990000000 1.0
C      1  0.4822620000000  0.4252840000000  0.4257890000000 1.0
C      1  0.5818400000000  0.5208160000000  0.4255780000000 1.0
C      1  0.4440070000000  0.5541860000000  0.4285960000000 1.0
C      1  0.4157800000000  0.4503380000000  0.5610810000000 1.0
C      1  0.5812200000000  0.4468100000000  0.5577580000000 1.0
C      1  0.5035350000000  0.6092140000000  0.5542580000000 1.0
C      1  0.3905810000000  0.4845610000000  0.4975900000000 1.0
C      1  0.5636980000000  0.4123050000000  0.4932040000000 1.0
C      1  0.5589070000000  0.6023150000000  0.4995100000000 1.0
C      1  0.5127730000000  0.3929690000000  0.5207970000000 1.0
C      1  0.5886380000000  0.5618360000000  0.5265310000000 1.0
C      1  0.4003440000000  0.5388260000000  0.5248020000000 1.0
C      1  0.4157510000000  0.5602070000000  0.5399810000000 1.0
C      1  0.4872950000000  0.3952160000000  0.5360290000000 1.0
C      1  0.5964040000000  0.5371130000000  0.5408880000000 1.0
C      1  0.4518590000000  0.4859460000000  0.5987640000000 1.0
C      1  0.5312690000000  0.4631720000000  0.5960910000000 1.0
C      1  0.5118480000000  0.5427660000000  0.5929820000000 1.0
C      1  0.4622200000000  0.4024630000000  0.5247160000000 1.0
C      1  0.6017880000000  0.5118730000000  0.5286000000000 1.0
C      1  0.4338790000000  0.5797100000000  0.5294060000000 1.0
C      1  0.5561540000000  0.6037580000000  0.5293410000000 1.0
C      1  0.3862110000000  0.4874390000000  0.5295600000000 1.0
C      1  0.5626120000000  0.4078840000000  0.5245610000000 1.0
C      1  0.5337550000000  0.5539220000000  0.5775830000000 1.0
C      1  0.4288410000000  0.4995270000000  0.5862040000000 1.0
C      1  0.5307350000000  0.4377190000000  0.5817080000000 1.0
C      1  0.4154490000000  0.4932860000000  0.4228720000000 1.0
C      1  0.5475070000000  0.4294320000000  0.4207900000000 1.0
C      1  0.5425110000000  0.5781150000000  0.4265190000000 1.0
C      1  0.4633650000000  0.4923140000000  0.4489680000000 1.0
C      1  0.5249190000000  0.4772350000000  0.4531660000000 1.0
C      1  0.5131090000000  0.5386150000000  0.4384850000000 1.0
C      1  0.4781450000000  0.4136160000000  0.5860660000000 1.0
C      1  0.5826070000000  0.5196840000000  0.5896480000000 1.0
C      1  0.4371340000000  0.5603150000000  0.5878460000000 1.0
C      1  0.6035370000000  0.5015390000000  0.5010450000000 1.0
C      1  0.4362120000000  0.5850120000000  0.5010610000000 1.0
C      1  0.4504280000000  0.4017890000000  0.4977090000000 1.0
C      1  0.4607880000000  0.4989120000000  0.4760400000000 1.0
C      1  0.5104460000000  0.4535620000000  0.4617530000000 1.0
C      1  0.5211810000000  0.5450980000000  0.4649530000000 1.0
C      1  0.6114950000000  0.4722070000000  0.5010480000000 1.0
C      1  0.4500720000000  0.6105400000000  0.4968100000000 1.0
C      1  0.4215680000000  0.4124080000000  0.4994990000000 1.0
C      1  0.4792930000000  0.5847400000000  0.4705700000000 1.0
C      1  0.4312030000000  0.4399290000000  0.4627090000000 1.0
C      1  0.5813300000000  0.4687550000000  0.4654760000000 1.0
C      1  0.4871680000000  0.4826710000000  0.5463790000000 1.0
C      1  0.5303070000000  0.5051710000000  0.5450760000000 1.0
C      1  0.5013420000000  0.5085190000000  0.5504130000000 1.0
C      1  0.6169940000000  0.4682910000000  0.5291250000000 1.0
C      1  0.4550530000000  0.6202430000000  0.5234390000000 1.0
C      1  0.4177990000000  0.4130280000000  0.5281980000000 1.0
END
