TITL C-3623288-6813-39 -1.28059736564285e-06 125000 -552.970708869633 0 0 91 (C1) n - 1
REM
REM in /home/nfs/bkarasulu/CARBON/AIRSS/Generating-Clusters/LCBOP/Higher-Symm/SD-CG/FIRE-CG
REM
REM
REM
REM
REM
REM ./C.cell (b20cbc046b6831c77cfcea5457e17084)
REM AIRSS Version 0.9.1 bugfix July 2018 build 013d7b7c2542+ Fri, 06 Jul 2018 19:26:36 +0100
REM compiler GCC version 9.2.1 20190827 (Red Hat 9.2.1-1)
REM options -cpp -mtune=generic -march=x86-64 -g -O0 -fpre-include=/usr/include/finclude/math-vector-fortran.h
REM seed -725135600 359082977 125471996 1840009361 -443124983 1317141356 -1111152479 1546916381 -2128759496 -349663528 -2102632829 1848613665 718914593 778976171 432130009 461553648 1106436629 1015645352 80791772 -1340158979 1771088739 -1033480902 -1416696846 -723403413 -262048864 1486027007 -733357200 122384641 -577070885 -1728531241 2035314333 1825159565 1850383299
REM
CELL 1.54180   50.00000   50.00000   50.00000   90.00000   90.00000   90.00000
LATT -1
SFAC C  
C      1  0.5617710000000  0.5036320000000  0.4449920000000 1.0
C      1  0.5744200000000  0.5015470000000  0.5443270000000 1.0
C      1  0.4815180000000  0.5015530000000  0.5841470000000 1.0
C      1  0.4162620000000  0.5034690000000  0.5079620000000 1.0
C      1  0.4636280000000  0.5003510000000  0.4189620000000 1.0
C      1  0.5838840000000  0.4638690000000  0.5107530000000 1.0
C      1  0.5160560000000  0.4630410000000  0.5847210000000 1.0
C      1  0.4284490000000  0.4672190000000  0.5409470000000 1.0
C      1  0.4360770000000  0.4614510000000  0.4408520000000 1.0
C      1  0.5334120000000  0.4665050000000  0.4250690000000 1.0
C      1  0.4995370000000  0.4225090000000  0.5253850000000 1.0
C      1  0.4759140000000  0.4223540000000  0.5080250000000 1.0
C      1  0.4848490000000  0.4220670000000  0.4800160000000 1.0
C      1  0.5142220000000  0.4222010000000  0.4802830000000 1.0
C      1  0.5232020000000  0.4224990000000  0.5082590000000 1.0
C      1  0.5501530000000  0.4493730000000  0.5438500000000 1.0
C      1  0.4750100000000  0.4500500000000  0.5613820000000 1.0
C      1  0.4361320000000  0.4522650000000  0.4951420000000 1.0
C      1  0.4834440000000  0.4489560000000  0.4354220000000 1.0
C      1  0.5534600000000  0.4523970000000  0.4671670000000 1.0
C      1  0.4512320000000  0.4489820000000  0.5431760000000 1.0
C      1  0.4437350000000  0.4481890000000  0.4662160000000 1.0
C      1  0.5135410000000  0.4482360000000  0.4365910000000 1.0
C      1  0.5639680000000  0.4489010000000  0.4951140000000 1.0
C      1  0.5254190000000  0.4472630000000  0.5614870000000 1.0
C      1  0.5201850000000  0.5604450000000  0.4381080000000 1.0
C      1  0.5642600000000  0.5582450000000  0.5005030000000 1.0
C      1  0.5192000000000  0.5607630000000  0.5629730000000 1.0
C      1  0.4470650000000  0.5581100000000  0.5379670000000 1.0
C      1  0.4471170000000  0.5592380000000  0.4614710000000 1.0
C      1  0.4730050000000  0.4789530000000  0.5029370000000 1.0
C      1  0.4774720000000  0.4857210000000  0.4588890000000 1.0
C      1  0.5171090000000  0.4793840000000  0.4789930000000 1.0
C      1  0.5366350000000  0.4826020000000  0.5196300000000 1.0
C      1  0.4964740000000  0.4821070000000  0.5415960000000 1.0
C      1  0.4728390000000  0.4888510000000  0.5290320000000 1.0
C      1  0.4609520000000  0.4909860000000  0.4804390000000 1.0
C      1  0.5045580000000  0.4911330000000  0.4566810000000 1.0
C      1  0.5389370000000  0.4896150000000  0.4931770000000 1.0
C      1  0.5221890000000  0.4914740000000  0.5411910000000 1.0
C      1  0.5116050000000  0.5315330000000  0.5222500000000 1.0
C      1  0.4833220000000  0.5310230000000  0.5179810000000 1.0
C      1  0.4779030000000  0.5319820000000  0.4900260000000 1.0
C      1  0.5030710000000  0.5320770000000  0.4761790000000 1.0
C      1  0.5234500000000  0.5315290000000  0.4961140000000 1.0
C      1  0.5234890000000  0.5186440000000  0.5447570000000 1.0
C      1  0.4653100000000  0.5152000000000  0.5336460000000 1.0
C      1  0.4550010000000  0.5177740000000  0.4808150000000 1.0
C      1  0.5087030000000  0.5178310000000  0.4520690000000 1.0
C      1  0.5468500000000  0.5160730000000  0.4905640000000 1.0
C      1  0.4895930000000  0.5565830000000  0.5653220000000 1.0
C      1  0.4346390000000  0.5570310000000  0.5109460000000 1.0
C      1  0.4693570000000  0.5558260000000  0.4415080000000 1.0
C      1  0.5458250000000  0.5578530000000  0.4533210000000 1.0
C      1  0.5583370000000  0.5561080000000  0.5297640000000 1.0
C      1  0.5152810000000  0.5333500000000  0.4297700000000 1.0
C      1  0.5703490000000  0.5313090000000  0.4921300000000 1.0
C      1  0.5296720000000  0.5343210000000  0.5670430000000 1.0
C      1  0.4464690000000  0.5307870000000  0.5473270000000 1.0
C      1  0.4370380000000  0.5325790000000  0.4651950000000 1.0
C      1  0.4700980000000  0.4357530000000  0.4598020000000 1.0
C      1  0.5282790000000  0.4364990000000  0.4600960000000 1.0
C      1  0.5469410000000  0.4360430000000  0.5160800000000 1.0
C      1  0.4999110000000  0.4357020000000  0.5505920000000 1.0
C      1  0.4527050000000  0.4367830000000  0.5157850000000 1.0
C      1  0.5337970000000  0.4742400000000  0.3989210000000 1.0
C      1  0.6088370000000  0.4702090000000  0.5018500000000 1.0
C      1  0.5315520000000  0.4692300000000  0.6062710000000 1.0
C      1  0.4131510000000  0.4753070000000  0.5620220000000 1.0
C      1  0.4103970000000  0.4666510000000  0.4334060000000 1.0
C      1  0.4866650000000  0.5831840000000  0.5220970000000 1.0
C      1  0.4747940000000  0.5835290000000  0.4948000000000 1.0
C      1  0.4969090000000  0.5835210000000  0.4749800000000 1.0
C      1  0.5226640000000  0.5835050000000  0.4901350000000 1.0
C      1  0.5163020000000  0.5834640000000  0.5191030000000 1.0
C      1  0.4604490000000  0.4688730000000  0.4233050000000 1.0
C      1  0.5539140000000  0.4750710000000  0.4454280000000 1.0
C      1  0.5735970000000  0.4714600000000  0.5386240000000 1.0
C      1  0.4867230000000  0.4715830000000  0.5821570000000 1.0
C      1  0.4232710000000  0.4751340000000  0.5124160000000 1.0
C      1  0.5334300000000  0.5712830000000  0.5391640000000 1.0
C      1  0.4729640000000  0.5702580000000  0.5442690000000 1.0
C      1  0.4493210000000  0.5712310000000  0.4885250000000 1.0
C      1  0.4949090000000  0.5710700000000  0.4486980000000 1.0
C      1  0.5469290000000  0.5710120000000  0.4803090000000 1.0
C      1  0.5599820000000  0.5315740000000  0.4466110000000 1.0
C      1  0.5700130000000  0.5294380000000  0.5414620000000 1.0
C      1  0.4825510000000  0.5294300000000  0.5791640000000 1.0
C      1  0.4186300000000  0.5313510000000  0.5077840000000 1.0
C      1  0.4665050000000  0.5282670000000  0.4252440000000 1.0
C      1  0.4977560000000  0.4668630000000  0.4957280000000 1.0
END
