TITL C-3623284-6838-1081 8946.66494474808 125000 -965.566630837225 0 0 157 (C1) n - 1
REM
REM in /home/nfs/bkarasulu/CARBON/AIRSS/Generating-Clusters/LCBOP/Higher-Symm/SD-CG/FIRE-CG
REM
REM
REM
REM
REM
REM ./C.cell (b20cbc046b6831c77cfcea5457e17084)
REM AIRSS Version 0.9.1 bugfix July 2018 build 013d7b7c2542+ Fri, 06 Jul 2018 19:26:36 +0100
REM compiler GCC version 9.2.1 20190827 (Red Hat 9.2.1-1)
REM options -cpp -mtune=generic -march=x86-64 -g -O0 -fpre-include=/usr/include/finclude/math-vector-fortran.h
REM seed 2057511363 -1885600135 -1567884354 464968629 -1572778225 -1075369027 1125915642 277637009 -1470028007 6996509 1839780845 676162974 -898899285 1734595705 -1112130797 490035413 -1370166883 -1171845081 433273474 1974815637 -701674495 -1679690656 45194565 -1241435132 597078066 1281971639 -983842501 -1323220295 -1043686815 -186343710 313180994 639762719 -1047881176
REM
CELL 1.54180   50.00000   50.00000   50.00000   90.00000   90.00000   90.00000
LATT -1
SFAC C  
C      1  0.4836770000000  0.4794510000000  0.4874280000000 1.0
C      1  0.5246840000000  0.4965710000000  0.4857400000000 1.0
C      1  0.4890170000000  0.5230490000000  0.4858020000000 1.0
C      1  0.4915640000000  0.5704920000000  0.5760550000000 1.0
C      1  0.4428860000000  0.4577250000000  0.5781670000000 1.0
C      1  0.5639470000000  0.4730700000000  0.5773600000000 1.0
C      1  0.3978350000000  0.4474830000000  0.5030800000000 1.0
C      1  0.5910010000000  0.4326650000000  0.5006740000000 1.0
C      1  0.5144160000000  0.6114340000000  0.5025120000000 1.0
C      1  0.5307390000000  0.6009280000000  0.4600060000000 1.0
C      1  0.3950090000000  0.4703420000000  0.4628770000000 1.0
C      1  0.5707590000000  0.4246410000000  0.4591090000000 1.0
C      1  0.5136610000000  0.4270570000000  0.4085480000000 1.0
C      1  0.5583980000000  0.5521130000000  0.4095890000000 1.0
C      1  0.4277290000000  0.5328240000000  0.4172510000000 1.0
C      1  0.3877160000000  0.5116230000000  0.4337070000000 1.0
C      1  0.5363030000000  0.4170110000000  0.4190560000000 1.0
C      1  0.5558300000000  0.5767900000000  0.4199400000000 1.0
C      1  0.5841700000000  0.4975680000000  0.5105560000000 1.0
C      1  0.4603050000000  0.5751500000000  0.5103390000000 1.0
C      1  0.4544410000000  0.4254330000000  0.5108810000000 1.0
C      1  0.4352790000000  0.5116690000000  0.5701540000000 1.0
C      1  0.5217270000000  0.4396120000000  0.5701650000000 1.0
C      1  0.5423610000000  0.5502510000000  0.5700230000000 1.0
C      1  0.5458970000000  0.5950400000000  0.4370070000000 1.0
C      1  0.3843700000000  0.4868200000000  0.4432190000000 1.0
C      1  0.5570620000000  0.4157360000000  0.4361320000000 1.0
C      1  0.4483720000000  0.5804190000000  0.4235340000000 1.0
C      1  0.4617790000000  0.4169310000000  0.4239530000000 1.0
C      1  0.5924540000000  0.5098580000000  0.4249780000000 1.0
C      1  0.6065460000000  0.5368210000000  0.5646700000000 1.0
C      1  0.4136840000000  0.5712220000000  0.5588510000000 1.0
C      1  0.4820970000000  0.3897740000000  0.5635880000000 1.0
C      1  0.4720240000000  0.5022460000000  0.4756810000000 1.0
C      1  0.5095850000000  0.4748770000000  0.4755340000000 1.0
C      1  0.5145370000000  0.5208890000000  0.4738710000000 1.0
C      1  0.4500550000000  0.5502810000000  0.5934550000000 1.0
C      1  0.4819080000000  0.4332290000000  0.5955120000000 1.0
C      1  0.5668910000000  0.5184800000000  0.5958560000000 1.0
C      1  0.4674140000000  0.5617380000000  0.4632970000000 1.0
C      1  0.4627010000000  0.4414920000000  0.4646360000000 1.0
C      1  0.5688480000000  0.4981400000000  0.4641110000000 1.0
C      1  0.4170630000000  0.4517800000000  0.4610520000000 1.0
C      1  0.5784150000000  0.4524650000000  0.4607520000000 1.0
C      1  0.5026850000000  0.5936010000000  0.4613820000000 1.0
C      1  0.4590640000000  0.3969340000000  0.4754320000000 1.0
C      1  0.6113360000000  0.5113970000000  0.4769980000000 1.0
C      1  0.4322110000000  0.5879600000000  0.4736590000000 1.0
C      1  0.5401870000000  0.6042480000000  0.4882450000000 1.0
C      1  0.3898720000000  0.4737820000000  0.4914430000000 1.0
C      1  0.5721740000000  0.4138750000000  0.4868600000000 1.0
C      1  0.4699060000000  0.5100890000000  0.4050850000000 1.0
C      1  0.5067680000000  0.4744760000000  0.4029780000000 1.0
C      1  0.5200300000000  0.5232490000000  0.4027120000000 1.0
C      1  0.4465470000000  0.5329700000000  0.5282200000000 1.0
C      1  0.4972600000000  0.4371940000000  0.5286790000000 1.0
C      1  0.5543630000000  0.5303210000000  0.5279630000000 1.0
C      1  0.5074200000000  0.4729790000000  0.6047300000000 1.0
C      1  0.5195410000000  0.5219190000000  0.6045410000000 1.0
C      1  0.4711790000000  0.5079740000000  0.6046730000000 1.0
C      1  0.5941920000000  0.5581450000000  0.4682620000000 1.0
C      1  0.4139630000000  0.5375720000000  0.4645430000000 1.0
C      1  0.5110510000000  0.4028230000000  0.4700850000000 1.0
C      1  0.4469440000000  0.5795530000000  0.4513210000000 1.0
C      1  0.4604710000000  0.4150090000000  0.4517410000000 1.0
C      1  0.5946160000000  0.5069300000000  0.4526870000000 1.0
C      1  0.5470420000000  0.5507570000000  0.4773480000000 1.0
C      1  0.4306450000000  0.5177470000000  0.4777490000000 1.0
C      1  0.5163700000000  0.4309970000000  0.4766110000000 1.0
C      1  0.4522110000000  0.5610580000000  0.5333930000000 1.0
C      1  0.4706580000000  0.4262940000000  0.5340250000000 1.0
C      1  0.5764260000000  0.5121690000000  0.5334280000000 1.0
C      1  0.3886610000000  0.4377110000000  0.5267970000000 1.0
C      1  0.6032910000000  0.4272480000000  0.5243920000000 1.0
C      1  0.5134800000000  0.6242450000000  0.5265030000000 1.0
C      1  0.5273190000000  0.4931880000000  0.6049580000000 1.0
C      1  0.4920380000000  0.5292070000000  0.6044010000000 1.0
C      1  0.4786440000000  0.4804590000000  0.6050750000000 1.0
C      1  0.4386690000000  0.4626000000000  0.5521800000000 1.0
C      1  0.5614050000000  0.4669530000000  0.5514070000000 1.0
C      1  0.4987060000000  0.5706230000000  0.5502440000000 1.0
C      1  0.4445670000000  0.5306700000000  0.4994180000000 1.0
C      1  0.4997740000000  0.4371980000000  0.4996780000000 1.0
C      1  0.5526540000000  0.5325020000000  0.4989440000000 1.0
C      1  0.4895260000000  0.6044850000000  0.4858790000000 1.0
C      1  0.4159620000000  0.4321400000000  0.4841240000000 1.0
C      1  0.5957260000000  0.4580180000000  0.4846140000000 1.0
C      1  0.5004640000000  0.5571110000000  0.5271470000000 1.0
C      1  0.4489040000000  0.4706420000000  0.5287670000000 1.0
C      1  0.5491190000000  0.4712190000000  0.5279560000000 1.0
C      1  0.4934460000000  0.5375510000000  0.5101380000000 1.0
C      1  0.4691410000000  0.4756340000000  0.5118500000000 1.0
C      1  0.5354320000000  0.4861320000000  0.5103040000000 1.0
C      1  0.5511740000000  0.3948070000000  0.4938330000000 1.0
C      1  0.5652380000000  0.5893700000000  0.4938560000000 1.0
C      1  0.3866700000000  0.5005520000000  0.5008990000000 1.0
C      1  0.6020000000000  0.5558630000000  0.5143270000000 1.0
C      1  0.3991440000000  0.5530310000000  0.5095670000000 1.0
C      1  0.5028890000000  0.3853210000000  0.5136600000000 1.0
C      1  0.5090910000000  0.4533100000000  0.5483240000000 1.0
C      1  0.5353530000000  0.5327320000000  0.5483750000000 1.0
C      1  0.4535050000000  0.5146120000000  0.5481920000000 1.0
C      1  0.4549000000000  0.5348460000000  0.4085160000000 1.0
C      1  0.4945000000000  0.4483410000000  0.4056090000000 1.0
C      1  0.5490190000000  0.5251700000000  0.4063430000000 1.0
C      1  0.4722150000000  0.4380610000000  0.4909100000000 1.0
C      1  0.5659980000000  0.5087410000000  0.4898230000000 1.0
C      1  0.4591950000000  0.5540400000000  0.4894730000000 1.0
C      1  0.5412060000000  0.4005260000000  0.5426490000000 1.0
C      1  0.5709470000000  0.5837380000000  0.5427460000000 1.0
C      1  0.3916450000000  0.5187230000000  0.5442610000000 1.0
C      1  0.5570150000000  0.4717800000000  0.4521070000000 1.0
C      1  0.4964710000000  0.5653570000000  0.4518580000000 1.0
C      1  0.4438830000000  0.4638660000000  0.4532270000000 1.0
C      1  0.4889880000000  0.3814140000000  0.5387020000000 1.0
C      1  0.6114040000000  0.5460360000000  0.5397380000000 1.0
C      1  0.4035300000000  0.5688660000000  0.5336120000000 1.0
C      1  0.6074220000000  0.5406990000000  0.4879500000000 1.0
C      1  0.4102850000000  0.5615400000000  0.4824950000000 1.0
C      1  0.4884030000000  0.3908580000000  0.4864680000000 1.0
C      1  0.4517280000000  0.4642100000000  0.4236820000000 1.0
C      1  0.5546390000000  0.4798020000000  0.4228570000000 1.0
C      1  0.4923960000000  0.5619300000000  0.4218280000000 1.0
C      1  0.5433430000000  0.5363180000000  0.5947750000000 1.0
C      1  0.4468120000000  0.5208220000000  0.5943780000000 1.0
C      1  0.5088390000000  0.4454010000000  0.5948040000000 1.0
C      1  0.5226760000000  0.5456460000000  0.4640830000000 1.0
C      1  0.4461890000000  0.4965630000000  0.4662370000000 1.0
C      1  0.5264690000000  0.4553700000000  0.4646310000000 1.0
C      1  0.5684640000000  0.5687450000000  0.4735040000000 1.0
C      1  0.4078730000000  0.5309820000000  0.4373350000000 1.0
C      1  0.5349340000000  0.3873770000000  0.4710660000000 1.0
C      1  0.5815270000000  0.5789450000000  0.5166400000000 1.0
C      1  0.3907150000000  0.5246110000000  0.5162230000000 1.0
C      1  0.5327350000000  0.3918680000000  0.5169620000000 1.0
C      1  0.5553190000000  0.4915870000000  0.5965910000000 1.0
C      1  0.4791970000000  0.5539210000000  0.5950160000000 1.0
C      1  0.4638260000000  0.4563930000000  0.5967920000000 1.0
C      1  0.4783340000000  0.4077470000000  0.5835270000000 1.0
C      1  0.5914750000000  0.5266400000000  0.5846040000000 1.0
C      1  0.4302780000000  0.5656970000000  0.5797550000000 1.0
C      1  0.5560560000000  0.5737720000000  0.5627870000000 1.0
C      1  0.4079210000000  0.5111190000000  0.5641300000000 1.0
C      1  0.5375170000000  0.4174460000000  0.5631480000000 1.0
C      1  0.5667620000000  0.5043730000000  0.4140980000000 1.0
C      1  0.4655720000000  0.5609470000000  0.4123150000000 1.0
C      1  0.4677990000000  0.4426570000000  0.4134340000000 1.0
C      1  0.5100930000000  0.5496220000000  0.4046790000000 1.0
C      1  0.4529780000000  0.4877450000000  0.4090050000000 1.0
C      1  0.5346300000000  0.4711310000000  0.4059410000000 1.0
C      1  0.6045270000000  0.4858590000000  0.4936470000000 1.0
C      1  0.4612760000000  0.5980400000000  0.4943790000000 1.0
C      1  0.4368650000000  0.4114240000000  0.4925250000000 1.0
C      1  0.5150530000000  0.5143180000000  0.5508200000000 1.0
C      1  0.4794210000000  0.5056930000000  0.5505030000000 1.0
C      1  0.5038470000000  0.4802710000000  0.5501480000000 1.0
C      1  0.4986420000000  0.5027400000000  0.4025480000000 1.0
END
