TITL C-3623287-7182-1639 4.23260216668953e-06 125000 -965.349630395628 0 0 159 (C1) n - 1
REM
REM in /home/nfs/bkarasulu/CARBON/AIRSS/Generating-Clusters/LCBOP/Higher-Symm/SD-CG/FIRE-CG
REM
REM
REM
REM
REM
REM ./C.cell (b20cbc046b6831c77cfcea5457e17084)
REM AIRSS Version 0.9.1 bugfix July 2018 build 013d7b7c2542+ Fri, 06 Jul 2018 19:26:36 +0100
REM compiler GCC version 9.2.1 20190827 (Red Hat 9.2.1-1)
REM options -cpp -mtune=generic -march=x86-64 -g -O0 -fpre-include=/usr/include/finclude/math-vector-fortran.h
REM seed -2089006463 -266216175 -2079619834 -1812927423 1015839876 -1042521776 1959021874 -216067037 1850900284 -2022222373 1880445059 839157811 357181871 -1196645597 1129219694 557547815 1327207906 220609528 -1764140569 -1839897519 1870817359 1774435290 -1314204551 1187975557 -259111471 687701937 1461308113 1455300056 2116563846 848520489 756701874 -1540407515 1376293754
REM
CELL 1.54180   50.00000   50.00000   50.00000   90.00000   90.00000   90.00000
LATT -1
SFAC C  
C      1  0.5441120000000  0.5032990000000  0.5531730000000 1.0
C      1  0.5389460000000  0.5385750000000  0.4690720000000 1.0
C      1  0.5453940000000  0.4487320000000  0.4770930000000 1.0
C      1  0.5604980000000  0.5168090000000  0.6036240000000 1.0
C      1  0.5578820000000  0.5728900000000  0.4343930000000 1.0
C      1  0.5625000000000  0.4004050000000  0.4650300000000 1.0
C      1  0.6126290000000  0.4736940000000  0.5394400000000 1.0
C      1  0.6095850000000  0.5475950000000  0.5041190000000 1.0
C      1  0.6121510000000  0.4781440000000  0.4531430000000 1.0
C      1  0.4382350000000  0.4799620000000  0.3910020000000 1.0
C      1  0.4428870000000  0.4135270000000  0.5776350000000 1.0
C      1  0.4331790000000  0.6035280000000  0.5392040000000 1.0
C      1  0.4827520000000  0.3902120000000  0.5527260000000 1.0
C      1  0.4702270000000  0.5850420000000  0.5733660000000 1.0
C      1  0.4688590000000  0.5196470000000  0.3984220000000 1.0
C      1  0.4791710000000  0.5567810000000  0.5006810000000 1.0
C      1  0.4822670000000  0.4697750000000  0.4667310000000 1.0
C      1  0.4813400000000  0.4797450000000  0.5509910000000 1.0
C      1  0.3992650000000  0.5533500000000  0.4743950000000 1.0
C      1  0.3931600000000  0.4641910000000  0.4644510000000 1.0
C      1  0.3965490000000  0.5059870000000  0.5511820000000 1.0
C      1  0.5265140000000  0.4596860000000  0.5279620000000 1.0
C      1  0.5267630000000  0.5440250000000  0.5231130000000 1.0
C      1  0.5297860000000  0.4806400000000  0.4363780000000 1.0
C      1  0.3934190000000  0.5335770000000  0.4550390000000 1.0
C      1  0.3877740000000  0.4761230000000  0.4895510000000 1.0
C      1  0.3847850000000  0.5237610000000  0.5327430000000 1.0
C      1  0.4862940000000  0.4346820000000  0.5763180000000 1.0
C      1  0.4794090000000  0.6001220000000  0.5283130000000 1.0
C      1  0.4893050000000  0.4756320000000  0.3977580000000 1.0
C      1  0.4590330000000  0.4075060000000  0.3798060000000 1.0
C      1  0.4514230000000  0.4916760000000  0.5915650000000 1.0
C      1  0.4527730000000  0.5883710000000  0.4644100000000 1.0
C      1  0.4968660000000  0.5182600000000  0.4404330000000 1.0
C      1  0.5006560000000  0.4224220000000  0.5282400000000 1.0
C      1  0.5005050000000  0.5623670000000  0.5525370000000 1.0
C      1  0.5085220000000  0.3833620000000  0.5627730000000 1.0
C      1  0.4963850000000  0.5982220000000  0.5779050000000 1.0
C      1  0.4938810000000  0.5189480000000  0.3822620000000 1.0
C      1  0.4173860000000  0.4967720000000  0.3851680000000 1.0
C      1  0.4257660000000  0.3922860000000  0.5778420000000 1.0
C      1  0.4116510000000  0.6078860000000  0.5553260000000 1.0
C      1  0.5362410000000  0.5386230000000  0.4095460000000 1.0
C      1  0.5444600000000  0.4013990000000  0.5084020000000 1.0
C      1  0.5406490000000  0.5545760000000  0.5847500000000 1.0
C      1  0.5669850000000  0.4411830000000  0.4351880000000 1.0
C      1  0.5669190000000  0.4741630000000  0.5796550000000 1.0
C      1  0.5647130000000  0.5791660000000  0.4833280000000 1.0
C      1  0.5353860000000  0.4926270000000  0.4595950000000 1.0
C      1  0.5462060000000  0.4764020000000  0.5147700000000 1.0
C      1  0.5431090000000  0.5241310000000  0.5121210000000 1.0
C      1  0.5433920000000  0.3884670000000  0.4830960000000 1.0
C      1  0.5388920000000  0.5353850000000  0.6056450000000 1.0
C      1  0.5360850000000  0.5660030000000  0.4171930000000 1.0
C      1  0.5458450000000  0.4662850000000  0.5978580000000 1.0
C      1  0.5459170000000  0.6003510000000  0.4788370000000 1.0
C      1  0.5417830000000  0.4318330000000  0.4233480000000 1.0
C      1  0.4592380000000  0.5966250000000  0.5490770000000 1.0
C      1  0.4632290000000  0.4905360000000  0.3992710000000 1.0
C      1  0.4703230000000  0.4113520000000  0.5690000000000 1.0
C      1  0.5166440000000  0.3752370000000  0.4850450000000 1.0
C      1  0.5097590000000  0.5361510000000  0.6122770000000 1.0
C      1  0.5081190000000  0.5744400000000  0.4158580000000 1.0
C      1  0.5057040000000  0.4110750000000  0.3981030000000 1.0
C      1  0.4991860000000  0.4820620000000  0.6120070000000 1.0
C      1  0.4991830000000  0.6098270000000  0.4562850000000 1.0
C      1  0.5418480000000  0.5695120000000  0.5273880000000 1.0
C      1  0.5477920000000  0.4800910000000  0.4141860000000 1.0
C      1  0.5441040000000  0.4438620000000  0.5478600000000 1.0
C      1  0.4430420000000  0.4958000000000  0.4672270000000 1.0
C      1  0.4500010000000  0.4588290000000  0.5221270000000 1.0
C      1  0.4487560000000  0.5417080000000  0.5340350000000 1.0
C      1  0.5475010000000  0.4152990000000  0.5528280000000 1.0
C      1  0.5420190000000  0.5871760000000  0.5516170000000 1.0
C      1  0.5381250000000  0.4946780000000  0.3914480000000 1.0
C      1  0.4351710000000  0.4524770000000  0.3866710000000 1.0
C      1  0.4348180000000  0.4397780000000  0.5861500000000 1.0
C      1  0.4318870000000  0.6055120000000  0.5103900000000 1.0
C      1  0.5006350000000  0.4621710000000  0.5130120000000 1.0
C      1  0.4966140000000  0.5253190000000  0.5311690000000 1.0
C      1  0.4844230000000  0.5194240000000  0.4654330000000 1.0
C      1  0.4497340000000  0.5365740000000  0.5634560000000 1.0
C      1  0.4404040000000  0.5440100000000  0.4374310000000 1.0
C      1  0.4564310000000  0.4056310000000  0.5144870000000 1.0
C      1  0.5150740000000  0.4332390000000  0.4127560000000 1.0
C      1  0.5184740000000  0.4620190000000  0.6042910000000 1.0
C      1  0.5233270000000  0.6098580000000  0.4679310000000 1.0
C      1  0.4493530000000  0.4637740000000  0.5840930000000 1.0
C      1  0.4511500000000  0.5957710000000  0.4918450000000 1.0
C      1  0.4412230000000  0.4272480000000  0.3810370000000 1.0
C      1  0.5605740000000  0.4618870000000  0.4961820000000 1.0
C      1  0.5498460000000  0.5013230000000  0.5258570000000 1.0
C      1  0.5517470000000  0.5147620000000  0.4627330000000 1.0
C      1  0.5886300000000  0.5531810000000  0.5223450000000 1.0
C      1  0.5886500000000  0.4895120000000  0.4419170000000 1.0
C      1  0.5905350000000  0.4569210000000  0.5332610000000 1.0
C      1  0.4990360000000  0.4571870000000  0.4852350000000 1.0
C      1  0.4965190000000  0.5039790000000  0.5506950000000 1.0
C      1  0.4909340000000  0.5440620000000  0.4787140000000 1.0
C      1  0.5168090000000  0.5527310000000  0.4726270000000 1.0
C      1  0.5198190000000  0.4424640000000  0.4739300000000 1.0
C      1  0.5203330000000  0.5027670000000  0.5653050000000 1.0
C      1  0.5721690000000  0.4697580000000  0.4269970000000 1.0
C      1  0.5690770000000  0.4582040000000  0.5545950000000 1.0
C      1  0.5666620000000  0.5693550000000  0.5112430000000 1.0
C      1  0.4749900000000  0.4943760000000  0.6081450000000 1.0
C      1  0.4741600000000  0.6012160000000  0.4512970000000 1.0
C      1  0.4841730000000  0.4010960000000  0.3859490000000 1.0
C      1  0.5758440000000  0.5022630000000  0.5836510000000 1.0
C      1  0.5732700000000  0.5657390000000  0.4579990000000 1.0
C      1  0.5773940000000  0.4251290000000  0.4587980000000 1.0
C      1  0.5200910000000  0.4142810000000  0.5133810000000 1.0
C      1  0.5174410000000  0.5520450000000  0.5690480000000 1.0
C      1  0.5165100000000  0.5250250000000  0.4243740000000 1.0
C      1  0.4820420000000  0.4575850000000  0.4411820000000 1.0
C      1  0.4743160000000  0.4598060000000  0.5701450000000 1.0
C      1  0.4737890000000  0.5843770000000  0.5055490000000 1.0
C      1  0.4258750000000  0.5540980000000  0.4856710000000 1.0
C      1  0.4070260000000  0.4755720000000  0.4441850000000 1.0
C      1  0.4231010000000  0.4952290000000  0.5509620000000 1.0
C      1  0.4949980000000  0.6225030000000  0.5261970000000 1.0
C      1  0.4954220000000  0.4546530000000  0.4163650000000 1.0
C      1  0.5071440000000  0.4374930000000  0.5950260000000 1.0
C      1  0.4621410000000  0.5427650000000  0.4160300000000 1.0
C      1  0.4764170000000  0.3868190000000  0.5235430000000 1.0
C      1  0.4659720000000  0.5557160000000  0.5814860000000 1.0
C      1  0.4423700000000  0.5617560000000  0.4613210000000 1.0
C      1  0.4476670000000  0.4312100000000  0.5152140000000 1.0
C      1  0.4412470000000  0.5089990000000  0.5704510000000 1.0
C      1  0.6110400000000  0.5423570000000  0.4777760000000 1.0
C      1  0.6157590000000  0.4552640000000  0.4670990000000 1.0
C      1  0.6130480000000  0.4971210000000  0.5527530000000 1.0
C      1  0.4851670000000  0.5448070000000  0.6018560000000 1.0
C      1  0.4825690000000  0.5640470000000  0.4152650000000 1.0
C      1  0.4948870000000  0.3754720000000  0.5029200000000 1.0
C      1  0.4240140000000  0.4979230000000  0.4468350000000 1.0
C      1  0.4270760000000  0.4752260000000  0.5292010000000 1.0
C      1  0.4268940000000  0.5483780000000  0.5151170000000 1.0
C      1  0.3725250000000  0.5004940000000  0.4884040000000 1.0
C      1  0.3675890000000  0.5137620000000  0.5128020000000 1.0
C      1  0.3736340000000  0.5152790000000  0.4640380000000 1.0
C      1  0.4046610000000  0.4715610000000  0.5117000000000 1.0
C      1  0.4008620000000  0.5460520000000  0.5266430000000 1.0
C      1  0.4173720000000  0.5250000000000  0.4403740000000 1.0
C      1  0.5903110000000  0.5414600000000  0.4585420000000 1.0
C      1  0.5957350000000  0.4387090000000  0.4790200000000 1.0
C      1  0.5931170000000  0.5146100000000  0.5631580000000 1.0
C      1  0.5482750000000  0.5216220000000  0.3905920000000 1.0
C      1  0.5607340000000  0.4022280000000  0.5310030000000 1.0
C      1  0.5565950000000  0.5747450000000  0.5734660000000 1.0
C      1  0.5196890000000  0.6020030000000  0.5633400000000 1.0
C      1  0.5094730000000  0.4935230000000  0.3855890000000 1.0
C      1  0.5308690000000  0.3978470000000  0.5674690000000 1.0
C      1  0.5883840000000  0.5382100000000  0.5471160000000 1.0
C      1  0.5785050000000  0.5152710000000  0.4526580000000 1.0
C      1  0.5851410000000  0.4499420000000  0.5046950000000 1.0
C      1  0.4741440000000  0.5389590000000  0.5218460000000 1.0
C      1  0.4704020000000  0.4953290000000  0.4710790000000 1.0
C      1  0.4764260000000  0.4690790000000  0.5256000000000 1.0
END
