TITL C-3623285-6872-1921 -4.33882385291972e-07 125000 -855.75288504408 0 0 136 (C1) n - 1
REM
REM in /home/nfs/bkarasulu/CARBON/AIRSS/Generating-Clusters/LCBOP/Higher-Symm/SD-CG/FIRE-CG
REM
REM
REM
REM
REM
REM ./C.cell (b20cbc046b6831c77cfcea5457e17084)
REM AIRSS Version 0.9.1 bugfix July 2018 build 013d7b7c2542+ Fri, 06 Jul 2018 19:26:36 +0100
REM compiler GCC version 9.2.1 20190827 (Red Hat 9.2.1-1)
REM options -cpp -mtune=generic -march=x86-64 -g -O0 -fpre-include=/usr/include/finclude/math-vector-fortran.h
REM seed 7937541 651323092 1693991894 -2145522247 -720640430 -1548222890 68552906 1149150173 1242145313 -794201841 -1151815784 1256660254 2055069557 672280762 1651140828 -1741078356 -1556464009 -1227819686 358880056 -631215380 -546654978 -1441872285 -1341477820 1083702640 -1974539324 -1187435688 332683551 1661946012 803693827 -1732668831 -2083454614 555531537 -769900553
REM
CELL 1.54180   50.00000   50.00000   50.00000   90.00000   90.00000   90.00000
LATT -1
SFAC C  
C      1  0.5587240000000  0.5422920000000  0.5223740000000 1.0
C      1  0.5541100000000  0.5155720000000  0.5309110000000 1.0
C      1  0.5574180000000  0.4932230000000  0.5142580000000 1.0
C      1  0.5588750000000  0.4965020000000  0.4859800000000 1.0
C      1  0.5593250000000  0.5229800000000  0.4724940000000 1.0
C      1  0.5298520000000  0.6097390000000  0.4580850000000 1.0
C      1  0.5302220000000  0.5813090000000  0.5883340000000 1.0
C      1  0.5271090000000  0.4275470000000  0.6068260000000 1.0
C      1  0.5288410000000  0.3773530000000  0.4638870000000 1.0
C      1  0.5269970000000  0.4965670000000  0.3730920000000 1.0
C      1  0.4997500000000  0.4524460000000  0.5041240000000 1.0
C      1  0.4975810000000  0.4833830000000  0.4552830000000 1.0
C      1  0.4927770000000  0.5400840000000  0.4702200000000 1.0
C      1  0.4917520000000  0.5438600000000  0.5265670000000 1.0
C      1  0.4951890000000  0.4861230000000  0.5496350000000 1.0
C      1  0.4661780000000  0.4793140000000  0.4136630000000 1.0
C      1  0.4603660000000  0.5770400000000  0.4538980000000 1.0
C      1  0.4599970000000  0.5711840000000  0.5578220000000 1.0
C      1  0.4657730000000  0.4655570000000  0.5844590000000 1.0
C      1  0.4695200000000  0.4112890000000  0.4950080000000 1.0
C      1  0.4947210000000  0.4571320000000  0.5859970000000 1.0
C      1  0.4987660000000  0.4081070000000  0.4873130000000 1.0
C      1  0.4947030000000  0.4844830000000  0.4073660000000 1.0
C      1  0.4885660000000  0.5854570000000  0.4560690000000 1.0
C      1  0.4884080000000  0.5739890000000  0.5645980000000 1.0
C      1  0.5732870000000  0.5692550000000  0.5588280000000 1.0
C      1  0.5685540000000  0.4467090000000  0.5851140000000 1.0
C      1  0.5685370000000  0.4066730000000  0.4689540000000 1.0
C      1  0.5685670000000  0.4927130000000  0.4015240000000 1.0
C      1  0.5670550000000  0.5713600000000  0.4602930000000 1.0
C      1  0.4518830000000  0.4552050000000  0.4227630000000 1.0
C      1  0.4465420000000  0.5590190000000  0.4344390000000 1.0
C      1  0.4442220000000  0.5817890000000  0.5347600000000 1.0
C      1  0.4521860000000  0.4919120000000  0.5894710000000 1.0
C      1  0.4516700000000  0.4142810000000  0.5189890000000 1.0
C      1  0.5670140000000  0.4618910000000  0.5612940000000 1.0
C      1  0.5670200000000  0.4323260000000  0.4803340000000 1.0
C      1  0.5649760000000  0.4936220000000  0.4299270000000 1.0
C      1  0.5765520000000  0.5455070000000  0.4684040000000 1.0
C      1  0.5809420000000  0.5526160000000  0.5367570000000 1.0
C      1  0.4241150000000  0.5625830000000  0.5212700000000 1.0
C      1  0.4304470000000  0.5004570000000  0.5701180000000 1.0
C      1  0.4301690000000  0.4367910000000  0.5200210000000 1.0
C      1  0.4326220000000  0.4584000000000  0.4453300000000 1.0
C      1  0.4272450000000  0.5386190000000  0.4456000000000 1.0
C      1  0.4741100000000  0.4073420000000  0.4248330000000 1.0
C      1  0.4706840000000  0.5428320000000  0.3896100000000 1.0
C      1  0.4710570000000  0.6184370000000  0.5047480000000 1.0
C      1  0.4780520000000  0.5339940000000  0.6123440000000 1.0
C      1  0.4711690000000  0.3996790000000  0.5664790000000 1.0
C      1  0.4253030000000  0.5620290000000  0.4910560000000 1.0
C      1  0.4290740000000  0.5292140000000  0.5608510000000 1.0
C      1  0.4294940000000  0.4546740000000  0.5451310000000 1.0
C      1  0.4354900000000  0.4413120000000  0.4696640000000 1.0
C      1  0.4299560000000  0.5093510000000  0.4381330000000 1.0
C      1  0.5092640000000  0.5262800000000  0.5101470000000 1.0
C      1  0.5093960000000  0.5019710000000  0.5288830000000 1.0
C      1  0.5133890000000  0.4785620000000  0.5095580000000 1.0
C      1  0.5134860000000  0.4882940000000  0.4806580000000 1.0
C      1  0.5117550000000  0.5190220000000  0.4801420000000 1.0
C      1  0.5228410000000  0.5375820000000  0.5611710000000 1.0
C      1  0.5399390000000  0.4642870000000  0.5508320000000 1.0
C      1  0.5414140000000  0.4455240000000  0.4796110000000 1.0
C      1  0.5370120000000  0.5022340000000  0.4362360000000 1.0
C      1  0.5257620000000  0.5687360000000  0.4886970000000 1.0
C      1  0.4535650000000  0.5205880000000  0.4908430000000 1.0
C      1  0.4536300000000  0.5155930000000  0.5184530000000 1.0
C      1  0.4564190000000  0.4880130000000  0.5218460000000 1.0
C      1  0.4585260000000  0.4764440000000  0.4967110000000 1.0
C      1  0.4568370000000  0.4963750000000  0.4776370000000 1.0
C      1  0.5123630000000  0.4871130000000  0.4307770000000 1.0
C      1  0.5055250000000  0.5652070000000  0.4683650000000 1.0
C      1  0.5047800000000  0.5560360000000  0.5486840000000 1.0
C      1  0.5128680000000  0.4686090000000  0.5650130000000 1.0
C      1  0.5163240000000  0.4324450000000  0.4911010000000 1.0
C      1  0.5543100000000  0.5783040000000  0.5760550000000 1.0
C      1  0.5527540000000  0.4336480000000  0.6023050000000 1.0
C      1  0.5545690000000  0.3845120000000  0.4640210000000 1.0
C      1  0.5527600000000  0.4938720000000  0.3798770000000 1.0
C      1  0.5519690000000  0.5937500000000  0.4567820000000 1.0
C      1  0.4155960000000  0.4804860000000  0.5524540000000 1.0
C      1  0.4181910000000  0.4447360000000  0.4933800000000 1.0
C      1  0.4167690000000  0.4839490000000  0.4481010000000 1.0
C      1  0.4113350000000  0.5468070000000  0.4697360000000 1.0
C      1  0.4124470000000  0.5395970000000  0.5380940000000 1.0
C      1  0.4646400000000  0.5116920000000  0.6057010000000 1.0
C      1  0.4587610000000  0.4011490000000  0.5429300000000 1.0
C      1  0.4615080000000  0.4294710000000  0.4169790000000 1.0
C      1  0.4566810000000  0.5556320000000  0.4083690000000 1.0
C      1  0.4547680000000  0.6043180000000  0.5208170000000 1.0
C      1  0.4881130000000  0.3929120000000  0.4423140000000 1.0
C      1  0.4861390000000  0.5232870000000  0.3800130000000 1.0
C      1  0.4883330000000  0.6233220000000  0.4846030000000 1.0
C      1  0.4913130000000  0.5572420000000  0.6092960000000 1.0
C      1  0.4861240000000  0.4096710000000  0.5861940000000 1.0
C      1  0.5918940000000  0.4731110000000  0.5494710000000 1.0
C      1  0.5901650000000  0.4421580000000  0.4941650000000 1.0
C      1  0.5888600000000  0.4842820000000  0.4462390000000 1.0
C      1  0.6038720000000  0.5393960000000  0.4736860000000 1.0
C      1  0.6050170000000  0.5363360000000  0.5332600000000 1.0
C      1  0.5015860000000  0.5001980000000  0.3844600000000 1.0
C      1  0.5014050000000  0.6103520000000  0.4630240000000 1.0
C      1  0.5020670000000  0.5753290000000  0.5901970000000 1.0
C      1  0.5016070000000  0.4310940000000  0.5957150000000 1.0
C      1  0.5042260000000  0.3905670000000  0.4652190000000 1.0
C      1  0.6050930000000  0.4664480000000  0.4319050000000 1.0
C      1  0.6247030000000  0.5554930000000  0.4667670000000 1.0
C      1  0.6281730000000  0.5437710000000  0.5460820000000 1.0
C      1  0.6134400000000  0.4737120000000  0.5671060000000 1.0
C      1  0.6069240000000  0.4238750000000  0.5060700000000 1.0
C      1  0.3961730000000  0.4837840000000  0.4684510000000 1.0
C      1  0.3871110000000  0.5331130000000  0.4737180000000 1.0
C      1  0.3936670000000  0.5196720000000  0.5300550000000 1.0
C      1  0.3953010000000  0.4932780000000  0.5368570000000 1.0
C      1  0.3973380000000  0.4631480000000  0.4880310000000 1.0
C      1  0.5983020000000  0.4838530000000  0.5229550000000 1.0
C      1  0.5968080000000  0.4696420000000  0.4965890000000 1.0
C      1  0.5993220000000  0.4889250000000  0.4737470000000 1.0
C      1  0.6071950000000  0.5144270000000  0.4868660000000 1.0
C      1  0.6053750000000  0.5124430000000  0.5164380000000 1.0
C      1  0.5406090000000  0.4704730000000  0.5223100000000 1.0
C      1  0.5413790000000  0.4751800000000  0.4741650000000 1.0
C      1  0.5347670000000  0.5221890000000  0.4579450000000 1.0
C      1  0.5375420000000  0.5529490000000  0.5079510000000 1.0
C      1  0.5314260000000  0.5140590000000  0.5480320000000 1.0
C      1  0.4516500000000  0.5662510000000  0.4796450000000 1.0
C      1  0.4538280000000  0.5428040000000  0.5576330000000 1.0
C      1  0.4555260000000  0.4580540000000  0.5581250000000 1.0
C      1  0.4613950000000  0.4337910000000  0.4783660000000 1.0
C      1  0.4568030000000  0.5004610000000  0.4311980000000 1.0
C      1  0.4716570000000  0.4947510000000  0.4547860000000 1.0
C      1  0.4669190000000  0.5422460000000  0.4810670000000 1.0
C      1  0.4670540000000  0.5331790000000  0.5344110000000 1.0
C      1  0.4702260000000  0.4763650000000  0.5421960000000 1.0
C      1  0.4743450000000  0.4548480000000  0.4921520000000 1.0
C      1  0.3810180000000  0.5070320000000  0.4722870000000 1.0
END
