TITL C-3623289-7120-1632 -0.0029592036299015 125000 -981.494367611176 0 0 158 (C1) n - 1
REM
REM in /home/nfs/bkarasulu/CARBON/AIRSS/Generating-Clusters/LCBOP/Higher-Symm/SD-CG/FIRE-CG
REM
REM
REM
REM
REM
REM ./C.cell (b20cbc046b6831c77cfcea5457e17084)
REM AIRSS Version 0.9.1 bugfix July 2018 build 013d7b7c2542+ Fri, 06 Jul 2018 19:26:36 +0100
REM compiler GCC version 9.2.1 20190827 (Red Hat 9.2.1-1)
REM options -cpp -mtune=generic -march=x86-64 -g -O0 -fpre-include=/usr/include/finclude/math-vector-fortran.h
REM seed 1160898735 -128786264 1344168730 -2116523339 1228069226 -329479627 1180115021 -1844259002 1520307298 293298322 2098948574 -227693341 1919871733 -449707171 987144188 1127393611 353378335 557880923 1162664517 -736005357 -898528034 -113505030 -1920547804 1013643899 423250251 -626325932 -566828188 -602494463 -102886978 -247303698 468221902 -1815849570 -376535709
REM
CELL 1.54180   50.00000   50.00000   50.00000   90.00000   90.00000   90.00000
LATT -1
SFAC C  
C      1  0.4491270000000  0.4708590000000  0.4475080000000 1.0
C      1  0.4574300000000  0.5307740000000  0.5470330000000 1.0
C      1  0.5478740000000  0.5308230000000  0.4481720000000 1.0
C      1  0.5534220000000  0.4665660000000  0.5579000000000 1.0
C      1  0.4505700000000  0.4488620000000  0.4673370000000 1.0
C      1  0.4530290000000  0.5513510000000  0.5273710000000 1.0
C      1  0.5510300000000  0.4457160000000  0.5348590000000 1.0
C      1  0.5465920000000  0.5522270000000  0.4684990000000 1.0
C      1  0.5595210000000  0.4127360000000  0.5666860000000 1.0
C      1  0.5583730000000  0.5853940000000  0.4353150000000 1.0
C      1  0.4411720000000  0.5845630000000  0.5664300000000 1.0
C      1  0.4407870000000  0.4141330000000  0.4343980000000 1.0
C      1  0.5583120000000  0.5657350000000  0.4151880000000 1.0
C      1  0.5600950000000  0.4325630000000  0.5866130000000 1.0
C      1  0.4420400000000  0.5645130000000  0.5861560000000 1.0
C      1  0.4405380000000  0.4343480000000  0.4147570000000 1.0
C      1  0.5520830000000  0.4535590000000  0.4905850000000 1.0
C      1  0.5489020000000  0.5445900000000  0.5122970000000 1.0
C      1  0.4386970000000  0.5497440000000  0.4837830000000 1.0
C      1  0.4475850000000  0.4552840000000  0.5107510000000 1.0
C      1  0.5532220000000  0.4867240000000  0.4541250000000 1.0
C      1  0.5528450000000  0.5105830000000  0.5499710000000 1.0
C      1  0.4472650000000  0.4875330000000  0.5431280000000 1.0
C      1  0.4411150000000  0.5151130000000  0.4520050000000 1.0
C      1  0.4438230000000  0.4222720000000  0.4796540000000 1.0
C      1  0.4447600000000  0.5786300000000  0.5203960000000 1.0
C      1  0.5543920000000  0.5785610000000  0.4807140000000 1.0
C      1  0.5577320000000  0.4190880000000  0.5213340000000 1.0
C      1  0.4427530000000  0.4806030000000  0.4200640000000 1.0
C      1  0.4499990000000  0.5201760000000  0.5733360000000 1.0
C      1  0.5614790000000  0.4784690000000  0.5853020000000 1.0
C      1  0.5554430000000  0.5199680000000  0.4212550000000 1.0
C      1  0.5269970000000  0.4722040000000  0.4134530000000 1.0
C      1  0.5287470000000  0.5286040000000  0.5893890000000 1.0
C      1  0.4708850000000  0.5285380000000  0.4128220000000 1.0
C      1  0.4740040000000  0.4728410000000  0.5856940000000 1.0
C      1  0.5267150000000  0.4135220000000  0.4729920000000 1.0
C      1  0.5255710000000  0.5867090000000  0.5279920000000 1.0
C      1  0.4731210000000  0.4144790000000  0.5276750000000 1.0
C      1  0.4697210000000  0.5885200000000  0.4715880000000 1.0
C      1  0.4849610000000  0.4053390000000  0.5012860000000 1.0
C      1  0.4835550000000  0.5963020000000  0.4989390000000 1.0
C      1  0.5135560000000  0.5957660000000  0.5010690000000 1.0
C      1  0.5149720000000  0.4047410000000  0.4996180000000 1.0
C      1  0.4840580000000  0.5013780000000  0.4048240000000 1.0
C      1  0.4870880000000  0.4988840000000  0.5951090000000 1.0
C      1  0.5171650000000  0.5009960000000  0.5975910000000 1.0
C      1  0.5142860000000  0.4992430000000  0.4049640000000 1.0
C      1  0.4212090000000  0.4907460000000  0.5286300000000 1.0
C      1  0.4158570000000  0.5119580000000  0.4673850000000 1.0
C      1  0.5763960000000  0.5088080000000  0.5320520000000 1.0
C      1  0.5778150000000  0.4889590000000  0.4703860000000 1.0
C      1  0.4145810000000  0.5331390000000  0.4875760000000 1.0
C      1  0.4217120000000  0.4703810000000  0.5078990000000 1.0
C      1  0.5746290000000  0.5288790000000  0.5106410000000 1.0
C      1  0.5774490000000  0.4691580000000  0.4916340000000 1.0
C      1  0.4827490000000  0.5551340000000  0.4107140000000 1.0
C      1  0.4840730000000  0.4457880000000  0.5894840000000 1.0
C      1  0.5161410000000  0.4453070000000  0.4109470000000 1.0
C      1  0.5175060000000  0.5557850000000  0.5907090000000 1.0
C      1  0.4836400000000  0.4114590000000  0.5546920000000 1.0
C      1  0.4823670000000  0.5899780000000  0.4451140000000 1.0
C      1  0.5162520000000  0.4108830000000  0.4458950000000 1.0
C      1  0.5162400000000  0.5901090000000  0.5553620000000 1.0
C      1  0.5102480000000  0.4751870000000  0.5487810000000 1.0
C      1  0.5074560000000  0.5119290000000  0.4634420000000 1.0
C      1  0.4867060000000  0.5087040000000  0.5156270000000 1.0
C      1  0.4875810000000  0.4926700000000  0.4641630000000 1.0
C      1  0.5049420000000  0.5338700000000  0.4817000000000 1.0
C      1  0.5105430000000  0.4679860000000  0.5211180000000 1.0
C      1  0.4835740000000  0.5307910000000  0.4986650000000 1.0
C      1  0.4901770000000  0.4690690000000  0.4794760000000 1.0
C      1  0.4183230000000  0.5828350000000  0.5123810000000 1.0
C      1  0.4178210000000  0.4186330000000  0.4896320000000 1.0
C      1  0.5835220000000  0.4166360000000  0.5102380000000 1.0
C      1  0.5800730000000  0.5814010000000  0.4917370000000 1.0
C      1  0.4243180000000  0.5104090000000  0.5787940000000 1.0
C      1  0.4163920000000  0.4893970000000  0.4161010000000 1.0
C      1  0.5815720000000  0.5100590000000  0.4184760000000 1.0
C      1  0.5875300000000  0.4892060000000  0.5855460000000 1.0
C      1  0.4014450000000  0.5644570000000  0.5259410000000 1.0
C      1  0.4015140000000  0.4368030000000  0.4749870000000 1.0
C      1  0.5986100000000  0.4359990000000  0.5249710000000 1.0
C      1  0.5959180000000  0.5625080000000  0.4774900000000 1.0
C      1  0.4050150000000  0.5238220000000  0.5632040000000 1.0
C      1  0.4003620000000  0.4751250000000  0.4349310000000 1.0
C      1  0.5970680000000  0.5240750000000  0.4379000000000 1.0
C      1  0.5999690000000  0.4744920000000  0.5642210000000 1.0
C      1  0.5108030000000  0.4344570000000  0.5871310000000 1.0
C      1  0.5095550000000  0.5655970000000  0.4140070000000 1.0
C      1  0.4905350000000  0.5665250000000  0.5882540000000 1.0
C      1  0.4893850000000  0.4346590000000  0.4139710000000 1.0
C      1  0.5093900000000  0.5868080000000  0.4349540000000 1.0
C      1  0.5104250000000  0.4134030000000  0.5659310000000 1.0
C      1  0.4898280000000  0.5872710000000  0.5668530000000 1.0
C      1  0.4895230000000  0.4135010000000  0.4349000000000 1.0
C      1  0.5329130000000  0.5963090000000  0.4472930000000 1.0
C      1  0.5337980000000  0.4030540000000  0.5540280000000 1.0
C      1  0.4660370000000  0.4038900000000  0.4470660000000 1.0
C      1  0.4661360000000  0.5958650000000  0.5541270000000 1.0
C      1  0.5347820000000  0.4456220000000  0.5972460000000 1.0
C      1  0.5330860000000  0.5533690000000  0.4045500000000 1.0
C      1  0.4658300000000  0.4470260000000  0.4046550000000 1.0
C      1  0.4673990000000  0.5526800000000  0.5963930000000 1.0
C      1  0.5483530000000  0.5682860000000  0.5282160000000 1.0
C      1  0.5500330000000  0.4310180000000  0.4732000000000 1.0
C      1  0.4497160000000  0.4321180000000  0.5275330000000 1.0
C      1  0.4435660000000  0.5736600000000  0.4688210000000 1.0
C      1  0.5521660000000  0.5286110000000  0.5718520000000 1.0
C      1  0.5511400000000  0.4710590000000  0.4304860000000 1.0
C      1  0.4453710000000  0.5305460000000  0.4282410000000 1.0
C      1  0.4504300000000  0.4724770000000  0.5675270000000 1.0
C      1  0.5341340000000  0.5071190000000  0.4577120000000 1.0
C      1  0.5352450000000  0.4884840000000  0.5511110000000 1.0
C      1  0.4606700000000  0.4956390000000  0.4576020000000 1.0
C      1  0.4670270000000  0.5061050000000  0.5348030000000 1.0
C      1  0.5345530000000  0.4559970000000  0.5131450000000 1.0
C      1  0.5300550000000  0.5430520000000  0.4904610000000 1.0
C      1  0.4662990000000  0.4589590000000  0.4896180000000 1.0
C      1  0.4592460000000  0.5424050000000  0.5010610000000 1.0
C      1  0.4024430000000  0.4856370000000  0.4630420000000 1.0
C      1  0.4055430000000  0.5152280000000  0.5347100000000 1.0
C      1  0.5933460000000  0.5139280000000  0.4658710000000 1.0
C      1  0.5941470000000  0.4847650000000  0.5364970000000 1.0
C      1  0.4047190000000  0.4651240000000  0.4839680000000 1.0
C      1  0.4025300000000  0.5365780000000  0.5147390000000 1.0
C      1  0.5942890000000  0.4642020000000  0.5156020000000 1.0
C      1  0.5919140000000  0.5343880000000  0.4867400000000 1.0
C      1  0.4661640000000  0.4047700000000  0.4767570000000 1.0
C      1  0.4664310000000  0.5963510000000  0.5243080000000 1.0
C      1  0.5323910000000  0.5963010000000  0.4770060000000 1.0
C      1  0.5340390000000  0.4031440000000  0.5242640000000 1.0
C      1  0.4658370000000  0.4767640000000  0.4039580000000 1.0
C      1  0.4696900000000  0.5233890000000  0.5933720000000 1.0
C      1  0.5365200000000  0.4755020000000  0.5997720000000 1.0
C      1  0.5329110000000  0.5236470000000  0.4042230000000 1.0
C      1  0.4074660000000  0.5707250000000  0.5535740000000 1.0
C      1  0.4068110000000  0.4288000000000  0.4475400000000 1.0
C      1  0.5929540000000  0.4278240000000  0.5525720000000 1.0
C      1  0.5910850000000  0.5705950000000  0.4498850000000 1.0
C      1  0.4081860000000  0.5510650000000  0.5718620000000 1.0
C      1  0.4068630000000  0.4475440000000  0.4282380000000 1.0
C      1  0.5915740000000  0.5517920000000  0.4306480000000 1.0
C      1  0.5932270000000  0.4466710000000  0.5717970000000 1.0
C      1  0.5695900000000  0.5508540000000  0.5691540000000 1.0
C      1  0.5687390000000  0.4486680000000  0.4309760000000 1.0
C      1  0.4318790000000  0.4507620000000  0.5688690000000 1.0
C      1  0.4286290000000  0.5536790000000  0.4265650000000 1.0
C      1  0.5679240000000  0.5688890000000  0.5488980000000 1.0
C      1  0.5685180000000  0.4307620000000  0.4514810000000 1.0
C      1  0.4281290000000  0.5740710000000  0.4447450000000 1.0
C      1  0.4313160000000  0.4318240000000  0.5493100000000 1.0
C      1  0.4675470000000  0.5772470000000  0.4229720000000 1.0
C      1  0.4684740000000  0.4242400000000  0.5765420000000 1.0
C      1  0.5323330000000  0.5774170000000  0.5768470000000 1.0
C      1  0.5315290000000  0.4235660000000  0.4240010000000 1.0
C      1  0.5089480000000  0.4935480000000  0.5094880000000 1.0
C      1  0.5330510000000  0.5015030000000  0.4998900000000 1.0
END
