TITL C-3623287-7182-1037 35454.5427816326 125000 -1171.44146964421 0 0 192 (C1) n - 1
REM
REM in /home/nfs/bkarasulu/CARBON/AIRSS/Generating-Clusters/LCBOP/Higher-Symm/SD-CG/FIRE-CG
REM
REM
REM
REM
REM
REM ./C.cell (b20cbc046b6831c77cfcea5457e17084)
REM AIRSS Version 0.9.1 bugfix July 2018 build 013d7b7c2542+ Fri, 06 Jul 2018 19:26:36 +0100
REM compiler GCC version 9.2.1 20190827 (Red Hat 9.2.1-1)
REM options -cpp -mtune=generic -march=x86-64 -g -O0 -fpre-include=/usr/include/finclude/math-vector-fortran.h
REM seed -872679304 882470651 404340019 -319122606 -1804452913 -396379426 -285768990 341573901 975731749 224311607 1689516027 1241992023 168452228 -62608754 -1105967223 -979591417 1243739621 1125580755 -1285850663 90243248 -1461928052 -1102118353 -1328980180 -1692794135 -1547248689 713331550 1638159890 1089338092 1069920609 -1357280614 1474551863 968062115 860388055
REM
CELL 1.54180   50.00000   50.00000   50.00000   90.00000   90.00000   90.00000
LATT -1
SFAC C  
C      1  0.5787900000000  0.5232400000000  0.5089810000000 1.0
C      1  0.4668740000000  0.4231540000000  0.4937090000000 1.0
C      1  0.4406030000000  0.5684010000000  0.5034260000000 1.0
C      1  0.5400470000000  0.4829030000000  0.5488440000000 1.0
C      1  0.4585050000000  0.4707690000000  0.5476430000000 1.0
C      1  0.5004760000000  0.5410450000000  0.5527850000000 1.0
C      1  0.4260440000000  0.4010880000000  0.4619650000000 1.0
C      1  0.4451770000000  0.6126860000000  0.4681330000000 1.0
C      1  0.6173320000000  0.4886480000000  0.4683180000000 1.0
C      1  0.5833970000000  0.4985660000000  0.5838660000000 1.0
C      1  0.4571960000000  0.4304200000000  0.5809060000000 1.0
C      1  0.4635080000000  0.5699840000000  0.5826570000000 1.0
C      1  0.4775810000000  0.4855840000000  0.4912230000000 1.0
C      1  0.5036280000000  0.5344980000000  0.4918880000000 1.0
C      1  0.5217620000000  0.4851680000000  0.4911260000000 1.0
C      1  0.5615610000000  0.4383680000000  0.4445710000000 1.0
C      1  0.4151350000000  0.4777400000000  0.4435520000000 1.0
C      1  0.5083410000000  0.5847300000000  0.4306670000000 1.0
C      1  0.5000600000000  0.5256180000000  0.4184720000000 1.0
C      1  0.5117840000000  0.5006950000000  0.4204170000000 1.0
C      1  0.4939050000000  0.4795840000000  0.4184620000000 1.0
C      1  0.5592570000000  0.5011360000000  0.4744400000000 1.0
C      1  0.4660260000000  0.4389420000000  0.4700370000000 1.0
C      1  0.4623140000000  0.5466320000000  0.4735140000000 1.0
C      1  0.4509990000000  0.4215680000000  0.5520820000000 1.0
C      1  0.4573350000000  0.5822090000000  0.5557060000000 1.0
C      1  0.5948650000000  0.4976230000000  0.5555140000000 1.0
C      1  0.4761840000000  0.4873140000000  0.4619440000000 1.0
C      1  0.5073790000000  0.5384980000000  0.4633930000000 1.0
C      1  0.5195250000000  0.4817580000000  0.4626780000000 1.0
C      1  0.4497230000000  0.4709490000000  0.6141940000000 1.0
C      1  0.5034050000000  0.5573720000000  0.6134030000000 1.0
C      1  0.5479070000000  0.4715580000000  0.6129480000000 1.0
C      1  0.5608310000000  0.5435960000000  0.3999960000000 1.0
C      1  0.5078230000000  0.4235360000000  0.4011960000000 1.0
C      1  0.4236090000000  0.5284190000000  0.4006930000000 1.0
C      1  0.4703120000000  0.6104490000000  0.4517370000000 1.0
C      1  0.6067730000000  0.4643790000000  0.4544290000000 1.0
C      1  0.4133430000000  0.4255510000000  0.4512750000000 1.0
C      1  0.4952270000000  0.4461590000000  0.3888060000000 1.0
C      1  0.4495360000000  0.5300490000000  0.3898440000000 1.0
C      1  0.5459380000000  0.5204880000000  0.3902360000000 1.0
C      1  0.4586080000000  0.5067160000000  0.3752410000000 1.0
C      1  0.5183170000000  0.5261690000000  0.3770530000000 1.0
C      1  0.5157820000000  0.4639410000000  0.3770150000000 1.0
C      1  0.4426630000000  0.4573120000000  0.4757230000000 1.0
C      1  0.4754840000000  0.5721320000000  0.4754630000000 1.0
C      1  0.5659230000000  0.4717060000000  0.4777270000000 1.0
C      1  0.4238290000000  0.4480550000000  0.4327150000000 1.0
C      1  0.4800470000000  0.5917110000000  0.4297210000000 1.0
C      1  0.5826180000000  0.4613710000000  0.4354440000000 1.0
C      1  0.4007510000000  0.4364420000000  0.4750970000000 1.0
C      1  0.4912820000000  0.6142190000000  0.4719160000000 1.0
C      1  0.6053830000000  0.4457140000000  0.4767790000000 1.0
C      1  0.4324760000000  0.4996510000000  0.4963960000000 1.0
C      1  0.5517880000000  0.5470160000000  0.5069110000000 1.0
C      1  0.5362400000000  0.4412700000000  0.4990950000000 1.0
C      1  0.4698530000000  0.5510790000000  0.3958600000000 1.0
C      1  0.5559380000000  0.4927280000000  0.3992470000000 1.0
C      1  0.4657450000000  0.4538690000000  0.3947370000000 1.0
C      1  0.4062500000000  0.5365840000000  0.5125080000000 1.0
C      1  0.5901390000000  0.5671190000000  0.5156380000000 1.0
C      1  0.5143110000000  0.4008010000000  0.5102880000000 1.0
C      1  0.4868900000000  0.4308580000000  0.5856370000000 1.0
C      1  0.4484930000000  0.5445440000000  0.5876720000000 1.0
C      1  0.5724970000000  0.5262910000000  0.5914290000000 1.0
C      1  0.5607230000000  0.5723810000000  0.5149190000000 1.0
C      1  0.5391410000000  0.4171570000000  0.5131730000000 1.0
C      1  0.4107430000000  0.5072650000000  0.5130200000000 1.0
C      1  0.5124570000000  0.3942460000000  0.4795850000000 1.0
C      1  0.3993880000000  0.5410430000000  0.4824870000000 1.0
C      1  0.5979480000000  0.5651340000000  0.4853170000000 1.0
C      1  0.4821080000000  0.5080310000000  0.5831980000000 1.0
C      1  0.5307690000000  0.5073540000000  0.5878610000000 1.0
C      1  0.4899610000000  0.4806810000000  0.5818770000000 1.0
C      1  0.4347120000000  0.5387690000000  0.5611190000000 1.0
C      1  0.5730750000000  0.5415370000000  0.5649050000000 1.0
C      1  0.4989860000000  0.4232700000000  0.5582520000000 1.0
C      1  0.5189670000000  0.4530890000000  0.4585000000000 1.0
C      1  0.4539080000000  0.5033480000000  0.4548310000000 1.0
C      1  0.5341770000000  0.5444370000000  0.4532560000000 1.0
C      1  0.6028830000000  0.5275180000000  0.4471020000000 1.0
C      1  0.4742920000000  0.3974970000000  0.4415590000000 1.0
C      1  0.4170440000000  0.5726030000000  0.4441970000000 1.0
C      1  0.5445590000000  0.5264190000000  0.6051550000000 1.0
C      1  0.4995040000000  0.4575180000000  0.5985110000000 1.0
C      1  0.4608740000000  0.5189750000000  0.6008270000000 1.0
C      1  0.5090550000000  0.6095110000000  0.5581340000000 1.0
C      1  0.5920760000000  0.4372540000000  0.5632770000000 1.0
C      1  0.3990970000000  0.4505920000000  0.5613790000000 1.0
C      1  0.5317120000000  0.5746620000000  0.5750390000000 1.0
C      1  0.5473240000000  0.4400520000000  0.5738610000000 1.0
C      1  0.4209120000000  0.4885600000000  0.5744740000000 1.0
C      1  0.4961770000000  0.5898360000000  0.5174150000000 1.0
C      1  0.5845740000000  0.4578400000000  0.5217440000000 1.0
C      1  0.4219330000000  0.4499030000000  0.5198490000000 1.0
C      1  0.4191010000000  0.6380090000000  0.5008110000000 1.0
C      1  0.6510540000000  0.5024720000000  0.4997130000000 1.0
C      1  0.4250770000000  0.3628710000000  0.4923070000000 1.0
C      1  0.4057110000000  0.5641660000000  0.4671030000000 1.0
C      1  0.6072360000000  0.5424560000000  0.4694770000000 1.0
C      1  0.4890450000000  0.3901730000000  0.4632310000000 1.0
C      1  0.5465570000000  0.4475380000000  0.4704370000000 1.0
C      1  0.4327910000000  0.4858900000000  0.4677430000000 1.0
C      1  0.5293270000000  0.5694490000000  0.4393280000000 1.0
C      1  0.4522620000000  0.5183380000000  0.5507720000000 1.0
C      1  0.5469100000000  0.5339250000000  0.5543450000000 1.0
C      1  0.5062710000000  0.4499690000000  0.5497310000000 1.0
C      1  0.5449160000000  0.4117490000000  0.5748920000000 1.0
C      1  0.3972420000000  0.5041960000000  0.5741570000000 1.0
C      1  0.5560230000000  0.5892680000000  0.5747300000000 1.0
C      1  0.4804650000000  0.5221990000000  0.5578880000000 1.0
C      1  0.5382060000000  0.5072720000000  0.5607160000000 1.0
C      1  0.4857990000000  0.4694230000000  0.5557500000000 1.0
C      1  0.4173460000000  0.4604900000000  0.5809940000000 1.0
C      1  0.5081430000000  0.5906750000000  0.5797850000000 1.0
C      1  0.5736610000000  0.4497890000000  0.5807840000000 1.0
C      1  0.5357590000000  0.3991050000000  0.4618100000000 1.0
C      1  0.3931690000000  0.5182800000000  0.4643690000000 1.0
C      1  0.5857600000000  0.5816920000000  0.4642590000000 1.0
C      1  0.5473190000000  0.5177960000000  0.4529740000000 1.0
C      1  0.4907030000000  0.4455880000000  0.4547700000000 1.0
C      1  0.4621830000000  0.5298670000000  0.4511730000000 1.0
C      1  0.4915530000000  0.5919030000000  0.4895590000000 1.0
C      1  0.5862470000000  0.4577690000000  0.4939770000000 1.0
C      1  0.4203500000000  0.4473540000000  0.4921380000000 1.0
C      1  0.4403870000000  0.4506560000000  0.5950240000000 1.0
C      1  0.4894580000000  0.5751490000000  0.5949730000000 1.0
C      1  0.5715320000000  0.4740290000000  0.5957520000000 1.0
C      1  0.5616880000000  0.4132290000000  0.5307970000000 1.0
C      1  0.3944410000000  0.4897700000000  0.5293020000000 1.0
C      1  0.5472480000000  0.5941420000000  0.5284140000000 1.0
C      1  0.4875520000000  0.4634790000000  0.5065660000000 1.0
C      1  0.4729820000000  0.5337210000000  0.4994360000000 1.0
C      1  0.5411060000000  0.5035930000000  0.4998970000000 1.0
C      1  0.4588080000000  0.4979340000000  0.6214320000000 1.0
C      1  0.5220750000000  0.5367390000000  0.6219600000000 1.0
C      1  0.5195910000000  0.4667460000000  0.6181680000000 1.0
C      1  0.5455950000000  0.4140430000000  0.4383460000000 1.0
C      1  0.3997960000000  0.5027930000000  0.4401450000000 1.0
C      1  0.5792770000000  0.5768770000000  0.4380330000000 1.0
C      1  0.5121470000000  0.4814460000000  0.3553060000000 1.0
C      1  0.4773280000000  0.5125300000000  0.3547130000000 1.0
C      1  0.5053300000000  0.5087230000000  0.3574550000000 1.0
C      1  0.4758400000000  0.5755370000000  0.5329300000000 1.0
C      1  0.5793870000000  0.4832830000000  0.5342660000000 1.0
C      1  0.4484020000000  0.4466010000000  0.5334870000000 1.0
C      1  0.5634570000000  0.5007430000000  0.5189880000000 1.0
C      1  0.4705470000000  0.4429340000000  0.5135790000000 1.0
C      1  0.4630370000000  0.5553930000000  0.5169430000000 1.0
C      1  0.5112390000000  0.5180690000000  0.6399890000000 1.0
C      1  0.5091440000000  0.4819880000000  0.6391250000000 1.0
C      1  0.4783680000000  0.4999340000000  0.6412760000000 1.0
C      1  0.4890550000000  0.5334360000000  0.4421160000000 1.0
C      1  0.5289490000000  0.4984690000000  0.4422240000000 1.0
C      1  0.4821280000000  0.4692620000000  0.4411510000000 1.0
C      1  0.5622780000000  0.6022820000000  0.5516230000000 1.0
C      1  0.5550040000000  0.3976720000000  0.5538740000000 1.0
C      1  0.3821710000000  0.5030230000000  0.5514920000000 1.0
C      1  0.4290700000000  0.5835610000000  0.5425030000000 1.0
C      1  0.6088930000000  0.5207350000000  0.5411680000000 1.0
C      1  0.4641340000000  0.4005410000000  0.5329810000000 1.0
C      1  0.5721540000000  0.5623890000000  0.4160730000000 1.0
C      1  0.5287150000000  0.4141860000000  0.4154360000000 1.0
C      1  0.4050870000000  0.5171590000000  0.4163760000000 1.0
C      1  0.4943360000000  0.4036870000000  0.5351780000000 1.0
C      1  0.4184590000000  0.5539170000000  0.5413920000000 1.0
C      1  0.5946250000000  0.5471200000000  0.5451890000000 1.0
C      1  0.5259640000000  0.5520410000000  0.5584630000000 1.0
C      1  0.5327440000000  0.4570390000000  0.5557550000000 1.0
C      1  0.4424400000000  0.4923810000000  0.5556890000000 1.0
C      1  0.4304510000000  0.5925730000000  0.5139760000000 1.0
C      1  0.6068920000000  0.5173380000000  0.5116460000000 1.0
C      1  0.4543980000000  0.3997880000000  0.5043870000000 1.0
C      1  0.5182250000000  0.6006170000000  0.5316900000000 1.0
C      1  0.5828060000000  0.4334670000000  0.5361500000000 1.0
C      1  0.4008910000000  0.4616020000000  0.5346710000000 1.0
C      1  0.4487940000000  0.4395100000000  0.4157860000000 1.0
C      1  0.4621750000000  0.5736730000000  0.4145790000000 1.0
C      1  0.5771030000000  0.4870500000000  0.4197280000000 1.0
C      1  0.4606420000000  0.4141790000000  0.4249670000000 1.0
C      1  0.4352960000000  0.5741750000000  0.4245540000000 1.0
C      1  0.5926040000000  0.5097620000000  0.4293200000000 1.0
C      1  0.5291330000000  0.5307170000000  0.5037470000000 1.0
C      1  0.5158280000000  0.4613530000000  0.5051180000000 1.0
C      1  0.4609410000000  0.5062020000000  0.5023080000000 1.0
C      1  0.4977220000000  0.5400050000000  0.3941070000000 1.0
C      1  0.5401540000000  0.4701610000000  0.3907480000000 1.0
C      1  0.4564820000000  0.4794290000000  0.3841450000000 1.0
C      1  0.4315380000000  0.6142470000000  0.4944330000000 1.0
C      1  0.6241760000000  0.5029220000000  0.4930460000000 1.0
C      1  0.4351910000000  0.3877170000000  0.4863840000000 1.0
END
