TITL C-3623288-6813-89 0.509017093126452 125000 -165.720899411487 0 0 29 (C1) n - 1
REM
REM in /home/nfs/bkarasulu/CARBON/AIRSS/Generating-Clusters/LCBOP/Higher-Symm/SD-CG/FIRE-CG
REM
REM
REM
REM
REM
REM ./C.cell (b20cbc046b6831c77cfcea5457e17084)
REM AIRSS Version 0.9.1 bugfix July 2018 build 013d7b7c2542+ Fri, 06 Jul 2018 19:26:36 +0100
REM compiler GCC version 9.2.1 20190827 (Red Hat 9.2.1-1)
REM options -cpp -mtune=generic -march=x86-64 -g -O0 -fpre-include=/usr/include/finclude/math-vector-fortran.h
REM seed 740517355 -428908424 -1335262367 -408357467 636151211 -634456691 1228215321 -2142933206 -288475180 2137207583 -1133607966 -1836785370 1659839760 -1050295024 -1403149008 -263563039 -1877895115 281342975 1105082298 729076172 1866455690 1097128691 -2118838894 -1186760694 -1582102028 878904043 -1263968503 1153866885 -2067340177 1606663670 1780149969 1825758123 -412112382
REM
CELL 1.54180   50.00000   50.00000   50.00000   90.00000   90.00000   90.00000
LATT -1
SFAC C  
C      1  0.5593720000000  0.5202600000000  0.4859350000000 1.0
C      1  0.4658910000000  0.5334020000000  0.4462000000000 1.0
C      1  0.4276000000000  0.5018060000000  0.4640910000000 1.0
C      1  0.4949040000000  0.4705320000000  0.5234040000000 1.0
C      1  0.5012410000000  0.4664680000000  0.4502850000000 1.0
C      1  0.5166470000000  0.5057240000000  0.5881290000000 1.0
C      1  0.4674000000000  0.5005990000000  0.5758940000000 1.0
C      1  0.5150150000000  0.5518220000000  0.4466880000000 1.0
C      1  0.5400580000000  0.5516650000000  0.4553990000000 1.0
C      1  0.5263870000000  0.4843480000000  0.4847570000000 1.0
C      1  0.5013770000000  0.4730980000000  0.4962350000000 1.0
C      1  0.5365080000000  0.4966540000000  0.5725930000000 1.0
C      1  0.4451650000000  0.5185490000000  0.4534360000000 1.0
C      1  0.5163360000000  0.4665600000000  0.5412590000000 1.0
C      1  0.5265310000000  0.4792570000000  0.4557580000000 1.0
C      1  0.4895450000000  0.5450980000000  0.4436630000000 1.0
C      1  0.5863710000000  0.5559050000000  0.4680080000000 1.0
C      1  0.4268270000000  0.4891880000000  0.5522850000000 1.0
C      1  0.4540680000000  0.4889370000000  0.5540630000000 1.0
C      1  0.4698900000000  0.4770430000000  0.5341020000000 1.0
C      1  0.4125710000000  0.4839760000000  0.4766930000000 1.0
C      1  0.5624310000000  0.5428890000000  0.4697520000000 1.0
C      1  0.5378130000000  0.4837000000000  0.5477790000000 1.0
C      1  0.3986450000000  0.4660660000000  0.4895350000000 1.0
C      1  0.5519400000000  0.4932370000000  0.5255340000000 1.0
C      1  0.4867610000000  0.4629700000000  0.4735110000000 1.0
C      1  0.5462130000000  0.4844890000000  0.4378660000000 1.0
C      1  0.4899560000000  0.5068870000000  0.5886450000000 1.0
C      1  0.5465370000000  0.4988700000000  0.4984990000000 1.0
END
