TITL C-3623287-7182-773 -1.4719922565923 125000 -1132.66701843289 0 0 187 (C1) n - 1
REM
REM in /home/nfs/bkarasulu/CARBON/AIRSS/Generating-Clusters/LCBOP/Higher-Symm/SD-CG/FIRE-CG
REM
REM
REM
REM
REM
REM ./C.cell (b20cbc046b6831c77cfcea5457e17084)
REM AIRSS Version 0.9.1 bugfix July 2018 build 013d7b7c2542+ Fri, 06 Jul 2018 19:26:36 +0100
REM compiler GCC version 9.2.1 20190827 (Red Hat 9.2.1-1)
REM options -cpp -mtune=generic -march=x86-64 -g -O0 -fpre-include=/usr/include/finclude/math-vector-fortran.h
REM seed 949540559 -1851293483 122288856 726762596 833515659 -875979115 -1184445880 889253171 -368169160 1658173709 -450555701 331079135 -640196581 1223813270 -145348808 -622180480 -1875145218 -27112854 1771405539 -14599884 -628823904 -452039085 -1690442495 1901688419 -2036352998 -1032049164 2059317529 -1787912915 -1716205818 22978726 581482933 -1500829082 1528944773
REM
CELL 1.54180   50.00000   50.00000   50.00000   90.00000   90.00000   90.00000
LATT -1
SFAC C  
C      1  0.5226190000000  0.5723290000000  0.4350310000000 1.0
C      1  0.5170630000000  0.4310070000000  0.4224780000000 1.0
C      1  0.5835480000000  0.4535960000000  0.5368770000000 1.0
C      1  0.5592980000000  0.5476320000000  0.5406420000000 1.0
C      1  0.4174590000000  0.5727480000000  0.4802350000000 1.0
C      1  0.4144280000000  0.4390530000000  0.4804780000000 1.0
C      1  0.5911870000000  0.4449550000000  0.5635640000000 1.0
C      1  0.5794260000000  0.5502800000000  0.5651380000000 1.0
C      1  0.5660460000000  0.4075360000000  0.5394180000000 1.0
C      1  0.5657080000000  0.5938000000000  0.5482650000000 1.0
C      1  0.5816530000000  0.4168790000000  0.5612740000000 1.0
C      1  0.5810320000000  0.5794850000000  0.5668530000000 1.0
C      1  0.3746010000000  0.5946440000000  0.5193440000000 1.0
C      1  0.3796670000000  0.4288460000000  0.5267580000000 1.0
C      1  0.4963920000000  0.5386580000000  0.4538030000000 1.0
C      1  0.4934460000000  0.4645130000000  0.4451610000000 1.0
C      1  0.4520020000000  0.5318630000000  0.5213180000000 1.0
C      1  0.4577420000000  0.4737100000000  0.5210980000000 1.0
C      1  0.4292110000000  0.5539230000000  0.4624960000000 1.0
C      1  0.4323530000000  0.4539560000000  0.4646480000000 1.0
C      1  0.4661590000000  0.4650430000000  0.4959890000000 1.0
C      1  0.4613140000000  0.5437310000000  0.4978430000000 1.0
C      1  0.5334150000000  0.5613180000000  0.4810340000000 1.0
C      1  0.5351740000000  0.4403560000000  0.4670510000000 1.0
C      1  0.6091930000000  0.3999740000000  0.4250190000000 1.0
C      1  0.6173030000000  0.5773380000000  0.4348960000000 1.0
C      1  0.4732000000000  0.4145510000000  0.4155990000000 1.0
C      1  0.4767510000000  0.5846260000000  0.4440610000000 1.0
C      1  0.4823720000000  0.5582410000000  0.5515190000000 1.0
C      1  0.4977750000000  0.4639050000000  0.5526140000000 1.0
C      1  0.5370430000000  0.3708300000000  0.4786090000000 1.0
C      1  0.5519930000000  0.6272350000000  0.4897320000000 1.0
C      1  0.4133780000000  0.3909740000000  0.5354440000000 1.0
C      1  0.4124580000000  0.6243400000000  0.5329690000000 1.0
C      1  0.5058360000000  0.4177810000000  0.5801130000000 1.0
C      1  0.4932410000000  0.5923510000000  0.5868480000000 1.0
C      1  0.5968270000000  0.4447190000000  0.5140670000000 1.0
C      1  0.5805130000000  0.5414250000000  0.5195520000000 1.0
C      1  0.5311310000000  0.4194290000000  0.4917610000000 1.0
C      1  0.5305290000000  0.5832940000000  0.5036610000000 1.0
C      1  0.4502240000000  0.4367450000000  0.4500460000000 1.0
C      1  0.4348600000000  0.5625880000000  0.4358720000000 1.0
C      1  0.5110010000000  0.6127700000000  0.4658090000000 1.0
C      1  0.5015010000000  0.3930730000000  0.4535570000000 1.0
C      1  0.5102500000000  0.5696740000000  0.5947370000000 1.0
C      1  0.5264210000000  0.4379330000000  0.5859630000000 1.0
C      1  0.4385390000000  0.3848280000000  0.5223550000000 1.0
C      1  0.4394810000000  0.6283740000000  0.5234370000000 1.0
C      1  0.4043310000000  0.3799260000000  0.5585440000000 1.0
C      1  0.4009440000000  0.6372930000000  0.5538930000000 1.0
C      1  0.4570820000000  0.4374830000000  0.4222820000000 1.0
C      1  0.4602650000000  0.5698010000000  0.4251730000000 1.0
C      1  0.4813270000000  0.4231790000000  0.5945350000000 1.0
C      1  0.4659960000000  0.5874520000000  0.5959840000000 1.0
C      1  0.5428090000000  0.4477880000000  0.5647010000000 1.0
C      1  0.5257250000000  0.5555860000000  0.5758240000000 1.0
C      1  0.4941880000000  0.5811950000000  0.5406550000000 1.0
C      1  0.5028620000000  0.4379010000000  0.5374570000000 1.0
C      1  0.5078760000000  0.4382550000000  0.5084460000000 1.0
C      1  0.5006200000000  0.5795990000000  0.5135330000000 1.0
C      1  0.4715190000000  0.4592270000000  0.5654000000000 1.0
C      1  0.4568910000000  0.5541660000000  0.5635710000000 1.0
C      1  0.4856270000000  0.4418540000000  0.4875950000000 1.0
C      1  0.4828450000000  0.5652580000000  0.4924320000000 1.0
C      1  0.4912930000000  0.4673440000000  0.6081860000000 1.0
C      1  0.4720000000000  0.5414120000000  0.6082660000000 1.0
C      1  0.4376040000000  0.3959120000000  0.4955550000000 1.0
C      1  0.4420270000000  0.6136650000000  0.4986840000000 1.0
C      1  0.4875670000000  0.6269400000000  0.4758440000000 1.0
C      1  0.4772870000000  0.3809400000000  0.4639690000000 1.0
C      1  0.4149940000000  0.4149890000000  0.4951870000000 1.0
C      1  0.4186420000000  0.5960480000000  0.4958450000000 1.0
C      1  0.5439470000000  0.4728510000000  0.5209860000000 1.0
C      1  0.5383550000000  0.5180750000000  0.5080510000000 1.0
C      1  0.5504420000000  0.4668440000000  0.4671610000000 1.0
C      1  0.5471410000000  0.5380420000000  0.4911760000000 1.0
C      1  0.4709250000000  0.5527660000000  0.4042540000000 1.0
C      1  0.4576820000000  0.4638980000000  0.4077300000000 1.0
C      1  0.5226880000000  0.3938780000000  0.4741810000000 1.0
C      1  0.5319080000000  0.6090740000000  0.4860800000000 1.0
C      1  0.5919210000000  0.4125220000000  0.4420810000000 1.0
C      1  0.5986390000000  0.5699700000000  0.4533770000000 1.0
C      1  0.5043970000000  0.4493250000000  0.4650330000000 1.0
C      1  0.5047380000000  0.5519280000000  0.4767540000000 1.0
C      1  0.3998420000000  0.6042600000000  0.5163280000000 1.0
C      1  0.3995930000000  0.4107610000000  0.5194650000000 1.0
C      1  0.6059240000000  0.5594170000000  0.4782840000000 1.0
C      1  0.5998830000000  0.4191220000000  0.4682060000000 1.0
C      1  0.6020050000000  0.4305200000000  0.4921420000000 1.0
C      1  0.5986760000000  0.5492490000000  0.5017250000000 1.0
C      1  0.4512880000000  0.4772200000000  0.4726970000000 1.0
C      1  0.4483450000000  0.5323810000000  0.4729350000000 1.0
C      1  0.4647440000000  0.6113350000000  0.4828180000000 1.0
C      1  0.4593300000000  0.3976880000000  0.4779100000000 1.0
C      1  0.5011240000000  0.4134500000000  0.5523210000000 1.0
C      1  0.4947500000000  0.6025260000000  0.5597900000000 1.0
C      1  0.5350520000000  0.5361570000000  0.5565810000000 1.0
C      1  0.5552980000000  0.4576230000000  0.5407180000000 1.0
C      1  0.4858920000000  0.4760450000000  0.4024560000000 1.0
C      1  0.4932220000000  0.5344640000000  0.4065970000000 1.0
C      1  0.4570140000000  0.5601440000000  0.5914330000000 1.0
C      1  0.4734720000000  0.4509460000000  0.5925810000000 1.0
C      1  0.5087170000000  0.5468610000000  0.4289880000000 1.0
C      1  0.5029400000000  0.4572780000000  0.4187990000000 1.0
C      1  0.5180030000000  0.4556150000000  0.6070240000000 1.0
C      1  0.4976110000000  0.5528510000000  0.6143670000000 1.0
C      1  0.4862870000000  0.3916090000000  0.5431570000000 1.0
C      1  0.4830340000000  0.6268190000000  0.5520980000000 1.0
C      1  0.5502300000000  0.5775500000000  0.5295970000000 1.0
C      1  0.5514160000000  0.4108010000000  0.5159250000000 1.0
C      1  0.4697490000000  0.5850370000000  0.4726410000000 1.0
C      1  0.4659850000000  0.4243740000000  0.4715670000000 1.0
C      1  0.4986060000000  0.4089780000000  0.4281040000000 1.0
C      1  0.5046160000000  0.5938230000000  0.4430090000000 1.0
C      1  0.5441110000000  0.5695360000000  0.4539080000000 1.0
C      1  0.5405950000000  0.4296080000000  0.4389610000000 1.0
C      1  0.4711020000000  0.4807400000000  0.4505370000000 1.0
C      1  0.4706300000000  0.5277500000000  0.4532230000000 1.0
C      1  0.4615460000000  0.6356950000000  0.5388250000000 1.0
C      1  0.4631700000000  0.3811380000000  0.5349260000000 1.0
C      1  0.5659500000000  0.4192240000000  0.4337840000000 1.0
C      1  0.5711830000000  0.5724540000000  0.4483780000000 1.0
C      1  0.5213920000000  0.4660290000000  0.5057480000000 1.0
C      1  0.5103860000000  0.5099140000000  0.5067370000000 1.0
C      1  0.4398520000000  0.5466350000000  0.5426270000000 1.0
C      1  0.4529870000000  0.4573240000000  0.5440940000000 1.0
C      1  0.5895050000000  0.4704470000000  0.5789320000000 1.0
C      1  0.5878340000000  0.5240810000000  0.5746410000000 1.0
C      1  0.5729180000000  0.4958520000000  0.4067310000000 1.0
C      1  0.5268150000000  0.5022540000000  0.4102250000000 1.0
C      1  0.5069310000000  0.4922370000000  0.5511950000000 1.0
C      1  0.5474530000000  0.5042740000000  0.3643230000000 1.0
C      1  0.4362230000000  0.5035820000000  0.4771250000000 1.0
C      1  0.5834960000000  0.4966660000000  0.5059670000000 1.0
C      1  0.3885250000000  0.4735290000000  0.5458100000000 1.0
C      1  0.4145170000000  0.4960130000000  0.4245890000000 1.0
C      1  0.5993310000000  0.4890100000000  0.4011010000000 1.0
C      1  0.3719510000000  0.4860660000000  0.4449230000000 1.0
C      1  0.4896020000000  0.4951210000000  0.6140840000000 1.0
C      1  0.6233910000000  0.4782670000000  0.4451430000000 1.0
C      1  0.3959860000000  0.4913400000000  0.5017910000000 1.0
C      1  0.5566820000000  0.4970700000000  0.5139000000000 1.0
C      1  0.5618920000000  0.5086300000000  0.6315370000000 1.0
C      1  0.4292630000000  0.4921760000000  0.3791950000000 1.0
C      1  0.6325710000000  0.4922290000000  0.5009530000000 1.0
C      1  0.6189400000000  0.4809340000000  0.4175980000000 1.0
C      1  0.5293970000000  0.4887530000000  0.4641610000000 1.0
C      1  0.5765520000000  0.5599290000000  0.6395520000000 1.0
C      1  0.5769210000000  0.4972810000000  0.5790990000000 1.0
C      1  0.3753650000000  0.4564160000000  0.5268440000000 1.0
C      1  0.6059550000000  0.4903300000000  0.4904440000000 1.0
C      1  0.5448190000000  0.5074740000000  0.3381570000000 1.0
C      1  0.5415380000000  0.5043680000000  0.6121550000000 1.0
C      1  0.5481690000000  0.4990450000000  0.5846990000000 1.0
C      1  0.4447390000000  0.5038000000000  0.5956140000000 1.0
C      1  0.4935970000000  0.5061330000000  0.5296280000000 1.0
C      1  0.5360830000000  0.4997980000000  0.4379090000000 1.0
C      1  0.3988610000000  0.4932470000000  0.4488980000000 1.0
C      1  0.4339850000000  0.4803260000000  0.4057770000000 1.0
C      1  0.5147880000000  0.5061050000000  0.6200830000000 1.0
C      1  0.4051850000000  0.5180720000000  0.4070910000000 1.0
C      1  0.6530660000000  0.4851110000000  0.4828310000000 1.0
C      1  0.4680110000000  0.5130680000000  0.6081770000000 1.0
C      1  0.5747810000000  0.4772120000000  0.4551410000000 1.0
C      1  0.3734590000000  0.4721340000000  0.5027810000000 1.0
C      1  0.6013700000000  0.4805150000000  0.4637440000000 1.0
C      1  0.6489260000000  0.4782400000000  0.4570470000000 1.0
C      1  0.4311890000000  0.5016200000000  0.5728390000000 1.0
C      1  0.4566800000000  0.5030130000000  0.5284780000000 1.0
C      1  0.5652500000000  0.4943890000000  0.4342790000000 1.0
C      1  0.3527260000000  0.4704030000000  0.4844160000000 1.0
C      1  0.4676130000000  0.5050690000000  0.4378150000000 1.0
C      1  0.4058510000000  0.4919210000000  0.5307160000000 1.0
C      1  0.5490780000000  0.5009990000000  0.3917290000000 1.0
C      1  0.5297410000000  0.5077050000000  0.5635930000000 1.0
C      1  0.4986240000000  0.5045730000000  0.4025080000000 1.0
C      1  0.3255320000000  0.4717500000000  0.4441590000000 1.0
C      1  0.4132930000000  0.5145740000000  0.3809520000000 1.0
C      1  0.5420810000000  0.5106270000000  0.3124240000000 1.0
C      1  0.6378840000000  0.5000630000000  0.5265330000000 1.0
C      1  0.4295050000000  0.5001300000000  0.5449310000000 1.0
C      1  0.5701930000000  0.5348020000000  0.6368370000000 1.0
C      1  0.4079740000000  0.4987750000000  0.4763600000000 1.0
C      1  0.5728700000000  0.4874650000000  0.6449460000000 1.0
C      1  0.5129820000000  0.4879030000000  0.4879670000000 1.0
C      1  0.3838040000000  0.4732870000000  0.5725720000000 1.0
C      1  0.3490190000000  0.4758940000000  0.4572370000000 1.0
END
