TITL C-3623289-7120-1601 -6.1264296781647e-07 125000 -1200.1014910409 0 0 195 (C5) n - 1
REM
REM in /home/nfs/bkarasulu/CARBON/AIRSS/Generating-Clusters/LCBOP/Higher-Symm/SD-CG/FIRE-CG
REM
REM
REM
REM
REM
REM ./C.cell (b20cbc046b6831c77cfcea5457e17084)
REM AIRSS Version 0.9.1 bugfix July 2018 build 013d7b7c2542+ Fri, 06 Jul 2018 19:26:36 +0100
REM compiler GCC version 9.2.1 20190827 (Red Hat 9.2.1-1)
REM options -cpp -mtune=generic -march=x86-64 -g -O0 -fpre-include=/usr/include/finclude/math-vector-fortran.h
REM seed -1551306387 -868601325 -1191285573 -1418022915 -2015005736 -1973331538 1561965593 2099408252 -772491328 -158192757 -1953088205 1954762819 -1831599790 1570058374 -1132873657 -396974924 30897302 -345298213 -38902257 -1092676102 -542603746 -1004593133 1959522380 -1533615777 -1935314128 -1107726356 2102510106 -416701080 1994029352 1831374659 1259646495 381500044 -1862733089
REM
CELL 1.54180   50.00000   50.00000   50.00000   90.00000   90.00000   90.00000
LATT -1
SFAC C  
C      1  0.4765640000000  0.4782400000000  0.4887550000000 1.0
C      1  0.4820630000000  0.4782400000000  0.5188150000000 1.0
C      1  0.5123510000000  0.4782400000000  0.5228730000000 1.0
C      1  0.5255700000000  0.4782400000000  0.4953220000000 1.0
C      1  0.5034520000000  0.4782400000000  0.4742360000000 1.0
C      1  0.4841170000000  0.5564100000000  0.5956070000000 1.0
C      1  0.5860200000000  0.5564100000000  0.5446500000000 1.0
C      1  0.5690470000000  0.5564090000000  0.4319870000000 1.0
C      1  0.4566530000000  0.5564090000000  0.4133150000000 1.0
C      1  0.4041630000000  0.5564090000000  0.5144380000000 1.0
C      1  0.4339290000000  0.5534800000000  0.4755690000000 1.0
C      1  0.4563480000000  0.5534810000000  0.5552880000000 1.0
C      1  0.5390930000000  0.5534810000000  0.5586000000000 1.0
C      1  0.5678120000000  0.5534810000000  0.4809290000000 1.0
C      1  0.5028170000000  0.5534800000000  0.4296130000000 1.0
C      1  0.4905340000000  0.5352060000000  0.5250160000000 1.0
C      1  0.5208660000000  0.5352060000000  0.5167320000000 1.0
C      1  0.5223620000000  0.5352060000000  0.4853250000000 1.0
C      1  0.4929540000000  0.5352060000000  0.4741980000000 1.0
C      1  0.4732830000000  0.5352060000000  0.4987280000000 1.0
C      1  0.5419180000000  0.4514310000000  0.4359450000000 1.0
C      1  0.4520330000000  0.4514310000000  0.4403400000000 1.0
C      1  0.4284370000000  0.4514310000000  0.5271840000000 1.0
C      1  0.5037390000000  0.4514320000000  0.5764610000000 1.0
C      1  0.5738740000000  0.4514320000000  0.5200720000000 1.0
C      1  0.5590460000000  0.5804390000000  0.4218090000000 1.0
C      1  0.4438830000000  0.5804380000000  0.4196810000000 1.0
C      1  0.4062710000000  0.5804390000000  0.5285500000000 1.0
C      1  0.4981890000000  0.5804400000000  0.5979630000000 1.0
C      1  0.5926090000000  0.5804390000000  0.5319940000000 1.0
C      1  0.6053040000000  0.4927300000000  0.4923320000000 1.0
C      1  0.5252480000000  0.4927290000000  0.3974800000000 1.0
C      1  0.4103000000000  0.4927290000000  0.4443080000000 1.0
C      1  0.4193140000000  0.4927300000000  0.5681000000000 1.0
C      1  0.5398330000000  0.4927300000000  0.5977810000000 1.0
C      1  0.5360480000000  0.4084610000000  0.4610130000000 1.0
C      1  0.4740600000000  0.4084610000000  0.4536690000000 1.0
C      1  0.4479200000000  0.4084620000000  0.5103540000000 1.0
C      1  0.4937540000000  0.4084620000000  0.5527310000000 1.0
C      1  0.5482190000000  0.4084620000000  0.5222360000000 1.0
C      1  0.5687140000000  0.4526370000000  0.4921010000000 1.0
C      1  0.5137210000000  0.4526370000000  0.4322090000000 1.0
C      1  0.4397670000000  0.4526370000000  0.4660020000000 1.0
C      1  0.4490530000000  0.4526380000000  0.5467800000000 1.0
C      1  0.5287460000000  0.4526380000000  0.5629100000000 1.0
C      1  0.5281710000000  0.5625490000000  0.5325000000000 1.0
C      1  0.5396150000000  0.5625490000000  0.4832500000000 1.0
C      1  0.4963120000000  0.5625480000000  0.4571470000000 1.0
C      1  0.4581050000000  0.5625490000000  0.4902650000000 1.0
C      1  0.4777960000000  0.5625490000000  0.5368360000000 1.0
C      1  0.5586220000000  0.5338070000000  0.6112260000000 1.0
C      1  0.6238980000000  0.5338060000000  0.4786180000000 1.0
C      1  0.5179510000000  0.5338050000000  0.3755580000000 1.0
C      1  0.3871970000000  0.5338050000000  0.4444720000000 1.0
C      1  0.4123320000000  0.5338060000000  0.5901230000000 1.0
C      1  0.6059900000000  0.4734440000000  0.5500870000000 1.0
C      1  0.5803880000000  0.4734430000000  0.4146750000000 1.0
C      1  0.4436920000000  0.4734430000000  0.3971800000000 1.0
C      1  0.3848120000000  0.4734430000000  0.5217790000000 1.0
C      1  0.4851180000000  0.4734440000000  0.6162800000000 1.0
C      1  0.5455240000000  0.6102330000000  0.4886280000000 1.0
C      1  0.5032530000000  0.6102330000000  0.4531900000000 1.0
C      1  0.4564870000000  0.6102330000000  0.4824400000000 1.0
C      1  0.4698540000000  0.6102330000000  0.5359570000000 1.0
C      1  0.5248820000000  0.6102340000000  0.5397810000000 1.0
C      1  0.5578630000000  0.4764870000000  0.4328790000000 1.0
C      1  0.4540450000000  0.4764870000000  0.4242270000000 1.0
C      1  0.4137350000000  0.4764870000000  0.5202910000000 1.0
C      1  0.4926410000000  0.4764880000000  0.5883140000000 1.0
C      1  0.5817170000000  0.4764880000000  0.5342900000000 1.0
C      1  0.4879000000000  0.4104860000000  0.4783030000000 1.0
C      1  0.4756260000000  0.4104860000000  0.5048040000000 1.0
C      1  0.4970360000000  0.4104860000000  0.5246670000000 1.0
C      1  0.5225430000000  0.4104860000000  0.5104420000000 1.0
C      1  0.5168960000000  0.4104860000000  0.4817880000000 1.0
C      1  0.4181350000000  0.5078970000000  0.5100980000000 1.0
C      1  0.4843060000000  0.5078980000000  0.5809790000000 1.0
C      1  0.5721660000000  0.5078980000000  0.5399490000000 1.0
C      1  0.5602950000000  0.5078970000000  0.4437110000000 1.0
C      1  0.4650980000000  0.5078970000000  0.4252620000000 1.0
C      1  0.4995770000000  0.5883200000000  0.4733090000000 1.0
C      1  0.4744850000000  0.5883200000000  0.4921540000000 1.0
C      1  0.4846540000000  0.5883200000000  0.5218410000000 1.0
C      1  0.5160300000000  0.5883200000000  0.5213430000000 1.0
C      1  0.5252530000000  0.5883200000000  0.4913490000000 1.0
C      1  0.6278010000000  0.4253290000000  0.3870870000000 1.0
C      1  0.4321050000000  0.4253280000000  0.3435620000000 1.0
C      1  0.3302380000000  0.4253290000000  0.5162300000000 1.0
C      1  0.4629760000000  0.4253300000000  0.6664690000000 1.0
C      1  0.6468800000000  0.4253300000000  0.5866540000000 1.0
C      1  0.4858880000000  0.4310670000000  0.5679990000000 1.0
C      1  0.5603100000000  0.4310670000000  0.5344340000000 1.0
C      1  0.5513860000000  0.4310660000000  0.4532830000000 1.0
C      1  0.4714480000000  0.4310660000000  0.4366940000000 1.0
C      1  0.4309690000000  0.4310660000000  0.5075920000000 1.0
C      1  0.5974920000000  0.4519360000000  0.4229000000000 1.0
C      1  0.4568010000000  0.4519350000000  0.3834540000000 1.0
C      1  0.3758090000000  0.4519360000000  0.5050710000000 1.0
C      1  0.4664450000000  0.4519370000000  0.6196800000000 1.0
C      1  0.6034530000000  0.4519370000000  0.5688960000000 1.0
C      1  0.5767790000000  0.4443760000000  0.5779310000000 1.0
C      1  0.5978430000000  0.4443750000000  0.4510620000000 1.0
C      1  0.4836920000000  0.4443740000000  0.3918240000000 1.0
C      1  0.3920790000000  0.4443750000000  0.4820820000000 1.0
C      1  0.4496090000000  0.4443760000000  0.5971030000000 1.0
C      1  0.4808310000000  0.5096150000000  0.3967550000000 1.0
C      1  0.3958840000000  0.5096150000000  0.4863260000000 1.0
C      1  0.4548220000000  0.5096160000000  0.5947940000000 1.0
C      1  0.5761940000000  0.5096160000000  0.5722600000000 1.0
C      1  0.5922690000000  0.5096160000000  0.4498650000000 1.0
C      1  0.4258330000000  0.4951860000000  0.3906780000000 1.0
C      1  0.3731100000000  0.4951870000000  0.5367550000000 1.0
C      1  0.4957440000000  0.4951880000000  0.6320380000000 1.0
C      1  0.6242600000000  0.4951870000000  0.5448490000000 1.0
C      1  0.5810530000000  0.4951860000000  0.3956810000000 1.0
C      1  0.4980480000000  0.3844910000000  0.5652700000000 1.0
C      1  0.5614720000000  0.3844910000000  0.5220270000000 1.0
C      1  0.5399440000000  0.3844910000000  0.4483440000000 1.0
C      1  0.4632150000000  0.3844900000000  0.4460490000000 1.0
C      1  0.4373220000000  0.3844910000000  0.5183140000000 1.0
C      1  0.5099130000000  0.5185590000000  0.6214080000000 1.0
C      1  0.6185300000000  0.5185590000000  0.5280890000000 1.0
C      1  0.5633420000000  0.5185580000000  0.3959510000000 1.0
C      1  0.4206180000000  0.5185570000000  0.4076050000000 1.0
C      1  0.3875970000000  0.5185580000000  0.5469450000000 1.0
C      1  0.5669100000000  0.5555370000000  0.5665990000000 1.0
C      1  0.5840160000000  0.5555360000000  0.4569450000000 1.0
C      1  0.4850140000000  0.5555350000000  0.4067910000000 1.0
C      1  0.4067220000000  0.5555360000000  0.4854490000000 1.0
C      1  0.4573370000000  0.5555360000000  0.5842150000000 1.0
C      1  0.4017800000000  0.5154080000000  0.4286380000000 1.0
C      1  0.4017790000000  0.5154090000000  0.5713600000000 1.0
C      1  0.5375160000000  0.5154100000000  0.6154650000000 1.0
C      1  0.6214070000000  0.5154090000000  0.5000010000000 1.0
C      1  0.5375180000000  0.5154080000000  0.3845350000000 1.0
C      1  0.4964180000000  0.5303760000000  0.5988770000000 1.0
C      1  0.5929310000000  0.5303760000000  0.5339610000000 1.0
C      1  0.5610160000000  0.5303750000000  0.4221120000000 1.0
C      1  0.4447790000000  0.5303750000000  0.4179020000000 1.0
C      1  0.4048560000000  0.5303760000000  0.5271480000000 1.0
C      1  0.4389500000000  0.6010820000000  0.4358400000000 1.0
C      1  0.4201150000000  0.6010830000000  0.5382340000000 1.0
C      1  0.5116780000000  0.6010830000000  0.5877890000000 1.0
C      1  0.5871020000000  0.6010830000000  0.5160220000000 1.0
C      1  0.5421540000000  0.6010820000000  0.4221110000000 1.0
C      1  0.5050210000000  0.4512930000000  0.3749630000000 1.0
C      1  0.3826340000000  0.4512940000000  0.4565870000000 1.0
C      1  0.4224430000000  0.4512950000000  0.5982070000000 1.0
C      1  0.5694340000000  0.4512950000000  0.6041090000000 1.0
C      1  0.6204690000000  0.4512940000000  0.4661360000000 1.0
C      1  0.5330310000000  0.5243410000000  0.5596310000000 1.0
C      1  0.5669200000000  0.5243400000000  0.4870130000000 1.0
C      1  0.5083280000000  0.5243400000000  0.4323420000000 1.0
C      1  0.4382270000000  0.5243400000000  0.4711720000000 1.0
C      1  0.4534940000000  0.5243400000000  0.5498410000000 1.0
C      1  0.5766480000000  0.4980950000000  0.4920840000000 1.0
C      1  0.5161570000000  0.4980950000000  0.4246570000000 1.0
C      1  0.4333380000000  0.4980950000000  0.4613520000000 1.0
C      1  0.4426430000000  0.4980950000000  0.5514570000000 1.0
C      1  0.5312140000000  0.4980960000000  0.5704500000000 1.0
C      1  0.4646430000000  0.4381540000000  0.6438450000000 1.0
C      1  0.6258790000000  0.4381540000000  0.5780770000000 1.0
C      1  0.6131540000000  0.4381530000000  0.4044100000000 1.0
C      1  0.4440550000000  0.4381520000000  0.3628450000000 1.0
C      1  0.3522700000000  0.4381530000000  0.5108240000000 1.0
C      1  0.4437230000000  0.6131890000000  0.5415960000000 1.0
C      1  0.5221700000000  0.6131890000000  0.5663760000000 1.0
C      1  0.5699790000000  0.6131890000000  0.4994250000000 1.0
C      1  0.5210780000000  0.6131880000000  0.4332680000000 1.0
C      1  0.4430480000000  0.6131880000000  0.4593310000000 1.0
C      1  0.4117720000000  0.4702440000000  0.5827650000000 1.0
C      1  0.5514500000000  0.4702440000000  0.6094860000000 1.0
C      1  0.6200260000000  0.4702440000000  0.4849010000000 1.0
C      1  0.5227300000000  0.4702430000000  0.3811830000000 1.0
C      1  0.3940220000000  0.4702430000000  0.4416660000000 1.0
C      1  0.4501310000000  0.4778870000000  0.4755330000000 1.0
C      1  0.4613200000000  0.4778870000000  0.5398680000000 1.0
C      1  0.5259640000000  0.4778870000000  0.5491070000000 1.0
C      1  0.5547270000000  0.4778870000000  0.4904820000000 1.0
C      1  0.5078590000000  0.4778870000000  0.4450110000000 1.0
C      1  0.5726400000000  0.5349440000000  0.5864300000000 1.0
C      1  0.6046470000000  0.5349440000000  0.4576240000000 1.0
C      1  0.4920360000000  0.5349430000000  0.3873800000000 1.0
C      1  0.3904310000000  0.5349430000000  0.4727730000000 1.0
C      1  0.4402470000000  0.5349440000000  0.5957930000000 1.0
C      1  0.4589200000000  0.4391860000000  0.5700910000000 1.0
C      1  0.5539660000000  0.4391860000000  0.5607290000000 1.0
C      1  0.5744330000000  0.4391850000000  0.4674420000000 1.0
C      1  0.4920370000000  0.4391850000000  0.4191500000000 1.0
C      1  0.4206460000000  0.4391850000000  0.4825900000000 1.0
C      1  0.4843720000000  0.5174500000000  0.4493620000000 1.0
C      1  0.4470110000000  0.5174510000000  0.4992150000000 1.0
C      1  0.4828790000000  0.5174510000000  0.5501520000000 1.0
C      1  0.5424070000000  0.5174510000000  0.5317810000000 1.0
C      1  0.5433300000000  0.5174510000000  0.4694890000000 1.0
END
