TITL C-3623282-6910-144 244.667784456183 125000 -1013.80671653649 0 0 165 (C1) n - 1
REM
REM in /home/nfs/bkarasulu/CARBON/AIRSS/Generating-Clusters/LCBOP/Higher-Symm/SD-CG/FIRE-CG
REM
REM
REM
REM
REM
REM ./C.cell (b20cbc046b6831c77cfcea5457e17084)
REM AIRSS Version 0.9.1 bugfix July 2018 build 013d7b7c2542+ Fri, 06 Jul 2018 19:26:36 +0100
REM compiler GCC version 9.2.1 20190827 (Red Hat 9.2.1-1)
REM options -cpp -mtune=generic -march=x86-64 -g -O0 -fpre-include=/usr/include/finclude/math-vector-fortran.h
REM seed -104251362 15825913 977405599 -1823801807 -721134380 -423448699 -1899200625 -1977355736 1604456189 371066080 684625006 -558333238 -786395224 1868134520 -697150422 -520193251 52486026 58517813 691974408 1583176843 1913792467 561122700 -216570844 363370608 -1536208388 -1713544409 2128016360 326309237 1541183789 1559572670 608777702 -735790795 1501262624
REM
CELL 1.54180   50.00000   50.00000   50.00000   90.00000   90.00000   90.00000
LATT -1
SFAC C  
C      1  0.4669940000000  0.5326320000000  0.5887410000000 1.0
C      1  0.5780710000000  0.4701070000000  0.5314870000000 1.0
C      1  0.5323480000000  0.5868710000000  0.4669460000000 1.0
C      1  0.4682320000000  0.4665090000000  0.4267400000000 1.0
C      1  0.5323310000000  0.4688610000000  0.5945880000000 1.0
C      1  0.5283850000000  0.5253400000000  0.4039280000000 1.0
C      1  0.5802900000000  0.5413670000000  0.4624520000000 1.0
C      1  0.4288820000000  0.5357910000000  0.5285400000000 1.0
C      1  0.4158560000000  0.4592450000000  0.4750370000000 1.0
C      1  0.5359130000000  0.4171670000000  0.5335070000000 1.0
C      1  0.4692880000000  0.4060350000000  0.4672420000000 1.0
C      1  0.4747030000000  0.5826360000000  0.5406840000000 1.0
C      1  0.5345800000000  0.5283630000000  0.5931060000000 1.0
C      1  0.4164050000000  0.4633250000000  0.5317380000000 1.0
C      1  0.4722490000000  0.5869090000000  0.4639720000000 1.0
C      1  0.5365680000000  0.4681440000000  0.4003630000000 1.0
C      1  0.4668040000000  0.4707950000000  0.5836590000000 1.0
C      1  0.4692400000000  0.5305440000000  0.4165590000000 1.0
C      1  0.4270110000000  0.5282560000000  0.4673770000000 1.0
C      1  0.5796000000000  0.5427670000000  0.5278670000000 1.0
C      1  0.5768600000000  0.4676680000000  0.4681730000000 1.0
C      1  0.4706520000000  0.3992560000000  0.5410020000000 1.0
C      1  0.5254150000000  0.4146320000000  0.4612670000000 1.0
C      1  0.5276990000000  0.5807860000000  0.5406950000000 1.0
C      1  0.4938440000000  0.4748130000000  0.4189330000000 1.0
C      1  0.4314570000000  0.4801280000000  0.4886400000000 1.0
C      1  0.4885370000000  0.3854880000000  0.4728620000000 1.0
C      1  0.4688100000000  0.5119690000000  0.6080230000000 1.0
C      1  0.5073740000000  0.5099410000000  0.3919150000000 1.0
C      1  0.5106160000000  0.4857890000000  0.6061890000000 1.0
C      1  0.4139330000000  0.5165580000000  0.5136930000000 1.0
C      1  0.5698750000000  0.5144740000000  0.4675300000000 1.0
C      1  0.5873150000000  0.4867650000000  0.5096120000000 1.0
C      1  0.4864090000000  0.5824130000000  0.5121410000000 1.0
C      1  0.5138200000000  0.6081320000000  0.4764940000000 1.0
C      1  0.5158700000000  0.4087180000000  0.5094110000000 1.0
C      1  0.5102810000000  0.4809500000000  0.3967280000000 1.0
C      1  0.5820000000000  0.4924730000000  0.4814450000000 1.0
C      1  0.5147440000000  0.3963750000000  0.4807740000000 1.0
C      1  0.5209640000000  0.5126750000000  0.6127940000000 1.0
C      1  0.4803620000000  0.5200640000000  0.3921670000000 1.0
C      1  0.4820230000000  0.4868490000000  0.6013770000000 1.0
C      1  0.6062750000000  0.5417800000000  0.5185630000000 1.0
C      1  0.4067730000000  0.5242830000000  0.4870630000000 1.0
C      1  0.4252260000000  0.4888740000000  0.5182100000000 1.0
C      1  0.5173470000000  0.5762870000000  0.5138320000000 1.0
C      1  0.4868600000000  0.6001750000000  0.4858530000000 1.0
C      1  0.4918560000000  0.3919250000000  0.5228280000000 1.0
C      1  0.4873840000000  0.5470360000000  0.4818520000000 1.0
C      1  0.4800160000000  0.4438350000000  0.5345090000000 1.0
C      1  0.5257380000000  0.4877560000000  0.5009110000000 1.0
C      1  0.4592230000000  0.4444480000000  0.5146700000000 1.0
C      1  0.5285550000000  0.4624150000000  0.4860610000000 1.0
C      1  0.5279040000000  0.5457410000000  0.5092270000000 1.0
C      1  0.5007060000000  0.5120690000000  0.4475280000000 1.0
C      1  0.5184570000000  0.5332400000000  0.5365270000000 1.0
C      1  0.5155360000000  0.4632450000000  0.4593970000000 1.0
C      1  0.5361550000000  0.5116270000000  0.5449360000000 1.0
C      1  0.4786310000000  0.4983190000000  0.4967190000000 1.0
C      1  0.4511320000000  0.4933320000000  0.5347030000000 1.0
C      1  0.5127690000000  0.5319090000000  0.4873850000000 1.0
C      1  0.5051260000000  0.4516770000000  0.5264570000000 1.0
C      1  0.4613740000000  0.4790250000000  0.4806410000000 1.0
C      1  0.5119630000000  0.4410790000000  0.5005770000000 1.0
C      1  0.4685780000000  0.4506130000000  0.4881470000000 1.0
C      1  0.4720380000000  0.5562960000000  0.5030640000000 1.0
C      1  0.5229430000000  0.5316590000000  0.4587610000000 1.0
C      1  0.4906310000000  0.5203860000000  0.5408700000000 1.0
C      1  0.5067350000000  0.4842240000000  0.4432310000000 1.0
C      1  0.4695850000000  0.5116170000000  0.5215000000000 1.0
C      1  0.5464360000000  0.5154130000000  0.4500570000000 1.0
C      1  0.5372320000000  0.4906670000000  0.5262600000000 1.0
C      1  0.5443020000000  0.5096430000000  0.4217130000000 1.0
C      1  0.4554000000000  0.5381370000000  0.5169890000000 1.0
C      1  0.5301160000000  0.4463930000000  0.5396540000000 1.0
C      1  0.5510810000000  0.4863130000000  0.5828940000000 1.0
C      1  0.4605090000000  0.4798120000000  0.4505780000000 1.0
C      1  0.4793210000000  0.5344350000000  0.5633210000000 1.0
C      1  0.4161200000000  0.4366020000000  0.4922310000000 1.0
C      1  0.5495020000000  0.4668930000000  0.5340070000000 1.0
C      1  0.5689880000000  0.5587790000000  0.4820250000000 1.0
C      1  0.5191330000000  0.5631890000000  0.4539820000000 1.0
C      1  0.4874000000000  0.5623360000000  0.5571920000000 1.0
C      1  0.4806900000000  0.4322660000000  0.4699360000000 1.0
C      1  0.4738020000000  0.5194560000000  0.4426210000000 1.0
C      1  0.5592330000000  0.5464420000000  0.5072130000000 1.0
C      1  0.4819780000000  0.4222580000000  0.5525640000000 1.0
C      1  0.4597130000000  0.4831220000000  0.5592490000000 1.0
C      1  0.5558520000000  0.4867270000000  0.4098320000000 1.0
C      1  0.5433940000000  0.5109040000000  0.5721220000000 1.0
C      1  0.5565320000000  0.4550870000000  0.4830090000000 1.0
C      1  0.4300250000000  0.4437910000000  0.5164840000000 1.0
C      1  0.4545730000000  0.5221130000000  0.4636390000000 1.0
C      1  0.4898720000000  0.5647880000000  0.4591400000000 1.0
C      1  0.5151700000000  0.5587040000000  0.5533580000000 1.0
C      1  0.5060850000000  0.4363140000000  0.4572630000000 1.0
C      1  0.5666790000000  0.6015440000000  0.5021720000000 1.0
C      1  0.4847170000000  0.5744250000000  0.6002060000000 1.0
C      1  0.5947380000000  0.4906900000000  0.5705910000000 1.0
C      1  0.5756720000000  0.4129880000000  0.5093900000000 1.0
C      1  0.4250400000000  0.4097770000000  0.4868360000000 1.0
C      1  0.4318630000000  0.5859150000000  0.5166580000000 1.0
C      1  0.4846390000000  0.4240810000000  0.4133160000000 1.0
C      1  0.5128080000000  0.4263450000000  0.5881800000000 1.0
C      1  0.5119830000000  0.5707130000000  0.4049330000000 1.0
C      1  0.5927710000000  0.5119370000000  0.4240860000000 1.0
C      1  0.4169390000000  0.5136270000000  0.5710780000000 1.0
C      1  0.4143360000000  0.4820510000000  0.4313510000000 1.0
C      1  0.4306810000000  0.5836390000000  0.4887190000000 1.0
C      1  0.5129220000000  0.5718500000000  0.5987430000000 1.0
C      1  0.4146280000000  0.4858410000000  0.5736000000000 1.0
C      1  0.4293310000000  0.3990480000000  0.5149580000000 1.0
C      1  0.5703600000000  0.4126230000000  0.4817710000000 1.0
C      1  0.5691580000000  0.5991320000000  0.5293580000000 1.0
C      1  0.5121770000000  0.4262540000000  0.4103440000000 1.0
C      1  0.4853220000000  0.4270690000000  0.5799170000000 1.0
C      1  0.4848170000000  0.5740160000000  0.4090520000000 1.0
C      1  0.4138730000000  0.5099070000000  0.4273680000000 1.0
C      1  0.5900120000000  0.5179770000000  0.5689900000000 1.0
C      1  0.5817280000000  0.4838390000000  0.4220940000000 1.0
C      1  0.4455810000000  0.5821110000000  0.5430560000000 1.0
C      1  0.5370420000000  0.4417210000000  0.5859950000000 1.0
C      1  0.5831380000000  0.5401330000000  0.4324770000000 1.0
C      1  0.4410170000000  0.4099960000000  0.4619550000000 1.0
C      1  0.5641360000000  0.4166940000000  0.5363470000000 1.0
C      1  0.5584320000000  0.5852020000000  0.4798750000000 1.0
C      1  0.5351160000000  0.5531800000000  0.4059530000000 1.0
C      1  0.4584080000000  0.5612180000000  0.5915090000000 1.0
C      1  0.4614230000000  0.4386880000000  0.4236510000000 1.0
C      1  0.5867000000000  0.4655000000000  0.5585310000000 1.0
C      1  0.4194090000000  0.4564780000000  0.4463510000000 1.0
C      1  0.4252650000000  0.5386100000000  0.5574450000000 1.0
C      1  0.5542750000000  0.5850520000000  0.5492430000000 1.0
C      1  0.4608130000000  0.4425400000000  0.5846230000000 1.0
C      1  0.4202050000000  0.5367160000000  0.4398160000000 1.0
C      1  0.5537940000000  0.4188280000000  0.4572880000000 1.0
C      1  0.4419870000000  0.4065850000000  0.5413690000000 1.0
C      1  0.4439000000000  0.5799370000000  0.4621830000000 1.0
C      1  0.4616430000000  0.5585810000000  0.4180020000000 1.0
C      1  0.5377290000000  0.5569870000000  0.5898330000000 1.0
C      1  0.5373240000000  0.4414570000000  0.4129540000000 1.0
C      1  0.4188110000000  0.4595600000000  0.5600830000000 1.0
C      1  0.5777970000000  0.4609380000000  0.4404100000000 1.0
C      1  0.5771930000000  0.5416320000000  0.5571590000000 1.0
C      1  0.4649460000000  0.5192950000000  0.3689260000000 1.0
C      1  0.4470990000000  0.5186520000000  0.6569930000000 1.0
C      1  0.4781210000000  0.3328380000000  0.4689910000000 1.0
C      1  0.3547840000000  0.5308500000000  0.4741470000000 1.0
C      1  0.5211430000000  0.6350810000000  0.4757670000000 1.0
C      1  0.5286380000000  0.6600380000000  0.4756470000000 1.0
C      1  0.4834830000000  0.3582920000000  0.4705480000000 1.0
C      1  0.4496860000000  0.5184970000000  0.3478190000000 1.0
C      1  0.4576050000000  0.5151340000000  0.6334070000000 1.0
C      1  0.3798200000000  0.5279580000000  0.4807710000000 1.0
C      1  0.6310500000000  0.5394330000000  0.5094780000000 1.0
C      1  0.6548630000000  0.5360250000000  0.4994380000000 1.0
C      1  0.5629360000000  0.5554190000000  0.4164480000000 1.0
C      1  0.5668980000000  0.4373350000000  0.5660040000000 1.0
C      1  0.4382260000000  0.5642540000000  0.5670950000000 1.0
C      1  0.5592060000000  0.4377860000000  0.4342240000000 1.0
C      1  0.4381260000000  0.5622710000000  0.4369410000000 1.0
C      1  0.4368670000000  0.4343990000000  0.5657140000000 1.0
C      1  0.4372180000000  0.4320040000000  0.4401900000000 1.0
C      1  0.5602140000000  0.5636260000000  0.5691690000000 1.0
C      1  0.5056100000000  0.5043430000000  0.4929430000000 1.0
END
