TITL C-74086-5274-408 -5.8507840535282e-07 125000 -193.222032950791 0 0 31 (C1) n - 1
REM
REM in /home/nfs/bkarasulu/CARBON/AIRSS/Generating-Clusters/LCBOP/Higher-Symm/SD-CG/FIRE-CG
REM
REM
REM
REM
REM
REM ./C.cell (b20cbc046b6831c77cfcea5457e17084)
REM AIRSS Version 0.9.1 bugfix July 2018 build 013d7b7c2542+ Fri, 06 Jul 2018 19:26:36 +0100
REM compiler GCC version 9.2.1 20190827 (Red Hat 9.2.1-1)
REM options -cpp -mtune=generic -march=x86-64 -g -O0 -fpre-include=/usr/include/finclude/math-vector-fortran.h
REM seed 1744686147 183483928 1572779751 844539948 1165100035 -1862253427 -885404984 1243538264 -2116094070 1097184002 1807324153 -1695418832 -1332569930 994544084 608988035 -1279862042 658613118 893925910 -720290639 -807394488 863983393 45103530 -1395728622 541160673 245025718 -410269460 909218751 1425095080 -1607311473 -1607790481 1975161327 -636820729 1262182211
REM
CELL 1.54180   50.00000   50.00000   50.00000   90.00000   90.00000   90.00000
LATT -1
SFAC C  
C      1  0.4689940000000  0.5426590000000  0.5048080000000 1.0
C      1  0.5038720000000  0.5394110000000  0.4710850000000 1.0
C      1  0.5106980000000  0.5321120000000  0.5229720000000 1.0
C      1  0.4931460000000  0.5242260000000  0.4497860000000 1.0
C      1  0.5373680000000  0.5219070000000  0.5224970000000 1.0
C      1  0.4628610000000  0.5255650000000  0.5269130000000 1.0
C      1  0.4841970000000  0.4626070000000  0.5252680000000 1.0
C      1  0.4852320000000  0.4628030000000  0.4752150000000 1.0
C      1  0.5281680000000  0.4617990000000  0.5010710000000 1.0
C      1  0.5539080000000  0.5252150000000  0.4985910000000 1.0
C      1  0.4892110000000  0.5242380000000  0.5418910000000 1.0
C      1  0.4640370000000  0.5234130000000  0.4471440000000 1.0
C      1  0.4884130000000  0.5000800000000  0.5579560000000 1.0
C      1  0.4535320000000  0.4975790000000  0.4547640000000 1.0
C      1  0.5585690000000  0.4999240000000  0.4852600000000 1.0
C      1  0.4708730000000  0.4823090000000  0.5429150000000 1.0
C      1  0.4768340000000  0.4800620000000  0.4531830000000 1.0
C      1  0.5508380000000  0.4801420000000  0.5051910000000 1.0
C      1  0.5144920000000  0.4632860000000  0.4762000000000 1.0
C      1  0.5127980000000  0.4602870000000  0.5261110000000 1.0
C      1  0.4704250000000  0.4639060000000  0.4995210000000 1.0
C      1  0.5494510000000  0.4939850000000  0.4594310000000 1.0
C      1  0.5119610000000  0.4879650000000  0.5669140000000 1.0
C      1  0.4375000000000  0.4930480000000  0.4773880000000 1.0
C      1  0.5011330000000  0.4962670000000  0.4458000000000 1.0
C      1  0.5440250000000  0.4940730000000  0.5308570000000 1.0
C      1  0.4522570000000  0.4985670000000  0.5258690000000 1.0
C      1  0.4485130000000  0.4836350000000  0.5015100000000 1.0
C      1  0.5240380000000  0.4825520000000  0.4559680000000 1.0
C      1  0.5271580000000  0.4767290000000  0.5462320000000 1.0
C      1  0.4973600000000  0.5423570000000  0.4983390000000 1.0
END
