TITL C-74085-4933-7 4336.42068300054 125000 -879.14251491568 0 0 144 (C1) n - 1
REM
REM in /home/nfs/bkarasulu/CARBON/AIRSS/Generating-Clusters/LCBOP/Higher-Symm/SD-CG/FIRE-CG
REM
REM
REM
REM
REM
REM ./C.cell (b20cbc046b6831c77cfcea5457e17084)
REM AIRSS Version 0.9.1 bugfix July 2018 build 013d7b7c2542+ Fri, 06 Jul 2018 19:26:36 +0100
REM compiler GCC version 9.2.1 20190827 (Red Hat 9.2.1-1)
REM options -cpp -mtune=generic -march=x86-64 -g -O0 -fpre-include=/usr/include/finclude/math-vector-fortran.h
REM seed 971660372 -948745252 2071871755 723287819 -1416572218 -2015681760 695324009 -820187878 1103881884 -1246213337 1056107669 -1405242852 1805917745 1630557368 281911312 1408705867 -902712385 1572939536 1536252063 923061186 364369422 -2064999595 54040641 2028924758 1811524479 -1759163951 451659158 -15286051 -341792843 2042802920 929772929 933769917 -862995408
REM
CELL 1.54180   50.00000   50.00000   50.00000   90.00000   90.00000   90.00000
LATT -1
SFAC C  
C      1  0.4653550000000  0.4158260000000  0.4524650000000 1.0
C      1  0.4575460000000  0.5374080000000  0.5663720000000 1.0
C      1  0.5568260000000  0.6430020000000  0.5183470000000 1.0
C      1  0.4387600000000  0.5577330000000  0.4219360000000 1.0
C      1  0.3945370000000  0.5201400000000  0.5307370000000 1.0
C      1  0.5423900000000  0.5519000000000  0.6021870000000 1.0
C      1  0.5542340000000  0.5166140000000  0.4396290000000 1.0
C      1  0.5047450000000  0.6065210000000  0.5161720000000 1.0
C      1  0.4214790000000  0.5721630000000  0.4381590000000 1.0
C      1  0.5176550000000  0.4621770000000  0.5782490000000 1.0
C      1  0.5971640000000  0.4587110000000  0.5249830000000 1.0
C      1  0.5178130000000  0.5757580000000  0.4381030000000 1.0
C      1  0.5135750000000  0.4041000000000  0.5428030000000 1.0
C      1  0.5596900000000  0.6333410000000  0.5430550000000 1.0
C      1  0.5231710000000  0.3780800000000  0.4703580000000 1.0
C      1  0.5772290000000  0.4460980000000  0.6057040000000 1.0
C      1  0.5112240000000  0.4835120000000  0.5965400000000 1.0
C      1  0.5455440000000  0.4219510000000  0.5731300000000 1.0
C      1  0.5517270000000  0.5333660000000  0.5021080000000 1.0
C      1  0.5022920000000  0.6125970000000  0.5438260000000 1.0
C      1  0.4666000000000  0.5819830000000  0.5444720000000 1.0
C      1  0.4642470000000  0.4582860000000  0.3866750000000 1.0
C      1  0.6172660000000  0.5110480000000  0.4259530000000 1.0
C      1  0.5206200000000  0.4697140000000  0.5512440000000 1.0
C      1  0.5194100000000  0.4334850000000  0.5803320000000 1.0
C      1  0.5406560000000  0.6180700000000  0.4484490000000 1.0
C      1  0.4566490000000  0.4716920000000  0.4704830000000 1.0
C      1  0.5432570000000  0.4103970000000  0.5463420000000 1.0
C      1  0.4620540000000  0.5469230000000  0.4949680000000 1.0
C      1  0.6061840000000  0.4560820000000  0.4973340000000 1.0
C      1  0.4515840000000  0.5175630000000  0.4543350000000 1.0
C      1  0.4647000000000  0.5249140000000  0.4781020000000 1.0
C      1  0.4545100000000  0.4618310000000  0.4135630000000 1.0
C      1  0.5377650000000  0.4180440000000  0.4484710000000 1.0
C      1  0.4723440000000  0.4419990000000  0.5059830000000 1.0
C      1  0.5369260000000  0.4876840000000  0.5359800000000 1.0
C      1  0.5514620000000  0.6443750000000  0.4922360000000 1.0
C      1  0.4750150000000  0.4317450000000  0.5574020000000 1.0
C      1  0.5230860000000  0.5126970000000  0.5415360000000 1.0
C      1  0.5269450000000  0.5331300000000  0.4867650000000 1.0
C      1  0.4156420000000  0.4631490000000  0.5751540000000 1.0
C      1  0.4979960000000  0.4874620000000  0.4835330000000 1.0
C      1  0.3717720000000  0.4353970000000  0.4928830000000 1.0
C      1  0.6067090000000  0.4931150000000  0.4434820000000 1.0
C      1  0.4462470000000  0.5809570000000  0.5243000000000 1.0
C      1  0.5007090000000  0.5736660000000  0.4612270000000 1.0
C      1  0.4263460000000  0.4876290000000  0.5276150000000 1.0
C      1  0.4472710000000  0.4898600000000  0.4512880000000 1.0
C      1  0.5902400000000  0.5106990000000  0.5297500000000 1.0
C      1  0.4302290000000  0.4419600000000  0.5823560000000 1.0
C      1  0.4862730000000  0.4324870000000  0.4405540000000 1.0
C      1  0.4584710000000  0.4963860000000  0.6036840000000 1.0
C      1  0.5199760000000  0.4240080000000  0.5016590000000 1.0
C      1  0.5739380000000  0.5822890000000  0.4936000000000 1.0
C      1  0.5025080000000  0.4060800000000  0.5161790000000 1.0
C      1  0.4798840000000  0.5067930000000  0.4942430000000 1.0
C      1  0.4833720000000  0.5556820000000  0.4042570000000 1.0
C      1  0.5235890000000  0.4814880000000  0.4286840000000 1.0
C      1  0.4953340000000  0.4817240000000  0.4275880000000 1.0
C      1  0.4735860000000  0.5062200000000  0.5215940000000 1.0
C      1  0.3921010000000  0.4789510000000  0.4901060000000 1.0
C      1  0.4544690000000  0.5982130000000  0.5021700000000 1.0
C      1  0.4316470000000  0.5267170000000  0.5724070000000 1.0
C      1  0.4967460000000  0.3757860000000  0.4651180000000 1.0
C      1  0.4517030000000  0.5334540000000  0.4310940000000 1.0
C      1  0.4517530000000  0.5896080000000  0.4741740000000 1.0
C      1  0.3971370000000  0.4229600000000  0.4888810000000 1.0
C      1  0.4455650000000  0.5122670000000  0.5253690000000 1.0
C      1  0.4994790000000  0.4185470000000  0.5644140000000 1.0
C      1  0.4864480000000  0.6182830000000  0.4729770000000 1.0
C      1  0.5452920000000  0.6361420000000  0.4676030000000 1.0
C      1  0.5201870000000  0.5055830000000  0.4730340000000 1.0
C      1  0.5348430000000  0.5275570000000  0.5622780000000 1.0
C      1  0.4864710000000  0.5565100000000  0.5070180000000 1.0
C      1  0.5173160000000  0.4237850000000  0.4048220000000 1.0
C      1  0.4822810000000  0.5381730000000  0.5526080000000 1.0
C      1  0.5169100000000  0.4507610000000  0.5079900000000 1.0
C      1  0.4754730000000  0.5299190000000  0.4147950000000 1.0
C      1  0.5806270000000  0.4498130000000  0.4516570000000 1.0
C      1  0.4842880000000  0.4888230000000  0.6036130000000 1.0
C      1  0.4111850000000  0.4157380000000  0.5121880000000 1.0
C      1  0.5460860000000  0.4134630000000  0.4969950000000 1.0
C      1  0.4348420000000  0.4766340000000  0.4285200000000 1.0
C      1  0.4082850000000  0.4726350000000  0.4384180000000 1.0
C      1  0.4084910000000  0.5283680000000  0.5540110000000 1.0
C      1  0.5541230000000  0.4730600000000  0.5171760000000 1.0
C      1  0.4938840000000  0.5150970000000  0.5400990000000 1.0
C      1  0.4527180000000  0.4304050000000  0.5739440000000 1.0
C      1  0.5328390000000  0.5017440000000  0.6033240000000 1.0
C      1  0.5589370000000  0.6179680000000  0.5648420000000 1.0
C      1  0.4859660000000  0.5045970000000  0.4143460000000 1.0
C      1  0.4383890000000  0.4248780000000  0.4589600000000 1.0
C      1  0.4049990000000  0.4646570000000  0.4659110000000 1.0
C      1  0.5607870000000  0.4328630000000  0.4419450000000 1.0
C      1  0.5807820000000  0.5766260000000  0.4682300000000 1.0
C      1  0.6065980000000  0.4968610000000  0.4718490000000 1.0
C      1  0.5695190000000  0.4483800000000  0.5268840000000 1.0
C      1  0.4809810000000  0.6139050000000  0.5012960000000 1.0
C      1  0.5949500000000  0.4684010000000  0.4357550000000 1.0
C      1  0.4791170000000  0.4582570000000  0.4297540000000 1.0
C      1  0.4800900000000  0.6034170000000  0.5567520000000 1.0
C      1  0.3445800000000  0.4747600000000  0.5045790000000 1.0
C      1  0.4332110000000  0.4601110000000  0.5196180000000 1.0
C      1  0.5665480000000  0.5781860000000  0.4454160000000 1.0
C      1  0.4013560000000  0.4975950000000  0.5124220000000 1.0
C      1  0.5548170000000  0.4903890000000  0.6167920000000 1.0
C      1  0.5548110000000  0.5993400000000  0.5834690000000 1.0
C      1  0.5071680000000  0.5671280000000  0.4134930000000 1.0
C      1  0.5340960000000  0.4998130000000  0.4478490000000 1.0
C      1  0.5587290000000  0.4209810000000  0.5233200000000 1.0
C      1  0.4361870000000  0.5088530000000  0.5944670000000 1.0
C      1  0.4779880000000  0.4488530000000  0.5343510000000 1.0
C      1  0.5819100000000  0.4545330000000  0.4796830000000 1.0
C      1  0.5362400000000  0.5271900000000  0.5904120000000 1.0
C      1  0.5040540000000  0.4591250000000  0.5317620000000 1.0
C      1  0.5417630000000  0.5908870000000  0.4407510000000 1.0
C      1  0.5717970000000  0.4697840000000  0.6167710000000 1.0
C      1  0.5763740000000  0.5199370000000  0.5061200000000 1.0
C      1  0.5490040000000  0.5773690000000  0.5974440000000 1.0
C      1  0.5411200000000  0.4002100000000  0.4711370000000 1.0
C      1  0.4421030000000  0.5468950000000  0.5146840000000 1.0
C      1  0.4904590000000  0.4547450000000  0.3790750000000 1.0
C      1  0.3680000000000  0.4634310000000  0.4964860000000 1.0
C      1  0.5322050000000  0.4688080000000  0.4043280000000 1.0
C      1  0.4766380000000  0.4132970000000  0.5061480000000 1.0
C      1  0.5656320000000  0.4770990000000  0.4900300000000 1.0
C      1  0.5101430000000  0.5616810000000  0.4886990000000 1.0
C      1  0.4846610000000  0.5607830000000  0.5359920000000 1.0
C      1  0.5678460000000  0.4276790000000  0.5887780000000 1.0
C      1  0.4279030000000  0.5848930000000  0.4607720000000 1.0
C      1  0.4138620000000  0.4364630000000  0.4695800000000 1.0
C      1  0.5230740000000  0.5863780000000  0.5046330000000 1.0
C      1  0.4266560000000  0.4343520000000  0.5238790000000 1.0
C      1  0.4744500000000  0.3896680000000  0.4590490000000 1.0
C      1  0.4167390000000  0.4818600000000  0.5561360000000 1.0
C      1  0.5810880000000  0.5014680000000  0.4850670000000 1.0
C      1  0.4784070000000  0.5924820000000  0.4616540000000 1.0
C      1  0.4578900000000  0.5698170000000  0.4036270000000 1.0
C      1  0.5999920000000  0.4856120000000  0.5361100000000 1.0
C      1  0.5510140000000  0.5868710000000  0.5066850000000 1.0
C      1  0.4794890000000  0.4629020000000  0.4854750000000 1.0
C      1  0.6222920000000  0.4773890000000  0.4864920000000 1.0
C      1  0.5159500000000  0.4487300000000  0.3911140000000 1.0
C      1  0.5131190000000  0.4221370000000  0.4332050000000 1.0
END
