TITL C-74081-2727-440 -4.31735405828997e-07 125000 -208.843936071166 0 0 36 (C1) n - 1
REM
REM in /home/nfs/bkarasulu/CARBON/AIRSS/Generating-Clusters/LCBOP/Higher-Symm/SD-CG/FIRE-CG
REM
REM
REM
REM
REM
REM ./C.cell (b20cbc046b6831c77cfcea5457e17084)
REM AIRSS Version 0.9.1 bugfix July 2018 build 013d7b7c2542+ Fri, 06 Jul 2018 19:26:36 +0100
REM compiler GCC version 9.2.1 20190827 (Red Hat 9.2.1-1)
REM options -cpp -mtune=generic -march=x86-64 -g -O0 -fpre-include=/usr/include/finclude/math-vector-fortran.h
REM seed 2106148599 -1787618299 2028125667 1140914701 -1732867263 -1893890458 -1262855862 1621894191 75608378 1373281728 -531921575 566443349 1058795346 1748950715 1617122397 -1086559764 144502162 -203266472 -2046308596 184953617 570118342 910429867 -2025208904 1944646967 -1629856553 187449039 1375560420 1439310215 -1320147083 2136587895 -84770381 1488575320 761560847
REM
CELL 1.54180   50.00000   50.00000   50.00000   90.00000   90.00000   90.00000
LATT -1
SFAC C  
C      1  0.5430640000000  0.5137140000000  0.4860550000000 1.0
C      1  0.4590180000000  0.4861050000000  0.4872290000000 1.0
C      1  0.5552600000000  0.5243530000000  0.5093490000000 1.0
C      1  0.4529510000000  0.4749370000000  0.5124650000000 1.0
C      1  0.4601980000000  0.5150400000000  0.4875340000000 1.0
C      1  0.5383620000000  0.4851280000000  0.4874490000000 1.0
C      1  0.4497740000000  0.5293550000000  0.5094340000000 1.0
C      1  0.5431670000000  0.4720690000000  0.5117640000000 1.0
C      1  0.4738240000000  0.4720110000000  0.4660570000000 1.0
C      1  0.5265840000000  0.5283770000000  0.4666510000000 1.0
C      1  0.4653790000000  0.4769010000000  0.5363230000000 1.0
C      1  0.5499880000000  0.5209360000000  0.5356770000000 1.0
C      1  0.5214510000000  0.4729620000000  0.4682960000000 1.0
C      1  0.4789100000000  0.5271230000000  0.4699220000000 1.0
C      1  0.5249100000000  0.4636540000000  0.5319630000000 1.0
C      1  0.4634930000000  0.5404570000000  0.5316080000000 1.0
C      1  0.5133220000000  0.4863630000000  0.5463610000000 1.0
C      1  0.4763930000000  0.5212320000000  0.5486130000000 1.0
C      1  0.5184420000000  0.4862280000000  0.4443410000000 1.0
C      1  0.4816140000000  0.5148500000000  0.4451860000000 1.0
C      1  0.4853500000000  0.4940560000000  0.5466390000000 1.0
C      1  0.5324540000000  0.5071320000000  0.5508860000000 1.0
C      1  0.4800250000000  0.4874870000000  0.4437070000000 1.0
C      1  0.5199620000000  0.5136500000000  0.4437500000000 1.0
C      1  0.5159370000000  0.5493950000000  0.5073220000000 1.0
C      1  0.4784930000000  0.4400480000000  0.5000050000000 1.0
C      1  0.5050600000000  0.5620780000000  0.5286540000000 1.0
C      1  0.4879840000000  0.4333340000000  0.5245780000000 1.0
C      1  0.4876560000000  0.5725010000000  0.4786190000000 1.0
C      1  0.5175570000000  0.4272640000000  0.4789980000000 1.0
C      1  0.4721780000000  0.5789780000000  0.5008410000000 1.0
C      1  0.5282030000000  0.4230220000000  0.5043400000000 1.0
C      1  0.4768450000000  0.5653620000000  0.5261410000000 1.0
C      1  0.5161050000000  0.4366670000000  0.5273550000000 1.0
C      1  0.5033330000000  0.5455000000000  0.4792260000000 1.0
C      1  0.4967550000000  0.4517300000000  0.4766580000000 1.0
END
