TITL C-74079-2735-288 -14.6765265472275 125000 -493.396997057601 0 0 84 (C1) n - 1
REM
REM in /home/nfs/bkarasulu/CARBON/AIRSS/Generating-Clusters/LCBOP/Higher-Symm/SD-CG/FIRE-CG
REM
REM
REM
REM
REM
REM ./C.cell (b20cbc046b6831c77cfcea5457e17084)
REM AIRSS Version 0.9.1 bugfix July 2018 build 013d7b7c2542+ Fri, 06 Jul 2018 19:26:36 +0100
REM compiler GCC version 9.2.1 20190827 (Red Hat 9.2.1-1)
REM options -cpp -mtune=generic -march=x86-64 -g -O0 -fpre-include=/usr/include/finclude/math-vector-fortran.h
REM seed 1967389734 226504765 -2013178477 1766104421 -2112406985 -370240743 1859496169 -390660868 -1931579671 -1253107973 -726180153 937803885 -1242907688 -1627712864 217553475 -952619267 947146098 2080228586 1646728725 -1249456861 382384203 -64668942 -1827635620 -1984190826 -1151124948 -1240569464 -1483754160 1351927755 -1883568509 -625333349 422900410 -1761409025 575607977
REM
CELL 1.54180   50.00000   50.00000   50.00000   90.00000   90.00000   90.00000
LATT -1
SFAC C  
C      1  0.4325810000000  0.5553000000000  0.5044560000000 1.0
C      1  0.5395770000000  0.5543120000000  0.5527780000000 1.0
C      1  0.5271350000000  0.5528790000000  0.4413380000000 1.0
C      1  0.4765910000000  0.5503100000000  0.4341120000000 1.0
C      1  0.4516490000000  0.5483620000000  0.5520800000000 1.0
C      1  0.5697310000000  0.5480490000000  0.5116430000000 1.0
C      1  0.4807750000000  0.5473480000000  0.5194770000000 1.0
C      1  0.5258880000000  0.5456550000000  0.5079430000000 1.0
C      1  0.4930930000000  0.5446290000000  0.4746140000000 1.0
C      1  0.5282940000000  0.4922160000000  0.5670680000000 1.0
C      1  0.5401130000000  0.4883470000000  0.4471090000000 1.0
C      1  0.4159300000000  0.4941760000000  0.4814700000000 1.0
C      1  0.5134400000000  0.5430990000000  0.5620510000000 1.0
C      1  0.5456580000000  0.5404470000000  0.4610580000000 1.0
C      1  0.4422630000000  0.5440400000000  0.4784770000000 1.0
C      1  0.5032350000000  0.5110050000000  0.4209980000000 1.0
C      1  0.4217520000000  0.5106980000000  0.5314350000000 1.0
C      1  0.5689430000000  0.5110290000000  0.5444330000000 1.0
C      1  0.4340310000000  0.4615590000000  0.4412410000000 1.0
C      1  0.4854390000000  0.4568400000000  0.5705520000000 1.0
C      1  0.5691070000000  0.4526200000000  0.4782470000000 1.0
C      1  0.5168660000000  0.4949050000000  0.5387860000000 1.0
C      1  0.5193210000000  0.4907140000000  0.4695620000000 1.0
C      1  0.4576420000000  0.5037100000000  0.4930640000000 1.0
C      1  0.4706510000000  0.4857380000000  0.4745230000000 1.0
C      1  0.4732550000000  0.5050320000000  0.5692390000000 1.0
C      1  0.5376330000000  0.4869100000000  0.4948370000000 1.0
C      1  0.4673610000000  0.5495870000000  0.4617440000000 1.0
C      1  0.4810250000000  0.5498770000000  0.5477440000000 1.0
C      1  0.5492750000000  0.5473560000000  0.4907690000000 1.0
C      1  0.5590930000000  0.4186600000000  0.5446250000000 1.0
C      1  0.4919120000000  0.4179930000000  0.4226950000000 1.0
C      1  0.4439340000000  0.4192230000000  0.5215450000000 1.0
C      1  0.5097700000000  0.4685040000000  0.5770010000000 1.0
C      1  0.5581680000000  0.4649670000000  0.4563610000000 1.0
C      1  0.4189630000000  0.4747210000000  0.4601140000000 1.0
C      1  0.4611140000000  0.4507210000000  0.5554890000000 1.0
C      1  0.5709330000000  0.4466040000000  0.5065540000000 1.0
C      1  0.4570170000000  0.4523410000000  0.4259500000000 1.0
C      1  0.5069510000000  0.4634690000000  0.4148540000000 1.0
C      1  0.4238000000000  0.4632590000000  0.5214390000000 1.0
C      1  0.5692510000000  0.4642960000000  0.5551350000000 1.0
C      1  0.5222000000000  0.4740360000000  0.5169100000000 1.0
C      1  0.4956290000000  0.4715690000000  0.4779570000000 1.0
C      1  0.4873590000000  0.4973850000000  0.5474640000000 1.0
C      1  0.4771790000000  0.4974490000000  0.4235050000000 1.0
C      1  0.4307200000000  0.4946570000000  0.5548740000000 1.0
C      1  0.5778030000000  0.4947030000000  0.5211070000000 1.0
C      1  0.5616450000000  0.5387300000000  0.5390690000000 1.0
C      1  0.5038300000000  0.5389260000000  0.4287860000000 1.0
C      1  0.4325070000000  0.5387850000000  0.5298430000000 1.0
C      1  0.4232480000000  0.5811910000000  0.5052530000000 1.0
C      1  0.5442680000000  0.5811250000000  0.5577790000000 1.0
C      1  0.5321660000000  0.5789530000000  0.4337100000000 1.0
C      1  0.5193130000000  0.5196900000000  0.5209220000000 1.0
C      1  0.5053790000000  0.5174140000000  0.4754490000000 1.0
C      1  0.4734900000000  0.5203950000000  0.5096970000000 1.0
C      1  0.4470440000000  0.5052730000000  0.5748710000000 1.0
C      1  0.5629260000000  0.4986870000000  0.4977440000000 1.0
C      1  0.4657780000000  0.4974210000000  0.4488580000000 1.0
C      1  0.4381440000000  0.4677220000000  0.5470240000000 1.0
C      1  0.5789990000000  0.4663080000000  0.5272300000000 1.0
C      1  0.4778030000000  0.4700620000000  0.4148110000000 1.0
C      1  0.4145210000000  0.4889090000000  0.5105820000000 1.0
C      1  0.5579520000000  0.4900730000000  0.5627370000000 1.0
C      1  0.5221320000000  0.4875780000000  0.4225130000000 1.0
C      1  0.4264930000000  0.4372190000000  0.5109990000000 1.0
C      1  0.5638520000000  0.4379100000000  0.5631350000000 1.0
C      1  0.5118150000000  0.4356910000000  0.4168710000000 1.0
C      1  0.4600630000000  0.4250930000000  0.5426450000000 1.0
C      1  0.5563120000000  0.4235550000000  0.5167650000000 1.0
C      1  0.4659520000000  0.4252470000000  0.4268240000000 1.0
C      1  0.5187820000000  0.5196600000000  0.5780230000000 1.0
C      1  0.5549330000000  0.5150390000000  0.4506180000000 1.0
C      1  0.4347930000000  0.5160180000000  0.4801930000000 1.0
C      1  0.4991740000000  0.5117280000000  0.5026790000000 1.0
C      1  0.5337750000000  0.4128910000000  0.5029100000000 1.0
C      1  0.5039080000000  0.6412480000000  0.4924460000000 1.0
C      1  0.5344680000000  0.3881410000000  0.4914260000000 1.0
C      1  0.5043860000000  0.4565280000000  0.5016240000000 1.0
C      1  0.5002540000000  0.5602740000000  0.5001450000000 1.0
C      1  0.5009550000000  0.5891410000000  0.4985750000000 1.0
C      1  0.5108500000000  0.4293050000000  0.5014610000000 1.0
C      1  0.5023590000000  0.6154230000000  0.4956440000000 1.0
END
