TITL C-74084-3399-315 7.33787468338728e-07 125000 -406.273114859976 0 0 69 (C1) n - 1
REM
REM in /home/nfs/bkarasulu/CARBON/AIRSS/Generating-Clusters/LCBOP/Higher-Symm/SD-CG/FIRE-CG
REM
REM
REM
REM
REM
REM ./C.cell (b20cbc046b6831c77cfcea5457e17084)
REM AIRSS Version 0.9.1 bugfix July 2018 build 013d7b7c2542+ Fri, 06 Jul 2018 19:26:36 +0100
REM compiler GCC version 9.2.1 20190827 (Red Hat 9.2.1-1)
REM options -cpp -mtune=generic -march=x86-64 -g -O0 -fpre-include=/usr/include/finclude/math-vector-fortran.h
REM seed 1152047897 54487078 1526406641 87252127 468746758 353828562 259670490 -1845956265 -1123351321 -272332132 -943624891 -1250269138 -521187705 -1009036696 439840301 841436095 -1341034846 -1897038144 349459876 794354254 1450542137 -1379640664 -2057917256 552837644 1203615074 1104211153 1523571033 1813846208 -1473534285 1472726504 2111915050 -210862445 1712910619
REM
CELL 1.54180   50.00000   50.00000   50.00000   90.00000   90.00000   90.00000
LATT -1
SFAC C  
C      1  0.5681670000000  0.5276020000000  0.5303710000000 1.0
C      1  0.5708300000000  0.4772710000000  0.5350930000000 1.0
C      1  0.5696040000000  0.4565690000000  0.4893180000000 1.0
C      1  0.5545000000000  0.4980350000000  0.4708220000000 1.0
C      1  0.5670580000000  0.5423500000000  0.4827590000000 1.0
C      1  0.4463140000000  0.4612720000000  0.5311340000000 1.0
C      1  0.4471380000000  0.4585940000000  0.4722910000000 1.0
C      1  0.4476080000000  0.5137460000000  0.4505290000000 1.0
C      1  0.4476420000000  0.5507970000000  0.4961840000000 1.0
C      1  0.4470360000000  0.5184750000000  0.5456940000000 1.0
C      1  0.4675210000000  0.4706080000000  0.4558950000000 1.0
C      1  0.4675980000000  0.5348550000000  0.4552730000000 1.0
C      1  0.4671220000000  0.5516480000000  0.5178180000000 1.0
C      1  0.4673400000000  0.4990960000000  0.5519710000000 1.0
C      1  0.4663330000000  0.4483250000000  0.5145400000000 1.0
C      1  0.4872590000000  0.5010710000000  0.4193210000000 1.0
C      1  0.4863620000000  0.5779880000000  0.4740110000000 1.0
C      1  0.4865460000000  0.5474310000000  0.5651040000000 1.0
C      1  0.4881950000000  0.4531630000000  0.5623660000000 1.0
C      1  0.4868510000000  0.4237070000000  0.4734950000000 1.0
C      1  0.5000580000000  0.5238420000000  0.5805430000000 1.0
C      1  0.4994380000000  0.4299750000000  0.5462280000000 1.0
C      1  0.4992880000000  0.4333020000000  0.4467750000000 1.0
C      1  0.4981460000000  0.5293420000000  0.4188080000000 1.0
C      1  0.4982400000000  0.5855690000000  0.5016370000000 1.0
C      1  0.4626780000000  0.4698650000000  0.5546730000000 1.0
C      1  0.4615710000000  0.4371260000000  0.4870380000000 1.0
C      1  0.4625420000000  0.4926400000000  0.4364140000000 1.0
C      1  0.4620280000000  0.5589770000000  0.4716300000000 1.0
C      1  0.4616150000000  0.5443220000000  0.5463610000000 1.0
C      1  0.4298300000000  0.4786380000000  0.4854210000000 1.0
C      1  0.4310360000000  0.5070550000000  0.4740770000000 1.0
C      1  0.4309640000000  0.5264040000000  0.4971690000000 1.0
C      1  0.4299980000000  0.5104120000000  0.5230410000000 1.0
C      1  0.4288550000000  0.4803610000000  0.5162370000000 1.0
C      1  0.5452020000000  0.4346540000000  0.5255830000000 1.0
C      1  0.5449340000000  0.4558400000000  0.4457760000000 1.0
C      1  0.5433050000000  0.5361740000000  0.4396160000000 1.0
C      1  0.5439020000000  0.5692690000000  0.5169400000000 1.0
C      1  0.5464170000000  0.5051120000000  0.5688210000000 1.0
C      1  0.5642960000000  0.4547540000000  0.5176830000000 1.0
C      1  0.5601570000000  0.4700120000000  0.4655210000000 1.0
C      1  0.5587080000000  0.5249350000000  0.4611800000000 1.0
C      1  0.5616320000000  0.5475800000000  0.5105260000000 1.0
C      1  0.5644000000000  0.5036300000000  0.5461820000000 1.0
C      1  0.5109690000000  0.5424480000000  0.4799350000000 1.0
C      1  0.5066790000000  0.5302190000000  0.5301590000000 1.0
C      1  0.5082600000000  0.4822650000000  0.5342820000000 1.0
C      1  0.5053390000000  0.4587430000000  0.4924610000000 1.0
C      1  0.5068910000000  0.4937500000000  0.4580800000000 1.0
C      1  0.5075910000000  0.5626780000000  0.4596500000000 1.0
C      1  0.5070190000000  0.5554360000000  0.5449490000000 1.0
C      1  0.5095140000000  0.4737650000000  0.5638810000000 1.0
C      1  0.5077460000000  0.4295570000000  0.4940680000000 1.0
C      1  0.5080640000000  0.4833150000000  0.4304900000000 1.0
C      1  0.4930050000000  0.5068590000000  0.5393890000000 1.0
C      1  0.4921880000000  0.4637730000000  0.5172420000000 1.0
C      1  0.4937230000000  0.4719240000000  0.4705900000000 1.0
C      1  0.4930500000000  0.5186390000000  0.4649700000000 1.0
C      1  0.4934850000000  0.5384730000000  0.5057510000000 1.0
C      1  0.5164460000000  0.5471240000000  0.4351060000000 1.0
C      1  0.5162940000000  0.5749800000000  0.5240160000000 1.0
C      1  0.5188060000000  0.4996460000000  0.5765300000000 1.0
C      1  0.5177070000000  0.4257090000000  0.5223720000000 1.0
C      1  0.5176700000000  0.4551130000000  0.4354950000000 1.0
C      1  0.5413450000000  0.4991820000000  0.4958450000000 1.0
C      1  0.5309860000000  0.4900730000000  0.5182160000000 1.0
C      1  0.4674810000000  0.4937920000000  0.5023520000000 1.0
C      1  0.4815780000000  0.5134630000000  0.4939550000000 1.0
END
