TITL C-74079-2735-295 1.05016911676544e-07 125000 -263.548494716078 0 0 42 (C1) n - 1
REM
REM in /home/nfs/bkarasulu/CARBON/AIRSS/Generating-Clusters/LCBOP/Higher-Symm/SD-CG/FIRE-CG
REM
REM
REM
REM
REM
REM ./C.cell (b20cbc046b6831c77cfcea5457e17084)
REM AIRSS Version 0.9.1 bugfix July 2018 build 013d7b7c2542+ Fri, 06 Jul 2018 19:26:36 +0100
REM compiler GCC version 9.2.1 20190827 (Red Hat 9.2.1-1)
REM options -cpp -mtune=generic -march=x86-64 -g -O0 -fpre-include=/usr/include/finclude/math-vector-fortran.h
REM seed 900778390 -336467811 -1536874241 379629350 1254148892 639186560 597617756 1494966866 1292840713 199241936 -301495374 882411180 1340647254 -1336408664 1653844000 -723597342 1620413189 373629803 1859807676 1925579492 629209302 -1773376800 1001901680 -1745470908 -685653919 1989372226 229522499 -811856924 -1882731910 -1052949850 948082330 795909343 961161169
REM
CELL 1.54180   50.00000   50.00000   50.00000   90.00000   90.00000   90.00000
LATT -1
SFAC C  
C      1  0.5316290000000  0.5188130000000  0.5303250000000 1.0
C      1  0.5220190000000  0.5024430000000  0.5513690000000 1.0
C      1  0.5140950000000  0.5372570000000  0.5177570000000 1.0
C      1  0.4618860000000  0.5333600000000  0.4617910000000 1.0
C      1  0.4553480000000  0.4779790000000  0.5046960000000 1.0
C      1  0.5440480000000  0.4806240000000  0.4769440000000 1.0
C      1  0.4755720000000  0.5121440000000  0.4490400000000 1.0
C      1  0.4739680000000  0.4715180000000  0.5493460000000 1.0
C      1  0.5228860000000  0.4643860000000  0.4663440000000 1.0
C      1  0.4787930000000  0.5522040000000  0.4745810000000 1.0
C      1  0.4629260000000  0.4595610000000  0.5261680000000 1.0
C      1  0.5114610000000  0.4449980000000  0.4839320000000 1.0
C      1  0.5471110000000  0.4798620000000  0.5064780000000 1.0
C      1  0.5227500000000  0.4722840000000  0.5475410000000 1.0
C      1  0.5341500000000  0.4614250000000  0.5237030000000 1.0
C      1  0.4679440000000  0.4695760000000  0.4798770000000 1.0
C      1  0.4669480000000  0.5173480000000  0.5296850000000 1.0
C      1  0.5447910000000  0.5247220000000  0.4499860000000 1.0
C      1  0.4784170000000  0.4844470000000  0.4582270000000 1.0
C      1  0.4746720000000  0.5016610000000  0.5520610000000 1.0
C      1  0.5187750000000  0.5356410000000  0.4484220000000 1.0
C      1  0.4821580000000  0.4448490000000  0.4864600000000 1.0
C      1  0.4837630000000  0.5383240000000  0.5206280000000 1.0
C      1  0.5085970000000  0.5508650000000  0.4700980000000 1.0
C      1  0.4756050000000  0.5611960000000  0.5028620000000 1.0
C      1  0.5221370000000  0.4390160000000  0.5109260000000 1.0
C      1  0.4358680000000  0.5301090000000  0.4718690000000 1.0
C      1  0.4485990000000  0.5045840000000  0.5116190000000 1.0
C      1  0.5002260000000  0.5192000000000  0.4340480000000 1.0
C      1  0.4989970000000  0.4629450000000  0.5635610000000 1.0
C      1  0.5045040000000  0.4745760000000  0.4471290000000 1.0
C      1  0.5529290000000  0.5072330000000  0.5155630000000 1.0
C      1  0.5557340000000  0.5066850000000  0.4684100000000 1.0
C      1  0.4986200000000  0.5074210000000  0.5691230000000 1.0
C      1  0.5198800000000  0.5583680000000  0.4970140000000 1.0
C      1  0.4752270000000  0.4360260000000  0.5145630000000 1.0
C      1  0.5108130000000  0.4933110000000  0.4263340000000 1.0
C      1  0.5002360000000  0.4255620000000  0.5242430000000 1.0
C      1  0.4303460000000  0.5186610000000  0.4956320000000 1.0
C      1  0.4993790000000  0.4828110000000  0.5859580000000 1.0
C      1  0.4995890000000  0.5788470000000  0.5053810000000 1.0
C      1  0.5657950000000  0.5187770000000  0.4928070000000 1.0
END
