TITL C-74081-2727-103 -2.29235336479522e-07 125000 -462.889071818523 0 0 76 (C1) n - 1
REM
REM in /home/nfs/bkarasulu/CARBON/AIRSS/Generating-Clusters/LCBOP/Higher-Symm/SD-CG/FIRE-CG
REM
REM
REM
REM
REM
REM ./C.cell (b20cbc046b6831c77cfcea5457e17084)
REM AIRSS Version 0.9.1 bugfix July 2018 build 013d7b7c2542+ Fri, 06 Jul 2018 19:26:36 +0100
REM compiler GCC version 9.2.1 20190827 (Red Hat 9.2.1-1)
REM options -cpp -mtune=generic -march=x86-64 -g -O0 -fpre-include=/usr/include/finclude/math-vector-fortran.h
REM seed 1075031743 1612369469 -536727504 -468575083 1341336525 -588654533 -123190899 1857633696 -655143163 753065508 1375135422 -150048806 245886505 -1485737204 1201534665 1927716128 -823876221 -1331225146 -1184227464 943496589 -264882691 411839121 -537844512 1492708101 -1270494256 -796923419 -272873491 -1826374449 99901739 -727709306 -1367217403 -1733027715 -1442568295
REM
CELL 1.54180   50.00000   50.00000   50.00000   90.00000   90.00000   90.00000
LATT -1
SFAC C  
C      1  0.5745230000000  0.4569170000000  0.5120360000000 1.0
C      1  0.4425910000000  0.4655770000000  0.4957290000000 1.0
C      1  0.4999140000000  0.5826820000000  0.5066980000000 1.0
C      1  0.5670580000000  0.5350920000000  0.4971210000000 1.0
C      1  0.4320370000000  0.5412730000000  0.4942240000000 1.0
C      1  0.5017340000000  0.4189580000000  0.4993570000000 1.0
C      1  0.4239420000000  0.5081110000000  0.5349480000000 1.0
C      1  0.5428640000000  0.5589780000000  0.5370770000000 1.0
C      1  0.5327580000000  0.4249130000000  0.5429510000000 1.0
C      1  0.4339710000000  0.4892840000000  0.4550940000000 1.0
C      1  0.5589250000000  0.4339450000000  0.4715700000000 1.0
C      1  0.5289350000000  0.5762450000000  0.4677470000000 1.0
C      1  0.5081880000000  0.4163540000000  0.5599860000000 1.0
C      1  0.4274670000000  0.5332840000000  0.5523960000000 1.0
C      1  0.5619760000000  0.5452020000000  0.5563910000000 1.0
C      1  0.5063870000000  0.5862120000000  0.4502920000000 1.0
C      1  0.4102800000000  0.4714930000000  0.4532330000000 1.0
C      1  0.5780450000000  0.4505350000000  0.4553310000000 1.0
C      1  0.4335390000000  0.4390780000000  0.4884530000000 1.0
C      1  0.4769220000000  0.5921360000000  0.4917580000000 1.0
C      1  0.5935680000000  0.4736480000000  0.4979790000000 1.0
C      1  0.4332160000000  0.5650490000000  0.5105260000000 1.0
C      1  0.4767280000000  0.4106210000000  0.5130490000000 1.0
C      1  0.5882590000000  0.5249420000000  0.5144370000000 1.0
C      1  0.5254510000000  0.5861770000000  0.4941870000000 1.0
C      1  0.5674920000000  0.4326150000000  0.4986150000000 1.0
C      1  0.4525440000000  0.4804700000000  0.4730950000000 1.0
C      1  0.5172800000000  0.4322450000000  0.5193300000000 1.0
C      1  0.5456720000000  0.5401560000000  0.5150470000000 1.0
C      1  0.4340490000000  0.5183990000000  0.5100010000000 1.0
C      1  0.4827310000000  0.5376840000000  0.5036830000000 1.0
C      1  0.5399470000000  0.4915890000000  0.5096680000000 1.0
C      1  0.4834220000000  0.4656110000000  0.5132480000000 1.0
C      1  0.4908520000000  0.4605250000000  0.4855850000000 1.0
C      1  0.5408470000000  0.4994520000000  0.4800610000000 1.0
C      1  0.4744570000000  0.5353640000000  0.4747420000000 1.0
C      1  0.4557920000000  0.4703990000000  0.5202420000000 1.0
C      1  0.4968560000000  0.5576730000000  0.5197070000000 1.0
C      1  0.5527500000000  0.4694210000000  0.5259080000000 1.0
C      1  0.4449430000000  0.5358240000000  0.4690780000000 1.0
C      1  0.5055850000000  0.4369250000000  0.4772710000000 1.0
C      1  0.5519620000000  0.5265770000000  0.4740530000000 1.0
C      1  0.4142270000000  0.4455620000000  0.4666100000000 1.0
C      1  0.4841960000000  0.5975870000000  0.4645080000000 1.0
C      1  0.5971070000000  0.4650690000000  0.4708460000000 1.0
C      1  0.4253210000000  0.5586060000000  0.5379100000000 1.0
C      1  0.4853700000000  0.4063620000000  0.5422130000000 1.0
C      1  0.5853800000000  0.5348710000000  0.5420520000000 1.0
C      1  0.4288850000000  0.5179840000000  0.4523210000000 1.0
C      1  0.5355300000000  0.5472310000000  0.4609830000000 1.0
C      1  0.5306620000000  0.4402200000000  0.4638570000000 1.0
C      1  0.4462770000000  0.4881800000000  0.5409000000000 1.0
C      1  0.5418400000000  0.4538700000000  0.5497200000000 1.0
C      1  0.5140670000000  0.5524570000000  0.5429340000000 1.0
C      1  0.4691910000000  0.5196900000000  0.5197740000000 1.0
C      1  0.5317260000000  0.5146330000000  0.5246330000000 1.0
C      1  0.5025310000000  0.4570600000000  0.5305070000000 1.0
C      1  0.4796720000000  0.4788210000000  0.4679530000000 1.0
C      1  0.5251160000000  0.4879830000000  0.4590040000000 1.0
C      1  0.4929210000000  0.5240450000000  0.4558940000000 1.0
C      1  0.5429230000000  0.5263750000000  0.5690770000000 1.0
C      1  0.5032620000000  0.4419760000000  0.5743340000000 1.0
C      1  0.4537470000000  0.5274440000000  0.5644820000000 1.0
C      1  0.5607860000000  0.4635140000000  0.4363520000000 1.0
C      1  0.5029360000000  0.5646850000000  0.4315830000000 1.0
C      1  0.3901210000000  0.4910840000000  0.4456270000000 1.0
C      1  0.4673800000000  0.5089060000000  0.5465130000000 1.0
C      1  0.5195790000000  0.5232840000000  0.5505760000000 1.0
C      1  0.5142940000000  0.4632180000000  0.5567380000000 1.0
C      1  0.4005540000000  0.5172100000000  0.4447900000000 1.0
C      1  0.5340990000000  0.4642140000000  0.4468150000000 1.0
C      1  0.5124010000000  0.5404480000000  0.4436360000000 1.0
C      1  0.4509540000000  0.5856880000000  0.5018300000000 1.0
C      1  0.4509160000000  0.4181850000000  0.5003300000000 1.0
C      1  0.5992580000000  0.4997310000000  0.5074750000000 1.0
C      1  0.4980880000000  0.4965170000000  0.4568250000000 1.0
END
