TITL C-74082-2733-265 1.12002222696883e-06 125000 -345.05865145109 0 0 59 (C1) n - 1
REM
REM in /home/nfs/bkarasulu/CARBON/AIRSS/Generating-Clusters/LCBOP/Higher-Symm/SD-CG/FIRE-CG
REM
REM
REM
REM
REM
REM ./C.cell (b20cbc046b6831c77cfcea5457e17084)
REM AIRSS Version 0.9.1 bugfix July 2018 build 013d7b7c2542+ Fri, 06 Jul 2018 19:26:36 +0100
REM compiler GCC version 9.2.1 20190827 (Red Hat 9.2.1-1)
REM options -cpp -mtune=generic -march=x86-64 -g -O0 -fpre-include=/usr/include/finclude/math-vector-fortran.h
REM seed -1670369894 -610226853 -1652221843 262276051 1882116721 -646518537 1002938154 -1081422154 945795107 101251285 911245657 -2024935683 -1675860437 -993139092 2145495962 -1208518565 -113137849 -72682674 -639974815 -840889854 -257004077 952645862 -1136053437 2087612330 -787899672 1178913549 -1292388226 -1229338051 1923112037 202185904 -24776266 -573082829 -1813758394
REM
CELL 1.54180   50.00000   50.00000   50.00000   90.00000   90.00000   90.00000
LATT -1
SFAC C  
C      1  0.4883710000000  0.4797030000000  0.5858800000000 1.0
C      1  0.5173490000000  0.4831610000000  0.5856540000000 1.0
C      1  0.5233690000000  0.5117090000000  0.5849180000000 1.0
C      1  0.4980610000000  0.5259960000000  0.5868420000000 1.0
C      1  0.4765270000000  0.5062710000000  0.5876780000000 1.0
C      1  0.5294300000000  0.4693660000000  0.5643550000000 1.0
C      1  0.5388390000000  0.5193380000000  0.5621710000000 1.0
C      1  0.4948160000000  0.5448750000000  0.5660110000000 1.0
C      1  0.4571070000000  0.5106020000000  0.5676450000000 1.0
C      1  0.4785140000000  0.4644550000000  0.5637800000000 1.0
C      1  0.4717770000000  0.5419750000000  0.4691400000000 1.0
C      1  0.4424410000000  0.4975220000000  0.4748800000000 1.0
C      1  0.5005540000000  0.4467870000000  0.4659750000000 1.0
C      1  0.5506050000000  0.4659210000000  0.4693950000000 1.0
C      1  0.5254240000000  0.5464700000000  0.4669700000000 1.0
C      1  0.4957390000000  0.5229950000000  0.4302850000000 1.0
C      1  0.4757530000000  0.5031290000000  0.4396540000000 1.0
C      1  0.4828380000000  0.4761740000000  0.4319270000000 1.0
C      1  0.5126320000000  0.4789030000000  0.4292950000000 1.0
C      1  0.5426630000000  0.5151170000000  0.4337530000000 1.0
C      1  0.5803240000000  0.5012900000000  0.4780560000000 1.0
C      1  0.5211630000000  0.5883520000000  0.4886110000000 1.0
C      1  0.4280350000000  0.5499410000000  0.4858100000000 1.0
C      1  0.4331190000000  0.4528540000000  0.4807520000000 1.0
C      1  0.5274700000000  0.4167150000000  0.4908800000000 1.0
C      1  0.5334660000000  0.5453070000000  0.4976340000000 1.0
C      1  0.4718700000000  0.5497840000000  0.4994870000000 1.0
C      1  0.4395070000000  0.4925060000000  0.5035820000000 1.0
C      1  0.4925350000000  0.4469110000000  0.4964550000000 1.0
C      1  0.5505650000000  0.4734500000000  0.4988220000000 1.0
C      1  0.4453090000000  0.4630350000000  0.5051330000000 1.0
C      1  0.5184130000000  0.4377180000000  0.5085070000000 1.0
C      1  0.5616750000000  0.5016010000000  0.5005780000000 1.0
C      1  0.5167830000000  0.5675750000000  0.5082870000000 1.0
C      1  0.4444980000000  0.5409240000000  0.5081330000000 1.0
C      1  0.5741880000000  0.4805460000000  0.4603200000000 1.0
C      1  0.5287120000000  0.5767880000000  0.4642050000000 1.0
C      1  0.4435930000000  0.5518710000000  0.4624940000000 1.0
C      1  0.4314400000000  0.4737370000000  0.4624600000000 1.0
C      1  0.5168240000000  0.4208220000000  0.4654750000000 1.0
C      1  0.4947430000000  0.5387770000000  0.5389080000000 1.0
C      1  0.4625180000000  0.5097900000000  0.5404190000000 1.0
C      1  0.4801570000000  0.4702030000000  0.5364500000000 1.0
C      1  0.5233080000000  0.4745940000000  0.5378000000000 1.0
C      1  0.5321080000000  0.5169600000000  0.5352000000000 1.0
C      1  0.4448260000000  0.5147630000000  0.5199460000000 1.0
C      1  0.4718850000000  0.4570380000000  0.5133670000000 1.0
C      1  0.5337010000000  0.4600560000000  0.5169700000000 1.0
C      1  0.5451890000000  0.5228820000000  0.5114130000000 1.0
C      1  0.4925870000000  0.5559270000000  0.5174110000000 1.0
C      1  0.5347360000000  0.5187460000000  0.4609360000000 1.0
C      1  0.4970820000000  0.5438630000000  0.4521010000000 1.0
C      1  0.4682560000000  0.5100570000000  0.4685060000000 1.0
C      1  0.4784930000000  0.4523300000000  0.4466430000000 1.0
C      1  0.5219700000000  0.4704050000000  0.4590430000000 1.0
C      1  0.5166860000000  0.4980950000000  0.4742590000000 1.0
C      1  0.4961500000000  0.5018120000000  0.4921530000000 1.0
C      1  0.5188870000000  0.5063140000000  0.4212000000000 1.0
C      1  0.4979900000000  0.5021560000000  0.5282830000000 1.0
END
