TITL C-74084-3399-87 4.3713927557622e-08 125000 -31.1856428631267 0 0 6 (D(inf)h) n - 1
REM
REM in /home/nfs/bkarasulu/CARBON/AIRSS/Generating-Clusters/LCBOP/Higher-Symm/SD-CG/FIRE-CG
REM
REM
REM
REM
REM
REM ./C.cell (b20cbc046b6831c77cfcea5457e17084)
REM AIRSS Version 0.9.1 bugfix July 2018 build 013d7b7c2542+ Fri, 06 Jul 2018 19:26:36 +0100
REM compiler GCC version 9.2.1 20190827 (Red Hat 9.2.1-1)
REM options -cpp -mtune=generic -march=x86-64 -g -O0 -fpre-include=/usr/include/finclude/math-vector-fortran.h
REM seed 1866951743 937011533 624157570 -1387378340 -1117495675 -2065201469 1991004768 230182323 279065856 -115577483 -1105609813 -356466163 1476039420 195661660 697357239 -1805245738 1533343474 -949789757 1128706720 -505835129 -891966075 1745663039 -1274759722 1753754358 44370513 1257439672 1826977753 315505851 896536225 -1577307002 436073929 189106475 -387217822
REM
CELL 1.54180   50.00000   50.00000   50.00000   90.00000   90.00000   90.00000
LATT -1
SFAC C  
C      1  0.4997070000000  0.5015610000000  0.5132500000000 1.0
C      1  0.4997070000000  0.5015610000000  0.4602440000000 1.0
C      1  0.4997070000000  0.5015610000000  0.4341740000000 1.0
C      1  0.4997070000000  0.5015610000000  0.5397560000000 1.0
C      1  0.4997070000000  0.5015610000000  0.4867500000000 1.0
C      1  0.4997070000000  0.5015610000000  0.5658260000000 1.0
END
