TITL C-74083-3671-357 0.174305178964852 125000 -589.951044758087 0 0 97 (C1) n - 1
REM
REM in /home/nfs/bkarasulu/CARBON/AIRSS/Generating-Clusters/LCBOP/Higher-Symm/SD-CG/FIRE-CG
REM
REM
REM
REM
REM
REM ./C.cell (b20cbc046b6831c77cfcea5457e17084)
REM AIRSS Version 0.9.1 bugfix July 2018 build 013d7b7c2542+ Fri, 06 Jul 2018 19:26:36 +0100
REM compiler GCC version 9.2.1 20190827 (Red Hat 9.2.1-1)
REM options -cpp -mtune=generic -march=x86-64 -g -O0 -fpre-include=/usr/include/finclude/math-vector-fortran.h
REM seed -1692150897 192771002 -272457179 1714318469 -521376176 1888262223 -356078579 853679070 1471711036 -41970197 -293783383 681522726 390033240 1861849406 -1685951556 1148481754 -1674424736 889864734 -1952309257 2094251420 1455113868 347981891 -530760086 -2110382592 1656386338 -186881973 -503998561 -1795628859 1692264415 1099671810 -505660037 -1829501558 -1743449142
REM
CELL 1.54180   50.00000   50.00000   50.00000   90.00000   90.00000   90.00000
LATT -1
SFAC C  
C      1  0.5505780000000  0.4618590000000  0.4228760000000 1.0
C      1  0.5430240000000  0.4421850000000  0.5837950000000 1.0
C      1  0.4166200000000  0.5123680000000  0.5342760000000 1.0
C      1  0.4148090000000  0.5072660000000  0.4867740000000 1.0
C      1  0.5103000000000  0.4783600000000  0.5962220000000 1.0
C      1  0.5097850000000  0.4808600000000  0.4000670000000 1.0
C      1  0.5115900000000  0.5032410000000  0.3564900000000 1.0
C      1  0.5245990000000  0.5304090000000  0.5987080000000 1.0
C      1  0.4601490000000  0.5616480000000  0.5662020000000 1.0
C      1  0.4418380000000  0.5470500000000  0.4361650000000 1.0
C      1  0.5869500000000  0.4823090000000  0.4464520000000 1.0
C      1  0.5587020000000  0.4738940000000  0.4867670000000 1.0
C      1  0.4602150000000  0.4822930000000  0.5797900000000 1.0
C      1  0.4627550000000  0.4734730000000  0.4230190000000 1.0
C      1  0.5435690000000  0.5726820000000  0.4626610000000 1.0
C      1  0.5586980000000  0.5409480000000  0.5472570000000 1.0
C      1  0.4922820000000  0.5076010000000  0.5446870000000 1.0
C      1  0.4874230000000  0.5212870000000  0.4612010000000 1.0
C      1  0.5341310000000  0.5533950000000  0.5868190000000 1.0
C      1  0.4994460000000  0.5103800000000  0.3345640000000 1.0
C      1  0.4529190000000  0.5890310000000  0.4693770000000 1.0
C      1  0.4608650000000  0.5921620000000  0.5215520000000 1.0
C      1  0.5223860000000  0.5852010000000  0.4793430000000 1.0
C      1  0.5481700000000  0.5626540000000  0.5633560000000 1.0
C      1  0.5424980000000  0.5177820000000  0.5503270000000 1.0
C      1  0.5278750000000  0.5539540000000  0.4457100000000 1.0
C      1  0.5086590000000  0.4697340000000  0.4465140000000 1.0
C      1  0.5028680000000  0.4542450000000  0.5567310000000 1.0
C      1  0.5681670000000  0.5670710000000  0.4771730000000 1.0
C      1  0.5732650000000  0.5456060000000  0.5230240000000 1.0
C      1  0.4348210000000  0.4600080000000  0.5348210000000 1.0
C      1  0.4438470000000  0.4466290000000  0.4565260000000 1.0
C      1  0.4993080000000  0.4959320000000  0.4543560000000 1.0
C      1  0.4971130000000  0.4803620000000  0.5479720000000 1.0
C      1  0.5725700000000  0.4963610000000  0.4003050000000 1.0
C      1  0.5679420000000  0.4809930000000  0.5730680000000 1.0
C      1  0.4940780000000  0.4448990000000  0.4520950000000 1.0
C      1  0.4828300000000  0.4366450000000  0.5473050000000 1.0
C      1  0.5465670000000  0.5865790000000  0.5481090000000 1.0
C      1  0.5308480000000  0.5997130000000  0.5020530000000 1.0
C      1  0.5851480000000  0.5456090000000  0.4674210000000 1.0
C      1  0.5846750000000  0.5238880000000  0.5085110000000 1.0
C      1  0.5733950000000  0.4785310000000  0.4221770000000 1.0
C      1  0.5665120000000  0.4547650000000  0.5792650000000 1.0
C      1  0.4418000000000  0.5260830000000  0.5369250000000 1.0
C      1  0.4355670000000  0.5244230000000  0.4763420000000 1.0
C      1  0.4402000000000  0.5195890000000  0.4309010000000 1.0
C      1  0.4569510000000  0.5373260000000  0.5790100000000 1.0
C      1  0.4681700000000  0.5162260000000  0.5306040000000 1.0
C      1  0.4640970000000  0.5197110000000  0.4790580000000 1.0
C      1  0.4520720000000  0.5101990000000  0.5798590000000 1.0
C      1  0.4416730000000  0.4906750000000  0.4357300000000 1.0
C      1  0.4355660000000  0.5532990000000  0.5281430000000 1.0
C      1  0.4273990000000  0.5516270000000  0.4799380000000 1.0
C      1  0.5180040000000  0.4544900000000  0.5808660000000 1.0
C      1  0.5236700000000  0.4692300000000  0.4223720000000 1.0
C      1  0.5022200000000  0.5462330000000  0.4579770000000 1.0
C      1  0.5165780000000  0.5205090000000  0.5385930000000 1.0
C      1  0.4817950000000  0.4786550000000  0.5983030000000 1.0
C      1  0.4814320000000  0.4802390000000  0.4028580000000 1.0
C      1  0.5017520000000  0.5647510000000  0.4810560000000 1.0
C      1  0.5165310000000  0.5283740000000  0.5119550000000 1.0
C      1  0.5271380000000  0.5022040000000  0.5926800000000 1.0
C      1  0.5241270000000  0.4954800000000  0.3801730000000 1.0
C      1  0.4924960000000  0.4150620000000  0.5285180000000 1.0
C      1  0.5030300000000  0.4230820000000  0.4716390000000 1.0
C      1  0.4395160000000  0.5662890000000  0.4586760000000 1.0
C      1  0.4525300000000  0.5724140000000  0.5402910000000 1.0
C      1  0.5513340000000  0.5019070000000  0.3846100000000 1.0
C      1  0.5471800000000  0.4997990000000  0.5715610000000 1.0
C      1  0.4302580000000  0.4724540000000  0.4578210000000 1.0
C      1  0.4359340000000  0.4707850000000  0.5082020000000 1.0
C      1  0.4545600000000  0.4569920000000  0.5553680000000 1.0
C      1  0.4673230000000  0.4493030000000  0.4399430000000 1.0
C      1  0.5323270000000  0.4818430000000  0.4957580000000 1.0
C      1  0.4469050000000  0.4308530000000  0.4794870000000 1.0
C      1  0.4178840000000  0.5535820000000  0.5062080000000 1.0
C      1  0.4593690000000  0.5969740000000  0.4947390000000 1.0
C      1  0.5270000000000  0.3507310000000  0.5635550000000 1.0
C      1  0.4038890000000  0.5187640000000  0.5100730000000 1.0
C      1  0.4209700000000  0.4799080000000  0.4844640000000 1.0
C      1  0.5792120000000  0.4892630000000  0.4726720000000 1.0
C      1  0.4686040000000  0.5067590000000  0.5038150000000 1.0
C      1  0.4687260000000  0.4350970000000  0.4963740000000 1.0
C      1  0.4626610000000  0.4799620000000  0.5031240000000 1.0
C      1  0.5474670000000  0.5217500000000  0.4768970000000 1.0
C      1  0.5093210000000  0.4661690000000  0.4998550000000 1.0
C      1  0.4910880000000  0.4175220000000  0.4986790000000 1.0
C      1  0.5775210000000  0.5186970000000  0.4794680000000 1.0
C      1  0.5387560000000  0.3307940000000  0.5755540000000 1.0
C      1  0.5672250000000  0.5693280000000  0.5070320000000 1.0
C      1  0.5016040000000  0.5510170000000  0.5053590000000 1.0
C      1  0.4814770000000  0.4606420000000  0.4995920000000 1.0
C      1  0.5500750000000  0.5889710000000  0.5198430000000 1.0
C      1  0.5034590000000  0.3917020000000  0.5395790000000 1.0
C      1  0.5290980000000  0.5103990000000  0.4943760000000 1.0
C      1  0.5150800000000  0.3710420000000  0.5513930000000 1.0
END
