TITL C-74079-2735-267 -0.0365485992710908 125000 -200.420380098895 0 0 35 (C1) n - 1
REM
REM in /home/nfs/bkarasulu/CARBON/AIRSS/Generating-Clusters/LCBOP/Higher-Symm/SD-CG/FIRE-CG
REM
REM
REM
REM
REM
REM ./C.cell (b20cbc046b6831c77cfcea5457e17084)
REM AIRSS Version 0.9.1 bugfix July 2018 build 013d7b7c2542+ Fri, 06 Jul 2018 19:26:36 +0100
REM compiler GCC version 9.2.1 20190827 (Red Hat 9.2.1-1)
REM options -cpp -mtune=generic -march=x86-64 -g -O0 -fpre-include=/usr/include/finclude/math-vector-fortran.h
REM seed -316631709 1409961527 1671502072 1795705556 -1055717957 1026235173 -342842453 912252897 -297596667 699886764 1128808410 -1240650811 1071237101 -1476695771 -1775696386 -574248228 1117972036 259486462 1200553487 1226487107 1807218637 1822979936 130122484 112383204 -230264566 1435842450 9737515 -284977860 -302571382 -1314593793 108592500 338051062 -508943332
REM
CELL 1.54180   50.00000   50.00000   50.00000   90.00000   90.00000   90.00000
LATT -1
SFAC C  
C      1  0.5527190000000  0.4734250000000  0.5082580000000 1.0
C      1  0.4584340000000  0.5266960000000  0.5001690000000 1.0
C      1  0.5149780000000  0.4895080000000  0.4827590000000 1.0
C      1  0.4347390000000  0.5489690000000  0.5370510000000 1.0
C      1  0.5475680000000  0.4467450000000  0.5149850000000 1.0
C      1  0.4761820000000  0.5392950000000  0.4825360000000 1.0
C      1  0.4559200000000  0.4089010000000  0.5214160000000 1.0
C      1  0.5649290000000  0.5705910000000  0.4492860000000 1.0
C      1  0.5779020000000  0.4841230000000  0.5008490000000 1.0
C      1  0.4447810000000  0.5028930000000  0.4927760000000 1.0
C      1  0.3908730000000  0.5727370000000  0.5535950000000 1.0
C      1  0.4913720000000  0.4800230000000  0.4368030000000 1.0
C      1  0.4221450000000  0.5043690000000  0.4765090000000 1.0
C      1  0.6016780000000  0.4714740000000  0.5080070000000 1.0
C      1  0.5272430000000  0.4298560000000  0.5185370000000 1.0
C      1  0.4994000000000  0.5475490000000  0.4725930000000 1.0
C      1  0.5011330000000  0.4248690000000  0.5188100000000 1.0
C      1  0.5252510000000  0.5504390000000  0.4672360000000 1.0
C      1  0.6238920000000  0.4588820000000  0.5150700000000 1.0
C      1  0.4007370000000  0.5065780000000  0.4610600000000 1.0
C      1  0.4126740000000  0.5609810000000  0.5454610000000 1.0
C      1  0.5039170000000  0.4842860000000  0.4592510000000 1.0
C      1  0.4797810000000  0.5308050000000  0.5429040000000 1.0
C      1  0.5215830000000  0.5054880000000  0.5283010000000 1.0
C      1  0.5686100000000  0.5297670000000  0.4742290000000 1.0
C      1  0.4640960000000  0.4547200000000  0.5095310000000 1.0
C      1  0.6456920000000  0.4464080000000  0.5220540000000 1.0
C      1  0.3796750000000  0.5088500000000  0.4458660000000 1.0
C      1  0.4735370000000  0.4292780000000  0.5166390000000 1.0
C      1  0.5530310000000  0.5504350000000  0.4634670000000 1.0
C      1  0.4540180000000  0.4780660000000  0.5019140000000 1.0
C      1  0.5781370000000  0.5080710000000  0.4862160000000 1.0
C      1  0.4571640000000  0.5358230000000  0.5271510000000 1.0
C      1  0.5298090000000  0.4902410000000  0.5064440000000 1.0
C      1  0.5038650000000  0.5194900000000  0.5422800000000 1.0
END
