TITL C-74081-2727-66 0.0242298172193983 125000 -1058.47154252872 0 0 173 (C1) n - 1
REM
REM in /home/nfs/bkarasulu/CARBON/AIRSS/Generating-Clusters/LCBOP/Higher-Symm/SD-CG/FIRE-CG
REM
REM
REM
REM
REM
REM ./C.cell (b20cbc046b6831c77cfcea5457e17084)
REM AIRSS Version 0.9.1 bugfix July 2018 build 013d7b7c2542+ Fri, 06 Jul 2018 19:26:36 +0100
REM compiler GCC version 9.2.1 20190827 (Red Hat 9.2.1-1)
REM options -cpp -mtune=generic -march=x86-64 -g -O0 -fpre-include=/usr/include/finclude/math-vector-fortran.h
REM seed -746990964 -406480669 -1761441597 -655901267 -1262242182 1670250280 -1261358808 -600373636 -1263502263 722002121 -2121799395 -1828364192 -1517069965 -861812970 -1025079139 -919287880 365029400 1021108296 2013188532 -2032128746 -858922015 -11191984 785375062 809802184 -1910107987 -450380574 -110759405 -1451152774 -66303156 -1701389055 1689377963 944895490 -340765572
REM
CELL 1.54180   50.00000   50.00000   50.00000   90.00000   90.00000   90.00000
LATT -1
SFAC C  
C      1  0.6031390000000  0.5132110000000  0.4076440000000 1.0
C      1  0.5075750000000  0.5845550000000  0.5548950000000 1.0
C      1  0.6012820000000  0.5890010000000  0.5437300000000 1.0
C      1  0.5254530000000  0.4989840000000  0.4183050000000 1.0
C      1  0.5098760000000  0.4982510000000  0.5141760000000 1.0
C      1  0.5691620000000  0.4965710000000  0.3723470000000 1.0
C      1  0.5310210000000  0.5365610000000  0.5250310000000 1.0
C      1  0.4532240000000  0.6132860000000  0.4700510000000 1.0
C      1  0.4372830000000  0.4317420000000  0.4051010000000 1.0
C      1  0.5070080000000  0.5483960000000  0.5162750000000 1.0
C      1  0.4723700000000  0.6102760000000  0.4227410000000 1.0
C      1  0.4749960000000  0.6171580000000  0.4506030000000 1.0
C      1  0.4729350000000  0.4365140000000  0.5688610000000 1.0
C      1  0.4596330000000  0.5457400000000  0.5240250000000 1.0
C      1  0.4942170000000  0.4710650000000  0.4396730000000 1.0
C      1  0.4604350000000  0.3935460000000  0.4590390000000 1.0
C      1  0.4479860000000  0.5256130000000  0.4422260000000 1.0
C      1  0.5929970000000  0.5159750000000  0.5234440000000 1.0
C      1  0.5325260000000  0.5370550000000  0.5946860000000 1.0
C      1  0.4228000000000  0.4348210000000  0.5327600000000 1.0
C      1  0.4786700000000  0.5770480000000  0.3877180000000 1.0
C      1  0.5306030000000  0.4740510000000  0.5816260000000 1.0
C      1  0.5130330000000  0.4790140000000  0.6033750000000 1.0
C      1  0.5476410000000  0.5151880000000  0.4248080000000 1.0
C      1  0.5775230000000  0.4523800000000  0.5628500000000 1.0
C      1  0.4354850000000  0.4921780000000  0.3461860000000 1.0
C      1  0.5802930000000  0.5150270000000  0.4982010000000 1.0
C      1  0.4663080000000  0.6044650000000  0.5489410000000 1.0
C      1  0.4935240000000  0.3754420000000  0.5658730000000 1.0
C      1  0.5019380000000  0.5193320000000  0.4576180000000 1.0
C      1  0.5348190000000  0.5645140000000  0.4306790000000 1.0
C      1  0.5425590000000  0.5212420000000  0.5720570000000 1.0
C      1  0.4305920000000  0.4558170000000  0.5151120000000 1.0
C      1  0.5041350000000  0.4476290000000  0.4260410000000 1.0
C      1  0.6477810000000  0.5034450000000  0.4237580000000 1.0
C      1  0.4689040000000  0.4287220000000  0.5957220000000 1.0
C      1  0.5889900000000  0.4954860000000  0.5422730000000 1.0
C      1  0.4263530000000  0.4848260000000  0.5189790000000 1.0
C      1  0.6005470000000  0.5414180000000  0.5327860000000 1.0
C      1  0.5723370000000  0.4259000000000  0.5599370000000 1.0
C      1  0.5016240000000  0.6244720000000  0.4569830000000 1.0
C      1  0.5479420000000  0.4815490000000  0.3788900000000 1.0
C      1  0.6340730000000  0.4644030000000  0.5066220000000 1.0
C      1  0.4656930000000  0.5472490000000  0.4502140000000 1.0
C      1  0.5541970000000  0.4362990000000  0.4230420000000 1.0
C      1  0.5179570000000  0.5143520000000  0.6340540000000 1.0
C      1  0.4538240000000  0.5798790000000  0.5585490000000 1.0
C      1  0.4256860000000  0.4781770000000  0.4523320000000 1.0
C      1  0.4099080000000  0.5021900000000  0.5338310000000 1.0
C      1  0.4866160000000  0.4585100000000  0.5240580000000 1.0
C      1  0.4308190000000  0.5958510000000  0.4767060000000 1.0
C      1  0.5430130000000  0.4439040000000  0.5114180000000 1.0
C      1  0.6309590000000  0.5189980000000  0.4089780000000 1.0
C      1  0.5416990000000  0.3903260000000  0.5122690000000 1.0
C      1  0.4086670000000  0.4665240000000  0.4332090000000 1.0
C      1  0.4152540000000  0.5829140000000  0.4982630000000 1.0
C      1  0.5306340000000  0.5955470000000  0.5666150000000 1.0
C      1  0.5883820000000  0.5643330000000  0.5436300000000 1.0
C      1  0.4570440000000  0.5388600000000  0.3585810000000 1.0
C      1  0.5543170000000  0.4824070000000  0.4592340000000 1.0
C      1  0.4908150000000  0.5980620000000  0.5352790000000 1.0
C      1  0.4276190000000  0.5767590000000  0.4549590000000 1.0
C      1  0.5888940000000  0.4416660000000  0.4872690000000 1.0
C      1  0.4936940000000  0.5598370000000  0.5595480000000 1.0
C      1  0.3882280000000  0.5147740000000  0.5185090000000 1.0
C      1  0.5340790000000  0.6223470000000  0.5702690000000 1.0
C      1  0.5219990000000  0.4160590000000  0.4773100000000 1.0
C      1  0.4680040000000  0.5596680000000  0.3708020000000 1.0
C      1  0.4540400000000  0.5091900000000  0.4212530000000 1.0
C      1  0.4822000000000  0.4055900000000  0.6044280000000 1.0
C      1  0.4210400000000  0.5297360000000  0.4512190000000 1.0
C      1  0.5596780000000  0.5800330000000  0.6480310000000 1.0
C      1  0.4511090000000  0.5252770000000  0.5055700000000 1.0
C      1  0.4738860000000  0.4800130000000  0.5745430000000 1.0
C      1  0.5435590000000  0.5968420000000  0.4638540000000 1.0
C      1  0.4643770000000  0.5331100000000  0.5825370000000 1.0
C      1  0.5981350000000  0.4513580000000  0.4366990000000 1.0
C      1  0.5305700000000  0.4506510000000  0.4152050000000 1.0
C      1  0.4086690000000  0.4469640000000  0.5814040000000 1.0
C      1  0.4111080000000  0.5537870000000  0.4622370000000 1.0
C      1  0.5134590000000  0.5799400000000  0.4205250000000 1.0
C      1  0.3651700000000  0.5009080000000  0.5113420000000 1.0
C      1  0.4222650000000  0.5182570000000  0.5547580000000 1.0
C      1  0.5485570000000  0.4084480000000  0.4679580000000 1.0
C      1  0.4801030000000  0.4370030000000  0.5417140000000 1.0
C      1  0.4404830000000  0.4801950000000  0.4759320000000 1.0
C      1  0.4693420000000  0.4952670000000  0.5507820000000 1.0
C      1  0.5216890000000  0.4876340000000  0.6291200000000 1.0
C      1  0.5215140000000  0.4456040000000  0.4879060000000 1.0
C      1  0.4322680000000  0.4078420000000  0.5332840000000 1.0
C      1  0.6560890000000  0.4761970000000  0.5140890000000 1.0
C      1  0.3989180000000  0.5580060000000  0.5361510000000 1.0
C      1  0.5267960000000  0.4537770000000  0.5625450000000 1.0
C      1  0.5613300000000  0.4030920000000  0.4948210000000 1.0
C      1  0.5162700000000  0.6114860000000  0.4983650000000 1.0
C      1  0.5049700000000  0.4975280000000  0.4386400000000 1.0
C      1  0.4069990000000  0.5422990000000  0.5586970000000 1.0
C      1  0.4140470000000  0.4446580000000  0.3393700000000 1.0
C      1  0.5544810000000  0.5227310000000  0.4892940000000 1.0
C      1  0.5802220000000  0.3795630000000  0.5688940000000 1.0
C      1  0.5658450000000  0.5881400000000  0.6720280000000 1.0
C      1  0.3911600000000  0.5426420000000  0.5121060000000 1.0
C      1  0.3452970000000  0.4806940000000  0.4690200000000 1.0
C      1  0.3579130000000  0.4745940000000  0.4464250000000 1.0
C      1  0.4545810000000  0.6243580000000  0.4072540000000 1.0
C      1  0.4922080000000  0.3836420000000  0.5928520000000 1.0
C      1  0.4978820000000  0.5923390000000  0.5075620000000 1.0
C      1  0.3811490000000  0.4711520000000  0.4340690000000 1.0
C      1  0.4680380000000  0.3740720000000  0.5527370000000 1.0
C      1  0.5736250000000  0.4808770000000  0.5607670000000 1.0
C      1  0.4625500000000  0.4235430000000  0.4058180000000 1.0
C      1  0.5455180000000  0.5623050000000  0.5987720000000 1.0
C      1  0.5503000000000  0.4933780000000  0.5732570000000 1.0
C      1  0.4888020000000  0.5897300000000  0.4106810000000 1.0
C      1  0.4879480000000  0.4908700000000  0.5957590000000 1.0
C      1  0.5645710000000  0.3985180000000  0.5563670000000 1.0
C      1  0.4074990000000  0.4423880000000  0.5552050000000 1.0
C      1  0.4573160000000  0.4496710000000  0.6380270000000 1.0
C      1  0.5532550000000  0.5716750000000  0.6237270000000 1.0
C      1  0.4867340000000  0.4285620000000  0.4156390000000 1.0
C      1  0.4921540000000  0.3953000000000  0.5112290000000 1.0
C      1  0.4503330000000  0.4419290000000  0.6127690000000 1.0
C      1  0.4893360000000  0.5443450000000  0.4663260000000 1.0
C      1  0.4689010000000  0.4408490000000  0.4832560000000 1.0
C      1  0.5164770000000  0.3960860000000  0.4982350000000 1.0
C      1  0.4877470000000  0.4866760000000  0.5291290000000 1.0
C      1  0.4247310000000  0.4681950000000  0.3427570000000 1.0
C      1  0.4189240000000  0.4483260000000  0.4146780000000 1.0
C      1  0.4451730000000  0.4548140000000  0.4897350000000 1.0
C      1  0.5421580000000  0.3884640000000  0.5408090000000 1.0
C      1  0.5889820000000  0.5106720000000  0.3835530000000 1.0
C      1  0.5502260000000  0.5767330000000  0.5745750000000 1.0
C      1  0.4855560000000  0.5198120000000  0.5986320000000 1.0
C      1  0.4523150000000  0.5707750000000  0.4429780000000 1.0
C      1  0.4003400000000  0.5578370000000  0.4886580000000 1.0
C      1  0.5615370000000  0.4244660000000  0.4491100000000 1.0
C      1  0.4544100000000  0.3694000000000  0.4512840000000 1.0
C      1  0.5678400000000  0.4304500000000  0.5030690000000 1.0
C      1  0.4459610000000  0.3865700000000  0.5430300000000 1.0
C      1  0.4438590000000  0.5674660000000  0.5346010000000 1.0
C      1  0.6379690000000  0.4824670000000  0.4381260000000 1.0
C      1  0.6120210000000  0.6127410000000  0.5441980000000 1.0
C      1  0.5337990000000  0.4471730000000  0.5375780000000 1.0
C      1  0.5233910000000  0.6147790000000  0.4718120000000 1.0
C      1  0.4189110000000  0.5763410000000  0.5259980000000 1.0
C      1  0.5327900000000  0.4762200000000  0.4018900000000 1.0
C      1  0.5931420000000  0.4985190000000  0.4306540000000 1.0
C      1  0.6102690000000  0.4764870000000  0.4383110000000 1.0
C      1  0.4507080000000  0.5162500000000  0.5615490000000 1.0
C      1  0.4562800000000  0.6294760000000  0.5525080000000 1.0
C      1  0.5332140000000  0.5139100000000  0.5072300000000 1.0
C      1  0.5447710000000  0.5695050000000  0.4570670000000 1.0
C      1  0.3486480000000  0.4898600000000  0.4937530000000 1.0
C      1  0.4986490000000  0.5646150000000  0.4939390000000 1.0
C      1  0.5804840000000  0.4457040000000  0.4140940000000 1.0
C      1  0.5101410000000  0.5297540000000  0.6109840000000 1.0
C      1  0.4246460000000  0.4467890000000  0.6026740000000 1.0
C      1  0.5514490000000  0.5469650000000  0.4736670000000 1.0
C      1  0.4461760000000  0.5159960000000  0.3507340000000 1.0
C      1  0.4669390000000  0.4176340000000  0.4680220000000 1.0
C      1  0.5665580000000  0.5004700000000  0.4403660000000 1.0
C      1  0.5460010000000  0.5421410000000  0.4183900000000 1.0
C      1  0.5190950000000  0.3772340000000  0.5534920000000 1.0
C      1  0.5465710000000  0.5377360000000  0.5484550000000 1.0
C      1  0.4820220000000  0.4121610000000  0.5290470000000 1.0
C      1  0.5623080000000  0.5611300000000  0.5540240000000 1.0
C      1  0.4865620000000  0.5460710000000  0.5349000000000 1.0
C      1  0.4925460000000  0.4501650000000  0.4968570000000 1.0
C      1  0.4689590000000  0.5607280000000  0.5748640000000 1.0
C      1  0.4404000000000  0.5000220000000  0.4975240000000 1.0
C      1  0.5861900000000  0.4376140000000  0.4590540000000 1.0
C      1  0.6111370000000  0.4538760000000  0.4985610000000 1.0
C      1  0.5351630000000  0.4668110000000  0.4704480000000 1.0
END
