TITL C-74080-5790-76 0.0928495081081578 125000 -137.359809184903 0 0 24 (C1) n - 1
REM
REM in /home/nfs/bkarasulu/CARBON/AIRSS/Generating-Clusters/LCBOP/Higher-Symm/SD-CG/FIRE-CG
REM
REM
REM
REM
REM
REM ./C.cell (b20cbc046b6831c77cfcea5457e17084)
REM AIRSS Version 0.9.1 bugfix July 2018 build 013d7b7c2542+ Fri, 06 Jul 2018 19:26:36 +0100
REM compiler GCC version 9.2.1 20190827 (Red Hat 9.2.1-1)
REM options -cpp -mtune=generic -march=x86-64 -g -O0 -fpre-include=/usr/include/finclude/math-vector-fortran.h
REM seed -1250482644 -577826382 -1606032362 -62782500 1826274063 772804021 -269130837 -2128628925 1096779092 -1583156857 -452380472 985430948 -1150813909 915505826 -1827074490 -2112470128 -306857651 -1490082469 1764080514 199574366 -1723146897 201264741 315916491 -69610324 -26903766 1848570663 1667389622 -589666003 367891418 -721737734 708895613 1428703497 203863669
REM
CELL 1.54180   50.00000   50.00000   50.00000   90.00000   90.00000   90.00000
LATT -1
SFAC C  
C      1  0.5254160000000  0.5269120000000  0.5656690000000 1.0
C      1  0.4634470000000  0.4499350000000  0.4267170000000 1.0
C      1  0.4439660000000  0.4193730000000  0.3880380000000 1.0
C      1  0.5573110000000  0.4688520000000  0.5008080000000 1.0
C      1  0.5637250000000  0.4874390000000  0.5207430000000 1.0
C      1  0.4731900000000  0.4652020000000  0.4460460000000 1.0
C      1  0.4745410000000  0.5569580000000  0.5271460000000 1.0
C      1  0.5217990000000  0.5686750000000  0.5321060000000 1.0
C      1  0.5608460000000  0.5082670000000  0.5369370000000 1.0
C      1  0.5466500000000  0.5299410000000  0.5469580000000 1.0
C      1  0.4686150000000  0.5028370000000  0.4761420000000 1.0
C      1  0.5326570000000  0.4710930000000  0.4876840000000 1.0
C      1  0.4974270000000  0.5587450000000  0.5429920000000 1.0
C      1  0.4343850000000  0.4043410000000  0.3690150000000 1.0
C      1  0.4641890000000  0.5375080000000  0.6049150000000 1.0
C      1  0.5009310000000  0.5414290000000  0.5657730000000 1.0
C      1  0.4620390000000  0.5436560000000  0.5078010000000 1.0
C      1  0.4821900000000  0.5393320000000  0.5861590000000 1.0
C      1  0.5087890000000  0.4757460000000  0.4771170000000 1.0
C      1  0.4835230000000  0.4812580000000  0.4664270000000 1.0
C      1  0.4537080000000  0.4346560000000  0.4073800000000 1.0
C      1  0.4606600000000  0.5241110000000  0.4898600000000 1.0
C      1  0.5747870000000  0.4488730000000  0.4942630000000 1.0
C      1  0.5452080000000  0.5548610000000  0.5333050000000 1.0
END
