TITL C-74082-2733-340 -9.46738221506019e-08 125000 -612.294749677336 0 0 95 (C1) n - 1
REM
REM in /home/nfs/bkarasulu/CARBON/AIRSS/Generating-Clusters/LCBOP/Higher-Symm/SD-CG/FIRE-CG
REM
REM
REM
REM
REM
REM ./C.cell (b20cbc046b6831c77cfcea5457e17084)
REM AIRSS Version 0.9.1 bugfix July 2018 build 013d7b7c2542+ Fri, 06 Jul 2018 19:26:36 +0100
REM compiler GCC version 9.2.1 20190827 (Red Hat 9.2.1-1)
REM options -cpp -mtune=generic -march=x86-64 -g -O0 -fpre-include=/usr/include/finclude/math-vector-fortran.h
REM seed 1022574694 -2097918071 752645294 -1996113647 794591871 -1716601409 1758704328 2134452751 -1081352242 1846773155 -665023171 -1785777836 -1512041341 1751027003 -873564151 636913852 2000809564 1606426103 18982548 265689201 1322332742 -101202541 921104508 2008060945 615651638 1113215895 1653535367 -997473934 836682296 -2064234068 -2125776047 -565065354 -1260105824
REM
CELL 1.54180   50.00000   50.00000   50.00000   90.00000   90.00000   90.00000
LATT -1
SFAC C  
C      1  0.5137140000000  0.4644900000000  0.4865360000000 1.0
C      1  0.5074190000000  0.5053090000000  0.4595210000000 1.0
C      1  0.5046860000000  0.5429020000000  0.4906490000000 1.0
C      1  0.4870030000000  0.5250830000000  0.5356450000000 1.0
C      1  0.4970110000000  0.4786440000000  0.5323810000000 1.0
C      1  0.5141790000000  0.4641130000000  0.5151870000000 1.0
C      1  0.5052340000000  0.5042500000000  0.5418370000000 1.0
C      1  0.4876170000000  0.5431420000000  0.5133420000000 1.0
C      1  0.4935970000000  0.5286200000000  0.4684850000000 1.0
C      1  0.4971630000000  0.4812060000000  0.4708770000000 1.0
C      1  0.5362390000000  0.4375170000000  0.4138520000000 1.0
C      1  0.5419180000000  0.5606830000000  0.4150850000000 1.0
C      1  0.5397610000000  0.5997120000000  0.5319110000000 1.0
C      1  0.5349540000000  0.4989760000000  0.6047420000000 1.0
C      1  0.5395940000000  0.3998760000000  0.5328820000000 1.0
C      1  0.5432050000000  0.4393950000000  0.5866480000000 1.0
C      1  0.5377700000000  0.5622050000000  0.5841920000000 1.0
C      1  0.5380650000000  0.5984090000000  0.4652450000000 1.0
C      1  0.5343170000000  0.4979610000000  0.3953250000000 1.0
C      1  0.5354560000000  0.3991470000000  0.4685970000000 1.0
C      1  0.4602260000000  0.4523680000000  0.5147650000000 1.0
C      1  0.4688340000000  0.4795040000000  0.4711570000000 1.0
C      1  0.4648940000000  0.5289360000000  0.4653280000000 1.0
C      1  0.4624040000000  0.5551620000000  0.5077590000000 1.0
C      1  0.4483910000000  0.4915650000000  0.5440500000000 1.0
C      1  0.4534910000000  0.4668390000000  0.4915230000000 1.0
C      1  0.4694630000000  0.4708220000000  0.5351520000000 1.0
C      1  0.4607080000000  0.5209520000000  0.5466680000000 1.0
C      1  0.4468360000000  0.5461640000000  0.4835250000000 1.0
C      1  0.4520550000000  0.5022110000000  0.4587140000000 1.0
C      1  0.4150720000000  0.5303820000000  0.5468200000000 1.0
C      1  0.4261480000000  0.4362560000000  0.5638080000000 1.0
C      1  0.4301830000000  0.4275900000000  0.4655980000000 1.0
C      1  0.4289120000000  0.5182210000000  0.4195500000000 1.0
C      1  0.4226210000000  0.5871260000000  0.4911110000000 1.0
C      1  0.4234800000000  0.5439750000000  0.4256670000000 1.0
C      1  0.4295110000000  0.4445860000000  0.4445820000000 1.0
C      1  0.4334640000000  0.4229210000000  0.5416520000000 1.0
C      1  0.4118700000000  0.5106070000000  0.5678160000000 1.0
C      1  0.4275090000000  0.5844370000000  0.5180920000000 1.0
C      1  0.5817050000000  0.4972640000000  0.5358020000000 1.0
C      1  0.5902540000000  0.4561740000000  0.5120310000000 1.0
C      1  0.5766430000000  0.4662540000000  0.4634500000000 1.0
C      1  0.5734890000000  0.5180760000000  0.4616240000000 1.0
C      1  0.5678920000000  0.5375830000000  0.5099980000000 1.0
C      1  0.5837660000000  0.4925060000000  0.4563020000000 1.0
C      1  0.5897160000000  0.4545110000000  0.4853430000000 1.0
C      1  0.5771930000000  0.4697160000000  0.5328770000000 1.0
C      1  0.5681520000000  0.5215070000000  0.5333830000000 1.0
C      1  0.5799990000000  0.5304960000000  0.4858930000000 1.0
C      1  0.4349540000000  0.4196540000000  0.4910850000000 1.0
C      1  0.4395150000000  0.4953340000000  0.4324620000000 1.0
C      1  0.4315290000000  0.5689780000000  0.4707760000000 1.0
C      1  0.4410430000000  0.5435140000000  0.5475820000000 1.0
C      1  0.4247460000000  0.4606510000000  0.5749900000000 1.0
C      1  0.4448560000000  0.4282870000000  0.5165140000000 1.0
C      1  0.4295390000000  0.4874370000000  0.5679930000000 1.0
C      1  0.4452640000000  0.5646590000000  0.5286530000000 1.0
C      1  0.4240430000000  0.5637760000000  0.4439970000000 1.0
C      1  0.4324660000000  0.4677540000000  0.4308700000000 1.0
C      1  0.5427700000000  0.5719650000000  0.5342970000000 1.0
C      1  0.5353560000000  0.4885110000000  0.5786380000000 1.0
C      1  0.5371140000000  0.4211270000000  0.5147890000000 1.0
C      1  0.5413320000000  0.4609590000000  0.4285110000000 1.0
C      1  0.5438840000000  0.5537970000000  0.4422520000000 1.0
C      1  0.5363370000000  0.5703830000000  0.4640030000000 1.0
C      1  0.5342840000000  0.4875170000000  0.4214020000000 1.0
C      1  0.5356790000000  0.4208240000000  0.4863680000000 1.0
C      1  0.5451280000000  0.4628650000000  0.5712440000000 1.0
C      1  0.5422520000000  0.5554170000000  0.5573990000000 1.0
C      1  0.5473680000000  0.5574730000000  0.5098630000000 1.0
C      1  0.5284320000000  0.5071330000000  0.5578130000000 1.0
C      1  0.5344140000000  0.4473740000000  0.5263050000000 1.0
C      1  0.5511110000000  0.4568150000000  0.4551390000000 1.0
C      1  0.5499560000000  0.5263200000000  0.4478860000000 1.0
C      1  0.5287750000000  0.5574120000000  0.4884780000000 1.0
C      1  0.5299720000000  0.5064500000000  0.4426110000000 1.0
C      1  0.5328190000000  0.4469560000000  0.4744740000000 1.0
C      1  0.5533530000000  0.4588920000000  0.5440610000000 1.0
C      1  0.5471250000000  0.5276150000000  0.5517550000000 1.0
C      1  0.5409690000000  0.3972470000000  0.5595810000000 1.0
C      1  0.5339160000000  0.4114400000000  0.4199530000000 1.0
C      1  0.5388830000000  0.5476090000000  0.3918410000000 1.0
C      1  0.5385940000000  0.6173210000000  0.5116590000000 1.0
C      1  0.5344610000000  0.5234690000000  0.6157480000000 1.0
C      1  0.5341440000000  0.3960280000000  0.4419430000000 1.0
C      1  0.5419460000000  0.4131000000000  0.5812300000000 1.0
C      1  0.5351560000000  0.5489740000000  0.6074100000000 1.0
C      1  0.5384300000000  0.6168120000000  0.4848150000000 1.0
C      1  0.5359960000000  0.5221570000000  0.3838450000000 1.0
C      1  0.4263430000000  0.4926090000000  0.5216100000000 1.0
C      1  0.4270790000000  0.5027650000000  0.4772070000000 1.0
C      1  0.4232840000000  0.5274110000000  0.4925090000000 1.0
C      1  0.4143660000000  0.5197700000000  0.5196070000000 1.0
C      1  0.4293050000000  0.4810880000000  0.4958510000000 1.0
END
