TITL C-74079-2735-378 -1.22757005401032e-06 125000 -659.009389224955 0 0 106 (D2) n - 1
REM
REM in /home/nfs/bkarasulu/CARBON/AIRSS/Generating-Clusters/LCBOP/Higher-Symm/SD-CG/FIRE-CG
REM
REM
REM
REM
REM
REM ./C.cell (b20cbc046b6831c77cfcea5457e17084)
REM AIRSS Version 0.9.1 bugfix July 2018 build 013d7b7c2542+ Fri, 06 Jul 2018 19:26:36 +0100
REM compiler GCC version 9.2.1 20190827 (Red Hat 9.2.1-1)
REM options -cpp -mtune=generic -march=x86-64 -g -O0 -fpre-include=/usr/include/finclude/math-vector-fortran.h
REM seed -417313657 1439341434 -323354222 -891512729 -130268552 2016298263 -1998202344 -507796532 901519933 2058350385 -1964444053 5356978 1205366637 840796919 -1552588883 -38062608 421895510 -823744233 1594107447 -736918740 2050937551 1524897795 -186999019 -451002023 1846238960 -1087881629 20193877 -1848061918 110676027 -1491075115 -522363000 -449465434 381943947
REM
CELL 1.54180   50.00000   50.00000   50.00000   90.00000   90.00000   90.00000
LATT -1
SFAC C  
C      1  0.5029650000000  0.6103210000000  0.4874080000000 1.0
C      1  0.4970380000000  0.3896760000000  0.4874270000000 1.0
C      1  0.5029480000000  0.3896780000000  0.5132790000000 1.0
C      1  0.4970490000000  0.6103240000000  0.5132590000000 1.0
C      1  0.5502520000000  0.5613640000000  0.5911210000000 1.0
C      1  0.4497290000000  0.4386520000000  0.5911210000000 1.0
C      1  0.5502640000000  0.4386300000000  0.4095760000000 1.0
C      1  0.4497560000000  0.5613540000000  0.4095550000000 1.0
C      1  0.4649310000000  0.4789610000000  0.4837600000000 1.0
C      1  0.5350730000000  0.5210360000000  0.4837640000000 1.0
C      1  0.4649300000000  0.5210430000000  0.5169190000000 1.0
C      1  0.5350670000000  0.4789600000000  0.5169300000000 1.0
C      1  0.4428850000000  0.4611860000000  0.4460750000000 1.0
C      1  0.5571260000000  0.5388040000000  0.4460810000000 1.0
C      1  0.4428790000000  0.5388210000000  0.5545990000000 1.0
C      1  0.5571100000000  0.4611890000000  0.5546180000000 1.0
C      1  0.5650350000000  0.5538360000000  0.5687580000000 1.0
C      1  0.4349500000000  0.4461760000000  0.5687530000000 1.0
C      1  0.5650430000000  0.4461560000000  0.4319430000000 1.0
C      1  0.4349720000000  0.5538320000000  0.4319200000000 1.0
C      1  0.5850270000000  0.5393540000000  0.4542370000000 1.0
C      1  0.4149820000000  0.4606380000000  0.4542260000000 1.0
C      1  0.5850130000000  0.4606360000000  0.5464680000000 1.0
C      1  0.4149780000000  0.5393720000000  0.5464430000000 1.0
C      1  0.4879880000000  0.4943760000000  0.5760040000000 1.0
C      1  0.5119960000000  0.5056370000000  0.5760060000000 1.0
C      1  0.4880050000000  0.5056250000000  0.4246800000000 1.0
C      1  0.5120110000000  0.4943620000000  0.4246840000000 1.0
C      1  0.5331590000000  0.4705030000000  0.4875840000000 1.0
C      1  0.4668440000000  0.5294950000000  0.4875720000000 1.0
C      1  0.5331600000000  0.5294930000000  0.5131100000000 1.0
C      1  0.4668370000000  0.4705100000000  0.5131080000000 1.0
C      1  0.5333450000000  0.5031790000000  0.5586430000000 1.0
C      1  0.4666430000000  0.4968310000000  0.5586370000000 1.0
C      1  0.5333560000000  0.4968170000000  0.4420500000000 1.0
C      1  0.4666560000000  0.5031730000000  0.4420430000000 1.0
C      1  0.5585480000000  0.5440070000000  0.5222600000000 1.0
C      1  0.4414470000000  0.4559970000000  0.5222550000000 1.0
C      1  0.5585470000000  0.4559860000000  0.4784390000000 1.0
C      1  0.4414580000000  0.5440100000000  0.4784190000000 1.0
C      1  0.5980910000000  0.4944180000000  0.4750690000000 1.0
C      1  0.4019140000000  0.5055770000000  0.4750480000000 1.0
C      1  0.5980870000000  0.5055690000000  0.5256380000000 1.0
C      1  0.4019080000000  0.4944350000000  0.5256180000000 1.0
C      1  0.4951480000000  0.4230530000000  0.5768480000000 1.0
C      1  0.5048360000000  0.5769610000000  0.5768360000000 1.0
C      1  0.4951740000000  0.5769480000000  0.4238370000000 1.0
C      1  0.5048430000000  0.4230390000000  0.4238510000000 1.0
C      1  0.5969590000000  0.5131070000000  0.4528730000000 1.0
C      1  0.4030510000000  0.4868840000000  0.4528550000000 1.0
C      1  0.5969470000000  0.4868800000000  0.5478340000000 1.0
C      1  0.4030430000000  0.5131280000000  0.5478110000000 1.0
C      1  0.5553940000000  0.4877790000000  0.5682240000000 1.0
C      1  0.4445920000000  0.5122330000000  0.5682100000000 1.0
C      1  0.5554090000000  0.5122140000000  0.4324740000000 1.0
C      1  0.4446050000000  0.4877740000000  0.4324650000000 1.0
C      1  0.4893810000000  0.6051250000000  0.5397010000000 1.0
C      1  0.5106110000000  0.3948820000000  0.5397210000000 1.0
C      1  0.4893760000000  0.3948760000000  0.4609840000000 1.0
C      1  0.5106330000000  0.6051170000000  0.4609680000000 1.0
C      1  0.5800320000000  0.5301940000000  0.5619790000000 1.0
C      1  0.4199550000000  0.4698170000000  0.5619670000000 1.0
C      1  0.5800410000000  0.4697960000000  0.4387250000000 1.0
C      1  0.4199720000000  0.5301930000000  0.4387030000000 1.0
C      1  0.5104390000000  0.5564550000000  0.4654670000000 1.0
C      1  0.4895680000000  0.4435390000000  0.4654750000000 1.0
C      1  0.5104250000000  0.4435440000000  0.5352220000000 1.0
C      1  0.4895680000000  0.5564620000000  0.5352100000000 1.0
C      1  0.4944970000000  0.5794300000000  0.5508860000000 1.0
C      1  0.5054920000000  0.4205780000000  0.5509000000000 1.0
C      1  0.4944980000000  0.4205700000000  0.4498000000000 1.0
C      1  0.5055130000000  0.5794210000000  0.4497880000000 1.0
C      1  0.4748250000000  0.4293350000000  0.5929900000000 1.0
C      1  0.5251560000000  0.5706810000000  0.5929830000000 1.0
C      1  0.4748530000000  0.5706680000000  0.4076920000000 1.0
C      1  0.5251660000000  0.4293160000000  0.4077090000000 1.0
C      1  0.4190830000000  0.5020130000000  0.4319570000000 1.0
C      1  0.5809320000000  0.4979750000000  0.4319740000000 1.0
C      1  0.4190680000000  0.4979970000000  0.5687130000000 1.0
C      1  0.5809170000000  0.5020140000000  0.5687290000000 1.0
C      1  0.4643700000000  0.5427870000000  0.5360830000000 1.0
C      1  0.5356230000000  0.4572190000000  0.5360980000000 1.0
C      1  0.4643720000000  0.4572180000000  0.4645960000000 1.0
C      1  0.5356350000000  0.5427760000000  0.4645960000000 1.0
C      1  0.5557540000000  0.4359890000000  0.4577020000000 1.0
C      1  0.4442550000000  0.5640040000000  0.4576790000000 1.0
C      1  0.5557530000000  0.5640040000000  0.5429970000000 1.0
C      1  0.4442380000000  0.4360030000000  0.5429960000000 1.0
C      1  0.4766960000000  0.6243650000000  0.5544600000000 1.0
C      1  0.5232920000000  0.3756440000000  0.5544860000000 1.0
C      1  0.4766920000000  0.3756380000000  0.4462220000000 1.0
C      1  0.5233190000000  0.6243530000000  0.4462050000000 1.0
C      1  0.5068030000000  0.4531490000000  0.4870220000000 1.0
C      1  0.4932000000000  0.5468490000000  0.4870120000000 1.0
C      1  0.5068060000000  0.5468500000000  0.5136660000000 1.0
C      1  0.4931920000000  0.4531520000000  0.5136730000000 1.0
C      1  0.4685780000000  0.5044230000000  0.4708990000000 1.0
C      1  0.5314280000000  0.4955720000000  0.4709060000000 1.0
C      1  0.4685710000000  0.4955810000000  0.5297810000000 1.0
C      1  0.5314220000000  0.5044240000000  0.5297870000000 1.0
C      1  0.4177580000000  0.4712120000000  0.5315510000000 1.0
C      1  0.5822360000000  0.5287940000000  0.5315630000000 1.0
C      1  0.4177680000000  0.5287990000000  0.4691190000000 1.0
C      1  0.5822390000000  0.4711960000000  0.4691410000000 1.0
C      1  0.6075200000000  0.4999930000000  0.5003550000000 1.0
C      1  0.3924800000000  0.5000070000000  0.5003320000000 1.0
END
