TITL C-74086-5274-83 16559.3451588553 125000 -982.767957479121 0 0 164 (C1) n - 1
REM
REM in /home/nfs/bkarasulu/CARBON/AIRSS/Generating-Clusters/LCBOP/Higher-Symm/SD-CG/FIRE-CG
REM
REM
REM
REM
REM
REM ./C.cell (b20cbc046b6831c77cfcea5457e17084)
REM AIRSS Version 0.9.1 bugfix July 2018 build 013d7b7c2542+ Fri, 06 Jul 2018 19:26:36 +0100
REM compiler GCC version 9.2.1 20190827 (Red Hat 9.2.1-1)
REM options -cpp -mtune=generic -march=x86-64 -g -O0 -fpre-include=/usr/include/finclude/math-vector-fortran.h
REM seed 2120067625 1191212348 -250774384 -1317521266 -1556996409 -1745527735 -1803286457 -480620114 -1103412232 -581789369 -104496032 -361355605 2084264879 -363743971 -1350465792 1161249039 1150676776 2074918291 -1694178406 1042235608 1185876640 -1382251471 -918909299 -1272012937 -1219474545 -579593952 -48162208 1011005771 1205734401 -1238515143 1073702434 535602074 -1772145447
REM
CELL 1.54180   50.00000   50.00000   50.00000   90.00000   90.00000   90.00000
LATT -1
SFAC C  
C      1  0.4199910000000  0.4166890000000  0.5439930000000 1.0
C      1  0.5717040000000  0.5918860000000  0.4517510000000 1.0
C      1  0.5643280000000  0.4790630000000  0.5020540000000 1.0
C      1  0.4400800000000  0.5143230000000  0.4900880000000 1.0
C      1  0.4833950000000  0.3900000000000  0.5489950000000 1.0
C      1  0.5021630000000  0.6207440000000  0.4621340000000 1.0
C      1  0.6008030000000  0.4769690000000  0.5553950000000 1.0
C      1  0.3954520000000  0.5137380000000  0.4487730000000 1.0
C      1  0.5363040000000  0.4387140000000  0.5566980000000 1.0
C      1  0.4750210000000  0.5686670000000  0.4599000000000 1.0
C      1  0.4802600000000  0.4950350000000  0.3792950000000 1.0
C      1  0.5345200000000  0.5202110000000  0.6087120000000 1.0
C      1  0.4451310000000  0.5824540000000  0.5064760000000 1.0
C      1  0.5455660000000  0.4021040000000  0.5088310000000 1.0
C      1  0.4673550000000  0.5427260000000  0.4639860000000 1.0
C      1  0.5450140000000  0.4625890000000  0.5417150000000 1.0
C      1  0.4616670000000  0.4908350000000  0.4329340000000 1.0
C      1  0.5431930000000  0.4946500000000  0.5412830000000 1.0
C      1  0.4369100000000  0.5952700000000  0.4408540000000 1.0
C      1  0.5647010000000  0.4018040000000  0.5723290000000 1.0
C      1  0.5459800000000  0.4120320000000  0.5553770000000 1.0
C      1  0.4548200000000  0.5882380000000  0.4598510000000 1.0
C      1  0.5231400000000  0.4498430000000  0.6208040000000 1.0
C      1  0.4640620000000  0.5561990000000  0.4007530000000 1.0
C      1  0.6189950000000  0.5360580000000  0.5641570000000 1.0
C      1  0.3648760000000  0.4447140000000  0.4437570000000 1.0
C      1  0.6100490000000  0.4922520000000  0.4828270000000 1.0
C      1  0.3981130000000  0.4938120000000  0.5210910000000 1.0
C      1  0.4570340000000  0.4877020000000  0.5759540000000 1.0
C      1  0.5381160000000  0.5179360000000  0.4278460000000 1.0
C      1  0.4776290000000  0.5350700000000  0.5083530000000 1.0
C      1  0.5239410000000  0.4580000000000  0.4967150000000 1.0
C      1  0.5339470000000  0.3964640000000  0.5342850000000 1.0
C      1  0.4575940000000  0.6003990000000  0.4859440000000 1.0
C      1  0.5310560000000  0.5480950000000  0.6155870000000 1.0
C      1  0.4924500000000  0.4690210000000  0.3799470000000 1.0
C      1  0.5597530000000  0.5606890000000  0.4150020000000 1.0
C      1  0.4346040000000  0.4442210000000  0.5751090000000 1.0
C      1  0.4816890000000  0.6176630000000  0.4812200000000 1.0
C      1  0.5080020000000  0.3860550000000  0.5385710000000 1.0
C      1  0.4067040000000  0.5686040000000  0.5333020000000 1.0
C      1  0.6017710000000  0.4289100000000  0.4506380000000 1.0
C      1  0.4389910000000  0.5374570000000  0.5470110000000 1.0
C      1  0.5580600000000  0.4480930000000  0.4567670000000 1.0
C      1  0.5541470000000  0.5875680000000  0.5182720000000 1.0
C      1  0.4767030000000  0.4149130000000  0.4437720000000 1.0
C      1  0.5228080000000  0.4813530000000  0.4550920000000 1.0
C      1  0.4818430000000  0.5221350000000  0.5506710000000 1.0
C      1  0.5041670000000  0.5273600000000  0.5007240000000 1.0
C      1  0.4970170000000  0.4642280000000  0.5053410000000 1.0
C      1  0.5693130000000  0.4622400000000  0.5965230000000 1.0
C      1  0.4193920000000  0.5312950000000  0.4108510000000 1.0
C      1  0.4268910000000  0.4461270000000  0.4827580000000 1.0
C      1  0.5873830000000  0.5493970000000  0.5032510000000 1.0
C      1  0.4695630000000  0.4096150000000  0.5640340000000 1.0
C      1  0.5209790000000  0.6082710000000  0.4422130000000 1.0
C      1  0.6072830000000  0.4567590000000  0.5102450000000 1.0
C      1  0.4019430000000  0.5374930000000  0.4961060000000 1.0
C      1  0.4547290000000  0.4605710000000  0.5863590000000 1.0
C      1  0.5366030000000  0.5446360000000  0.4170040000000 1.0
C      1  0.4522610000000  0.4892780000000  0.3822370000000 1.0
C      1  0.5487510000000  0.5207150000000  0.5836950000000 1.0
C      1  0.4386360000000  0.5485080000000  0.4040700000000 1.0
C      1  0.5482110000000  0.4546220000000  0.6116520000000 1.0
C      1  0.4416350000000  0.4174030000000  0.5636090000000 1.0
C      1  0.5495940000000  0.6090350000000  0.4449740000000 1.0
C      1  0.5150600000000  0.4996030000000  0.6073730000000 1.0
C      1  0.4918810000000  0.5207440000000  0.3850350000000 1.0
C      1  0.5788480000000  0.5780240000000  0.5033710000000 1.0
C      1  0.4133470000000  0.4184830000000  0.4916690000000 1.0
C      1  0.5411740000000  0.5479020000000  0.4879360000000 1.0
C      1  0.4527370000000  0.4211180000000  0.5126220000000 1.0
C      1  0.5003050000000  0.4108710000000  0.4280060000000 1.0
C      1  0.5069660000000  0.6321440000000  0.5622080000000 1.0
C      1  0.4615850000000  0.5316580000000  0.5981930000000 1.0
C      1  0.5295350000000  0.4726420000000  0.4099450000000 1.0
C      1  0.5022230000000  0.5521700000000  0.5803800000000 1.0
C      1  0.5070460000000  0.4305440000000  0.4082310000000 1.0
C      1  0.4461160000000  0.4799430000000  0.4528240000000 1.0
C      1  0.5314330000000  0.5128840000000  0.5610500000000 1.0
C      1  0.4783510000000  0.4597370000000  0.4838190000000 1.0
C      1  0.5279880000000  0.5383460000000  0.5127760000000 1.0
C      1  0.4587830000000  0.4365390000000  0.4378530000000 1.0
C      1  0.5461530000000  0.5741300000000  0.5431400000000 1.0
C      1  0.5062260000000  0.5293690000000  0.5625220000000 1.0
C      1  0.5104310000000  0.4749150000000  0.4310890000000 1.0
C      1  0.5880440000000  0.5020330000000  0.3764390000000 1.0
C      1  0.3957290000000  0.5032700000000  0.6099370000000 1.0
C      1  0.4775540000000  0.5929810000000  0.5431980000000 1.0
C      1  0.5327170000000  0.3850110000000  0.4600790000000 1.0
C      1  0.6091000000000  0.4798540000000  0.5284280000000 1.0
C      1  0.3945370000000  0.5152830000000  0.4771970000000 1.0
C      1  0.3948490000000  0.4890280000000  0.4920630000000 1.0
C      1  0.6116800000000  0.5039550000000  0.5099120000000 1.0
C      1  0.4917720000000  0.6132280000000  0.5526800000000 1.0
C      1  0.5191400000000  0.3927210000000  0.4383970000000 1.0
C      1  0.4681810000000  0.5791260000000  0.6025390000000 1.0
C      1  0.5518520000000  0.4366450000000  0.4307420000000 1.0
C      1  0.4175690000000  0.5684590000000  0.5061120000000 1.0
C      1  0.5587690000000  0.4273000000000  0.5080640000000 1.0
C      1  0.5452170000000  0.4965130000000  0.4086290000000 1.0
C      1  0.4465520000000  0.5085940000000  0.5926760000000 1.0
C      1  0.4123460000000  0.4734360000000  0.5358490000000 1.0
C      1  0.5900250000000  0.5459910000000  0.4472140000000 1.0
C      1  0.4703030000000  0.4075020000000  0.4956130000000 1.0
C      1  0.5251160000000  0.5712540000000  0.4801230000000 1.0
C      1  0.4206580000000  0.5061660000000  0.6029210000000 1.0
C      1  0.5666840000000  0.4992600000000  0.3911050000000 1.0
C      1  0.5825380000000  0.5917490000000  0.4782250000000 1.0
C      1  0.4256520000000  0.4097070000000  0.5171340000000 1.0
C      1  0.5082410000000  0.5208240000000  0.4715470000000 1.0
C      1  0.4894120000000  0.4761540000000  0.5383690000000 1.0
C      1  0.4753780000000  0.4036820000000  0.4696220000000 1.0
C      1  0.5323260000000  0.5919780000000  0.4993370000000 1.0
C      1  0.5033780000000  0.5719920000000  0.4603090000000 1.0
C      1  0.5094220000000  0.4409740000000  0.5650280000000 1.0
C      1  0.5866910000000  0.4481350000000  0.4638490000000 1.0
C      1  0.4115950000000  0.5415460000000  0.5426100000000 1.0
C      1  0.5346680000000  0.4607460000000  0.4696830000000 1.0
C      1  0.4666190000000  0.5428730000000  0.5350050000000 1.0
C      1  0.5795160000000  0.5269390000000  0.4633410000000 1.0
C      1  0.4385470000000  0.4701540000000  0.5250280000000 1.0
C      1  0.5114430000000  0.5814970000000  0.4341690000000 1.0
C      1  0.4874830000000  0.4277970000000  0.5772220000000 1.0
C      1  0.5120710000000  0.5594310000000  0.4144420000000 1.0
C      1  0.4767240000000  0.4451300000000  0.5979580000000 1.0
C      1  0.4770000000000  0.5547780000000  0.5937220000000 1.0
C      1  0.5333250000000  0.4438970000000  0.4101630000000 1.0
C      1  0.5664740000000  0.5315990000000  0.4893430000000 1.0
C      1  0.4446150000000  0.4490090000000  0.5085400000000 1.0
C      1  0.4861190000000  0.5250060000000  0.4542200000000 1.0
C      1  0.5039310000000  0.4684980000000  0.5622350000000 1.0
C      1  0.4083180000000  0.4509100000000  0.5527540000000 1.0
C      1  0.5771530000000  0.5684060000000  0.4356960000000 1.0
C      1  0.4012360000000  0.4638120000000  0.4791880000000 1.0
C      1  0.6053190000000  0.5311050000000  0.5174790000000 1.0
C      1  0.4399290000000  0.4707590000000  0.4009570000000 1.0
C      1  0.5638510000000  0.5439260000000  0.5761330000000 1.0
C      1  0.4001130000000  0.5229420000000  0.5237190000000 1.0
C      1  0.6018010000000  0.4641490000000  0.4823640000000 1.0
C      1  0.4906750000000  0.5466260000000  0.3986610000000 1.0
C      1  0.4959520000000  0.4489010000000  0.6187030000000 1.0
C      1  0.4085340000000  0.5086050000000  0.4239190000000 1.0
C      1  0.5869840000000  0.4699240000000  0.5775420000000 1.0
C      1  0.5495020000000  0.4550820000000  0.5125870000000 1.0
C      1  0.4580590000000  0.5346570000000  0.4886840000000 1.0
C      1  0.5253870000000  0.5647010000000  0.5919330000000 1.0
C      1  0.4852970000000  0.4468360000000  0.3969690000000 1.0
C      1  0.4168050000000  0.4827030000000  0.4138220000000 1.0
C      1  0.5722270000000  0.5374400000000  0.5492150000000 1.0
C      1  0.5409770000000  0.3878460000000  0.4852710000000 1.0
C      1  0.4629720000000  0.5739280000000  0.5289440000000 1.0
C      1  0.5474680000000  0.5454940000000  0.5337650000000 1.0
C      1  0.4504200000000  0.4527320000000  0.4619200000000 1.0
C      1  0.5997970000000  0.5344770000000  0.5449610000000 1.0
C      1  0.3820690000000  0.4535880000000  0.4612110000000 1.0
C      1  0.5069500000000  0.4842720000000  0.5862900000000 1.0
C      1  0.4796110000000  0.5100450000000  0.4323010000000 1.0
C      1  0.4588030000000  0.4489150000000  0.4109260000000 1.0
C      1  0.5472920000000  0.5692660000000  0.5732590000000 1.0
C      1  0.4353960000000  0.4962740000000  0.4717760000000 1.0
C      1  0.5582980000000  0.5039710000000  0.5115040000000 1.0
C      1  0.5289590000000  0.5091650000000  0.4550710000000 1.0
C      1  0.4713090000000  0.4955490000000  0.5508970000000 1.0
END
