TITL C-74083-3671-139 0.000227539413451456 125000 -802.745961653655 0 0 133 (C1) n - 1
REM
REM in /home/nfs/bkarasulu/CARBON/AIRSS/Generating-Clusters/LCBOP/Higher-Symm/SD-CG/FIRE-CG
REM
REM
REM
REM
REM
REM ./C.cell (b20cbc046b6831c77cfcea5457e17084)
REM AIRSS Version 0.9.1 bugfix July 2018 build 013d7b7c2542+ Fri, 06 Jul 2018 19:26:36 +0100
REM compiler GCC version 9.2.1 20190827 (Red Hat 9.2.1-1)
REM options -cpp -mtune=generic -march=x86-64 -g -O0 -fpre-include=/usr/include/finclude/math-vector-fortran.h
REM seed 2038973446 -1071761796 -1020994672 603588703 -1328840852 713281234 668239237 -400797980 1552837921 -1815365463 -2137227769 -160166796 1231623089 -436433718 -768298745 -1480550040 -194791268 1583055164 2096407383 -1095484857 -1684452311 719623160 -424279862 1378705963 1277031612 -1870774505 868932099 1943698825 -113785055 1027544661 753603351 1111573279 -1173775000
REM
CELL 1.54180   50.00000   50.00000   50.00000   90.00000   90.00000   90.00000
LATT -1
SFAC C  
C      1  0.5770660000000  0.5007210000000  0.4526810000000 1.0
C      1  0.4819680000000  0.4844680000000  0.4182180000000 1.0
C      1  0.4192840000000  0.4909560000000  0.4945290000000 1.0
C      1  0.4680760000000  0.4927660000000  0.5875430000000 1.0
C      1  0.5764900000000  0.5031650000000  0.5537800000000 1.0
C      1  0.5451510000000  0.5106880000000  0.5190630000000 1.0
C      1  0.5294660000000  0.5136590000000  0.4627290000000 1.0
C      1  0.4851450000000  0.4967910000000  0.4637180000000 1.0
C      1  0.4601670000000  0.5108460000000  0.5161300000000 1.0
C      1  0.4962170000000  0.4992690000000  0.5469310000000 1.0
C      1  0.4157050000000  0.4736840000000  0.5173380000000 1.0
C      1  0.4933960000000  0.4806420000000  0.5978630000000 1.0
C      1  0.5912890000000  0.4825270000000  0.5317420000000 1.0
C      1  0.5694580000000  0.4870320000000  0.4287000000000 1.0
C      1  0.4547510000000  0.4762450000000  0.4227630000000 1.0
C      1  0.4217380000000  0.4916600000000  0.5404410000000 1.0
C      1  0.5159820000000  0.4981400000000  0.5900100000000 1.0
C      1  0.5897190000000  0.4987900000000  0.5073900000000 1.0
C      1  0.5445080000000  0.4981080000000  0.4188320000000 1.0
C      1  0.4422410000000  0.4933030000000  0.4426250000000 1.0
C      1  0.5404340000000  0.5671580000000  0.4300170000000 1.0
C      1  0.4501580000000  0.5598170000000  0.4419470000000 1.0
C      1  0.4233440000000  0.5612150000000  0.5310680000000 1.0
C      1  0.5021320000000  0.5636080000000  0.5774570000000 1.0
C      1  0.5763250000000  0.5674230000000  0.5196950000000 1.0
C      1  0.4492880000000  0.5135820000000  0.5909850000000 1.0
C      1  0.5675220000000  0.5183510000000  0.5791880000000 1.0
C      1  0.5951570000000  0.5223350000000  0.4559540000000 1.0
C      1  0.4899970000000  0.5087770000000  0.4052220000000 1.0
C      1  0.4031480000000  0.5099560000000  0.4813010000000 1.0
C      1  0.5623140000000  0.5005090000000  0.4985550000000 1.0
C      1  0.5240860000000  0.4950230000000  0.4385740000000 1.0
C      1  0.4576880000000  0.4953800000000  0.4666980000000 1.0
C      1  0.4499240000000  0.4954120000000  0.5406010000000 1.0
C      1  0.5208180000000  0.4973270000000  0.5614030000000 1.0
C      1  0.5380160000000  0.5938340000000  0.5127650000000 1.0
C      1  0.5229030000000  0.5945820000000  0.4654290000000 1.0
C      1  0.4736140000000  0.5929980000000  0.4666090000000 1.0
C      1  0.4572220000000  0.5925100000000  0.5140060000000 1.0
C      1  0.4981590000000  0.5943120000000  0.5416280000000 1.0
C      1  0.3930540000000  0.5283830000000  0.5248910000000 1.0
C      1  0.4892850000000  0.5343190000000  0.6083920000000 1.0
C      1  0.5887960000000  0.5290370000000  0.5403650000000 1.0
C      1  0.5715300000000  0.5381890000000  0.4156360000000 1.0
C      1  0.4445660000000  0.5285960000000  0.4104880000000 1.0
C      1  0.5460360000000  0.5251130000000  0.4086620000000 1.0
C      1  0.4307350000000  0.5181200000000  0.4341460000000 1.0
C      1  0.4098660000000  0.5176240000000  0.5463760000000 1.0
C      1  0.5157960000000  0.5250320000000  0.6000670000000 1.0
C      1  0.5968050000000  0.5265240000000  0.5120730000000 1.0
C      1  0.4276660000000  0.4472310000000  0.5129450000000 1.0
C      1  0.4922560000000  0.4529180000000  0.5873570000000 1.0
C      1  0.5787990000000  0.4576480000000  0.5311110000000 1.0
C      1  0.5775660000000  0.4606050000000  0.4250490000000 1.0
C      1  0.4467670000000  0.4497120000000  0.4165200000000 1.0
C      1  0.5502010000000  0.4058950000000  0.4696440000000 1.0
C      1  0.5053610000000  0.4251990000000  0.4502930000000 1.0
C      1  0.4247510000000  0.4452730000000  0.3999810000000 1.0
C      1  0.4563970000000  0.4372520000000  0.5546700000000 1.0
C      1  0.5506330000000  0.4430850000000  0.5674060000000 1.0
C      1  0.4807160000000  0.4572880000000  0.5586260000000 1.0
C      1  0.5480430000000  0.4610030000000  0.5410740000000 1.0
C      1  0.5259920000000  0.4198520000000  0.4740050000000 1.0
C      1  0.4981180000000  0.4538680000000  0.4583690000000 1.0
C      1  0.4532350000000  0.4412380000000  0.5244810000000 1.0
C      1  0.4855840000000  0.4250100000000  0.5915660000000 1.0
C      1  0.5874360000000  0.4322930000000  0.5407080000000 1.0
C      1  0.5779490000000  0.4361090000000  0.4355720000000 1.0
C      1  0.4611930000000  0.4278660000000  0.4271750000000 1.0
C      1  0.4223030000000  0.4300520000000  0.4910670000000 1.0
C      1  0.4947040000000  0.4512000000000  0.4877150000000 1.0
C      1  0.4784500000000  0.4483770000000  0.5117220000000 1.0
C      1  0.4981690000000  0.4512320000000  0.5343140000000 1.0
C      1  0.5254080000000  0.4489040000000  0.5240000000000 1.0
C      1  0.5216950000000  0.4390090000000  0.4962120000000 1.0
C      1  0.4984700000000  0.4791710000000  0.4428210000000 1.0
C      1  0.4470640000000  0.4977910000000  0.4921760000000 1.0
C      1  0.4714840000000  0.4859830000000  0.5583660000000 1.0
C      1  0.5463190000000  0.4935960000000  0.5448890000000 1.0
C      1  0.5557340000000  0.5024680000000  0.4718470000000 1.0
C      1  0.5190480000000  0.4227740000000  0.4241560000000 1.0
C      1  0.4034690000000  0.4419430000000  0.3845590000000 1.0
C      1  0.4310550000000  0.4444260000000  0.5686570000000 1.0
C      1  0.5442770000000  0.4487990000000  0.5936830000000 1.0
C      1  0.5551490000000  0.3815960000000  0.4823410000000 1.0
C      1  0.5593800000000  0.3593280000000  0.4952020000000 1.0
C      1  0.5264170000000  0.4211400000000  0.3992190000000 1.0
C      1  0.3824930000000  0.4387890000000  0.3694030000000 1.0
C      1  0.4101580000000  0.4477330000000  0.5838600000000 1.0
C      1  0.5450660000000  0.4512480000000  0.6196430000000 1.0
C      1  0.5690620000000  0.4173670000000  0.4522720000000 1.0
C      1  0.4765080000000  0.4144620000000  0.4473590000000 1.0
C      1  0.4371500000000  0.4130830000000  0.4763080000000 1.0
C      1  0.4678260000000  0.4149170000000  0.5723780000000 1.0
C      1  0.5714190000000  0.4236990000000  0.5612890000000 1.0
C      1  0.5268140000000  0.5470970000000  0.5819930000000 1.0
C      1  0.5865510000000  0.5504220000000  0.4964770000000 1.0
C      1  0.5236740000000  0.5453850000000  0.4150110000000 1.0
C      1  0.4293200000000  0.5414580000000  0.4541460000000 1.0
C      1  0.4288220000000  0.5415480000000  0.5544850000000 1.0
C      1  0.4131100000000  0.5378370000000  0.4796360000000 1.0
C      1  0.4504520000000  0.5392360000000  0.5763600000000 1.0
C      1  0.5540710000000  0.5445460000000  0.5706820000000 1.0
C      1  0.5835370000000  0.5484780000000  0.4648660000000 1.0
C      1  0.4939790000000  0.5371260000000  0.4132140000000 1.0
C      1  0.4974030000000  0.6170950000000  0.5248740000000 1.0
C      1  0.5209630000000  0.6164850000000  0.5075150000000 1.0
C      1  0.5119970000000  0.6167880000000  0.4799740000000 1.0
C      1  0.4825490000000  0.6164480000000  0.4799510000000 1.0
C      1  0.4732560000000  0.6161530000000  0.5079770000000 1.0
C      1  0.4082920000000  0.5477750000000  0.5085680000000 1.0
C      1  0.4772340000000  0.5504270000000  0.5866280000000 1.0
C      1  0.5718010000000  0.5526920000000  0.5456220000000 1.0
C      1  0.5675950000000  0.5567010000000  0.4384650000000 1.0
C      1  0.4657170000000  0.5468850000000  0.4198020000000 1.0
C      1  0.5237910000000  0.5652150000000  0.5092820000000 1.0
C      1  0.5159090000000  0.5671090000000  0.4783150000000 1.0
C      1  0.4849760000000  0.5697070000000  0.4800130000000 1.0
C      1  0.4732390000000  0.5663480000000  0.5080020000000 1.0
C      1  0.4979720000000  0.5703650000000  0.5252990000000 1.0
C      1  0.4542240000000  0.5866440000000  0.4481320000000 1.0
C      1  0.4335080000000  0.5871270000000  0.5276160000000 1.0
C      1  0.5019250000000  0.5898370000000  0.5684430000000 1.0
C      1  0.5652220000000  0.5926250000000  0.5164690000000 1.0
C      1  0.5323190000000  0.5921240000000  0.4394310000000 1.0
C      1  0.4589230000000  0.5408530000000  0.5122250000000 1.0
C      1  0.4890590000000  0.5085040000000  0.5217220000000 1.0
C      1  0.5282010000000  0.5335700000000  0.5131390000000 1.0
C      1  0.5282350000000  0.5438370000000  0.4637000000000 1.0
C      1  0.5051550000000  0.5086900000000  0.4785260000000 1.0
C      1  0.5053740000000  0.5197400000000  0.5034350000000 1.0
C      1  0.4700490000000  0.3775360000000  0.4782970000000 1.0
C      1  0.4613800000000  0.4011350000000  0.4675760000000 1.0
END
