TITL C-74084-3399-140 -10771.7366366508 125000 -910.60669404523 0 0 147 (C1) n - 1
REM
REM in /home/nfs/bkarasulu/CARBON/AIRSS/Generating-Clusters/LCBOP/Higher-Symm/SD-CG/FIRE-CG
REM
REM
REM
REM
REM
REM ./C.cell (b20cbc046b6831c77cfcea5457e17084)
REM AIRSS Version 0.9.1 bugfix July 2018 build 013d7b7c2542+ Fri, 06 Jul 2018 19:26:36 +0100
REM compiler GCC version 9.2.1 20190827 (Red Hat 9.2.1-1)
REM options -cpp -mtune=generic -march=x86-64 -g -O0 -fpre-include=/usr/include/finclude/math-vector-fortran.h
REM seed -837964868 -126117642 1850047327 1270873966 1126442528 -1544855175 61746358 1045306347 -364215645 1045519979 -971217655 1403400630 69361920 -1757969172 -795863271 -1704867610 -954335705 27539449 927175535 1107739331 -1153544704 1565899021 -1953680631 1066442376 982371685 997260459 -531940954 1993833934 -107228967 -1306730668 145572175 -881219460 156392787
REM
CELL 1.54180   50.00000   50.00000   50.00000   90.00000   90.00000   90.00000
LATT -1
SFAC C  
C      1  0.5069600000000  0.4614520000000  0.5047980000000 1.0
C      1  0.4561050000000  0.5192840000000  0.5551050000000 1.0
C      1  0.4719660000000  0.5051260000000  0.5104860000000 1.0
C      1  0.4507550000000  0.5857940000000  0.4780650000000 1.0
C      1  0.5761050000000  0.5882850000000  0.4866070000000 1.0
C      1  0.4492350000000  0.5210850000000  0.4978440000000 1.0
C      1  0.4351520000000  0.5719370000000  0.5228800000000 1.0
C      1  0.5382130000000  0.4993230000000  0.4422320000000 1.0
C      1  0.4485530000000  0.4581910000000  0.5794090000000 1.0
C      1  0.4200850000000  0.5275800000000  0.5012620000000 1.0
C      1  0.5181500000000  0.4054730000000  0.4553520000000 1.0
C      1  0.4549420000000  0.5874920000000  0.5079170000000 1.0
C      1  0.4750520000000  0.5860280000000  0.4597930000000 1.0
C      1  0.5025650000000  0.5633100000000  0.5884770000000 1.0
C      1  0.5166800000000  0.4557630000000  0.3990410000000 1.0
C      1  0.5014980000000  0.5369080000000  0.6000720000000 1.0
C      1  0.5269500000000  0.5223240000000  0.6024850000000 1.0
C      1  0.4762150000000  0.4957240000000  0.5940510000000 1.0
C      1  0.4655920000000  0.4393920000000  0.5664680000000 1.0
C      1  0.6025990000000  0.4725890000000  0.4534030000000 1.0
C      1  0.4953680000000  0.4830450000000  0.4427200000000 1.0
C      1  0.5008330000000  0.4065550000000  0.4779920000000 1.0
C      1  0.5597210000000  0.4667350000000  0.5038070000000 1.0
C      1  0.4180720000000  0.4881500000000  0.4476750000000 1.0
C      1  0.5666460000000  0.4508210000000  0.4832990000000 1.0
C      1  0.5093980000000  0.5275620000000  0.4704570000000 1.0
C      1  0.5491400000000  0.5272020000000  0.5598950000000 1.0
C      1  0.5815960000000  0.5052190000000  0.4310030000000 1.0
C      1  0.5223940000000  0.5225580000000  0.5500710000000 1.0
C      1  0.4834180000000  0.5081220000000  0.4319670000000 1.0
C      1  0.5026020000000  0.5546640000000  0.4292500000000 1.0
C      1  0.3801090000000  0.4380580000000  0.4511810000000 1.0
C      1  0.5520790000000  0.4380730000000  0.5624730000000 1.0
C      1  0.5221550000000  0.4270400000000  0.4364700000000 1.0
C      1  0.5921350000000  0.5636040000000  0.4898490000000 1.0
C      1  0.3982800000000  0.5372220000000  0.5423740000000 1.0
C      1  0.5543970000000  0.5419310000000  0.4540480000000 1.0
C      1  0.5603880000000  0.4605820000000  0.4219990000000 1.0
C      1  0.5383660000000  0.4599330000000  0.5743610000000 1.0
C      1  0.5067300000000  0.4220920000000  0.5552610000000 1.0
C      1  0.5666040000000  0.4125210000000  0.5163910000000 1.0
C      1  0.5321700000000  0.5265970000000  0.4021210000000 1.0
C      1  0.5087850000000  0.4564070000000  0.6145820000000 1.0
C      1  0.5320230000000  0.5479220000000  0.4747430000000 1.0
C      1  0.5033190000000  0.6016170000000  0.5016430000000 1.0
C      1  0.4908610000000  0.4627380000000  0.5284020000000 1.0
C      1  0.5400920000000  0.4949030000000  0.6083550000000 1.0
C      1  0.5682110000000  0.5968540000000  0.4606770000000 1.0
C      1  0.4779720000000  0.5137570000000  0.4024000000000 1.0
C      1  0.4495020000000  0.5623980000000  0.5771630000000 1.0
C      1  0.4587220000000  0.5103010000000  0.4486600000000 1.0
C      1  0.4874950000000  0.4012030000000  0.5488960000000 1.0
C      1  0.5759010000000  0.5310430000000  0.5220320000000 1.0
C      1  0.5312680000000  0.6081100000000  0.5069090000000 1.0
C      1  0.4057910000000  0.4408850000000  0.4592950000000 1.0
C      1  0.4707280000000  0.4090670000000  0.4797800000000 1.0
C      1  0.5306580000000  0.5948300000000  0.5662160000000 1.0
C      1  0.4440870000000  0.4482010000000  0.5241080000000 1.0
C      1  0.5463900000000  0.4746750000000  0.5257980000000 1.0
C      1  0.5328900000000  0.5496590000000  0.5042750000000 1.0
C      1  0.5383540000000  0.4093130000000  0.5213060000000 1.0
C      1  0.4709000000000  0.5410110000000  0.3958120000000 1.0
C      1  0.4379810000000  0.5443790000000  0.4291130000000 1.0
C      1  0.5062090000000  0.5510250000000  0.5138270000000 1.0
C      1  0.4828750000000  0.5901710000000  0.5504320000000 1.0
C      1  0.5650690000000  0.4038960000000  0.4651220000000 1.0
C      1  0.5281780000000  0.5523530000000  0.4152260000000 1.0
C      1  0.5847980000000  0.4839450000000  0.5862260000000 1.0
C      1  0.4442720000000  0.4487880000000  0.4817430000000 1.0
C      1  0.5394080000000  0.4727020000000  0.4047410000000 1.0
C      1  0.4153650000000  0.4546560000000  0.4845470000000 1.0
C      1  0.5199360000000  0.4834270000000  0.4566040000000 1.0
C      1  0.4992430000000  0.5303320000000  0.4440450000000 1.0
C      1  0.4506240000000  0.4204620000000  0.5263620000000 1.0
C      1  0.4816350000000  0.4557190000000  0.6168470000000 1.0
C      1  0.5148210000000  0.4963530000000  0.5560700000000 1.0
C      1  0.5717370000000  0.5131050000000  0.5450460000000 1.0
C      1  0.4506870000000  0.4753490000000  0.3848360000000 1.0
C      1  0.5497090000000  0.5615210000000  0.4321190000000 1.0
C      1  0.5003400000000  0.5911950000000  0.4742250000000 1.0
C      1  0.5641140000000  0.4321890000000  0.4623090000000 1.0
C      1  0.4492910000000  0.4236560000000  0.4674920000000 1.0
C      1  0.4838570000000  0.5533020000000  0.4953590000000 1.0
C      1  0.4708300000000  0.4931700000000  0.3846600000000 1.0
C      1  0.5015150000000  0.5363110000000  0.5369650000000 1.0
C      1  0.4202250000000  0.4608500000000  0.5341240000000 1.0
C      1  0.4654230000000  0.4037050000000  0.5078400000000 1.0
C      1  0.5458210000000  0.5859860000000  0.4473440000000 1.0
C      1  0.4345750000000  0.4683060000000  0.4072360000000 1.0
C      1  0.5700560000000  0.4986170000000  0.6055700000000 1.0
C      1  0.4787360000000  0.5722070000000  0.4326900000000 1.0
C      1  0.4126520000000  0.5484510000000  0.4789440000000 1.0
C      1  0.5337980000000  0.4201370000000  0.5483610000000 1.0
C      1  0.4941450000000  0.4907250000000  0.5730680000000 1.0
C      1  0.5554760000000  0.5517730000000  0.5210900000000 1.0
C      1  0.4656650000000  0.4780500000000  0.5244180000000 1.0
C      1  0.4630090000000  0.4714170000000  0.6015380000000 1.0
C      1  0.4447350000000  0.4438320000000  0.4220800000000 1.0
C      1  0.5184230000000  0.4700830000000  0.4817590000000 1.0
C      1  0.5579500000000  0.5963430000000  0.5082040000000 1.0
C      1  0.5344800000000  0.4999910000000  0.4125670000000 1.0
C      1  0.3889470000000  0.5127910000000  0.5333710000000 1.0
C      1  0.4810440000000  0.5956260000000  0.5208690000000 1.0
C      1  0.4582310000000  0.4684910000000  0.4678960000000 1.0
C      1  0.4236340000000  0.5214760000000  0.4157200000000 1.0
C      1  0.5301630000000  0.4688080000000  0.6005340000000 1.0
C      1  0.4582720000000  0.5841920000000  0.5638890000000 1.0
C      1  0.4034640000000  0.5019270000000  0.5101480000000 1.0
C      1  0.5608300000000  0.5158640000000  0.4470540000000 1.0
C      1  0.5028460000000  0.4382390000000  0.4174980000000 1.0
C      1  0.5939330000000  0.5358120000000  0.4998610000000 1.0
C      1  0.4254800000000  0.5721670000000  0.4719930000000 1.0
C      1  0.5766240000000  0.4481910000000  0.5496220000000 1.0
C      1  0.5497960000000  0.5351640000000  0.5874300000000 1.0
C      1  0.4307270000000  0.4292680000000  0.4440780000000 1.0
C      1  0.6059390000000  0.5136690000000  0.4866880000000 1.0
C      1  0.5840200000000  0.4301610000000  0.5287040000000 1.0
C      1  0.4913600000000  0.4469140000000  0.5529230000000 1.0
C      1  0.4606240000000  0.4140180000000  0.5535440000000 1.0
C      1  0.4765850000000  0.5233620000000  0.5360140000000 1.0
C      1  0.4896880000000  0.3938340000000  0.5213680000000 1.0
C      1  0.4752420000000  0.5239350000000  0.5979970000000 1.0
C      1  0.4085970000000  0.4726160000000  0.5087190000000 1.0
C      1  0.5238850000000  0.5776490000000  0.4654040000000 1.0
C      1  0.4189420000000  0.5486980000000  0.5261490000000 1.0
C      1  0.5421250000000  0.3901330000000  0.4595300000000 1.0
C      1  0.5493190000000  0.4398040000000  0.4387440000000 1.0
C      1  0.4512020000000  0.5369780000000  0.4544680000000 1.0
C      1  0.4567900000000  0.5353520000000  0.5788330000000 1.0
C      1  0.5820100000000  0.4819650000000  0.5579460000000 1.0
C      1  0.5136010000000  0.4014920000000  0.5056570000000 1.0
C      1  0.4616580000000  0.5415070000000  0.4813160000000 1.0
C      1  0.5731990000000  0.5274820000000  0.6025140000000 1.0
C      1  0.6090280000000  0.4904540000000  0.4731220000000 1.0
C      1  0.5335880000000  0.4768320000000  0.5511380000000 1.0
C      1  0.4305490000000  0.4720290000000  0.5601390000000 1.0
C      1  0.4749040000000  0.4438070000000  0.4264760000000 1.0
C      1  0.4961200000000  0.5104240000000  0.4905200000000 1.0
C      1  0.4203600000000  0.4917720000000  0.4193480000000 1.0
C      1  0.5542080000000  0.5883610000000  0.5554250000000 1.0
C      1  0.4779870000000  0.4622160000000  0.4487020000000 1.0
C      1  0.5051650000000  0.5836200000000  0.5681960000000 1.0
C      1  0.4454640000000  0.4942550000000  0.5514470000000 1.0
C      1  0.4587300000000  0.5589600000000  0.4149450000000 1.0
C      1  0.4431820000000  0.4904510000000  0.4601170000000 1.0
C      1  0.5840820000000  0.4762360000000  0.4314880000000 1.0
C      1  0.5602730000000  0.5782830000000  0.5302460000000 1.0
END
