TITL C-74079-2735-263 0.0010134888159193 125000 -447.30319902046 0 0 76 (Ci) n - 1
REM
REM in /home/nfs/bkarasulu/CARBON/AIRSS/Generating-Clusters/LCBOP/Higher-Symm/SD-CG/FIRE-CG
REM
REM
REM
REM
REM
REM ./C.cell (b20cbc046b6831c77cfcea5457e17084)
REM AIRSS Version 0.9.1 bugfix July 2018 build 013d7b7c2542+ Fri, 06 Jul 2018 19:26:36 +0100
REM compiler GCC version 9.2.1 20190827 (Red Hat 9.2.1-1)
REM options -cpp -mtune=generic -march=x86-64 -g -O0 -fpre-include=/usr/include/finclude/math-vector-fortran.h
REM seed 1285747625 -966353269 1973256765 -1274921576 793473045 1866620288 1765043496 -726073905 -557896025 1608737564 514041043 1258836673 1598774224 -1406175161 764953085 1222641214 -363568004 -9932267 -349551522 1033054060 317441137 -800235568 -63665545 1686802687 1925601530 -1901908808 2129138665 -1733539431 1414924441 -94332499 1018762052 -1435659694 -2059276575
REM
CELL 1.54180   50.00000   50.00000   50.00000   90.00000   90.00000   90.00000
LATT -1
SFAC C  
C      1  0.4899040000000  0.5830850000000  0.4579080000000 1.0
C      1  0.5100960000000  0.4169150000000  0.5420920000000 1.0
C      1  0.4984390000000  0.5271500000000  0.4852340000000 1.0
C      1  0.5015610000000  0.4728500000000  0.5147660000000 1.0
C      1  0.5522410000000  0.4734660000000  0.5785420000000 1.0
C      1  0.4477590000000  0.5265340000000  0.4214580000000 1.0
C      1  0.5238220000000  0.5154730000000  0.4743870000000 1.0
C      1  0.4761780000000  0.4845270000000  0.5256130000000 1.0
C      1  0.5061850000000  0.5810670000000  0.5855870000000 1.0
C      1  0.4938150000000  0.4189330000000  0.4144130000000 1.0
C      1  0.4286730000000  0.5176070000000  0.5519220000000 1.0
C      1  0.5713270000000  0.4823930000000  0.4480780000000 1.0
C      1  0.5201120000000  0.4668550000000  0.5377250000000 1.0
C      1  0.4798880000000  0.5331450000000  0.4622750000000 1.0
C      1  0.5413580000000  0.5691070000000  0.4552000000000 1.0
C      1  0.4586420000000  0.4308930000000  0.5448000000000 1.0
C      1  0.5884560000000  0.4798980000000  0.5181460000000 1.0
C      1  0.4115440000000  0.5201020000000  0.4818540000000 1.0
C      1  0.4403080000000  0.5183750000000  0.5276580000000 1.0
C      1  0.5596920000000  0.4816250000000  0.4723420000000 1.0
C      1  0.5669860000000  0.4608090000000  0.5590360000000 1.0
C      1  0.4330140000000  0.5391910000000  0.4409640000000 1.0
C      1  0.5172770000000  0.4235720000000  0.4858480000000 1.0
C      1  0.4827230000000  0.5764280000000  0.5141520000000 1.0
C      1  0.5883850000000  0.5069370000000  0.5126970000000 1.0
C      1  0.4116150000000  0.4930630000000  0.4873030000000 1.0
C      1  0.5602710000000  0.5082440000000  0.5475950000000 1.0
C      1  0.4397290000000  0.4917560000000  0.4524050000000 1.0
C      1  0.4399510000000  0.5605880000000  0.4859830000000 1.0
C      1  0.5600490000000  0.4394120000000  0.5140170000000 1.0
C      1  0.5104840000000  0.5093740000000  0.5806440000000 1.0
C      1  0.4895160000000  0.4906260000000  0.4193560000000 1.0
C      1  0.4589100000000  0.5716690000000  0.5019230000000 1.0
C      1  0.5410900000000  0.4283310000000  0.4980770000000 1.0
C      1  0.4760540000000  0.4890960000000  0.4759850000000 1.0
C      1  0.5239460000000  0.5109040000000  0.5240150000000 1.0
C      1  0.5737950000000  0.4583350000000  0.5307480000000 1.0
C      1  0.4262050000000  0.5416650000000  0.4692520000000 1.0
C      1  0.5298770000000  0.5242100000000  0.4475180000000 1.0
C      1  0.4701230000000  0.4757900000000  0.5524820000000 1.0
C      1  0.5354010000000  0.5691620000000  0.5057630000000 1.0
C      1  0.4645990000000  0.4308380000000  0.4942370000000 1.0
C      1  0.4903990000000  0.4260050000000  0.4815850000000 1.0
C      1  0.5096010000000  0.5739950000000  0.5184150000000 1.0
C      1  0.5364940000000  0.5079070000000  0.4252430000000 1.0
C      1  0.4635060000000  0.4920930000000  0.5747570000000 1.0
C      1  0.4951640000000  0.4714050000000  0.4661000000000 1.0
C      1  0.5048360000000  0.5285950000000  0.5339000000000 1.0
C      1  0.5091410000000  0.5959940000000  0.4729240000000 1.0
C      1  0.4908590000000  0.4040060000000  0.5270760000000 1.0
C      1  0.4625120000000  0.5085970000000  0.4608060000000 1.0
C      1  0.5374880000000  0.4914030000000  0.5391940000000 1.0
C      1  0.5559070000000  0.5496470000000  0.5156760000000 1.0
C      1  0.4440930000000  0.4503530000000  0.4843240000000 1.0
C      1  0.4776350000000  0.4490150000000  0.5562590000000 1.0
C      1  0.5223650000000  0.5509850000000  0.4437410000000 1.0
C      1  0.4936200000000  0.5560220000000  0.4490310000000 1.0
C      1  0.5063800000000  0.4439780000000  0.5509690000000 1.0
C      1  0.5139760000000  0.4718390000000  0.4881370000000 1.0
C      1  0.4860240000000  0.5281610000000  0.5118630000000 1.0
C      1  0.4658800000000  0.4178190000000  0.5205240000000 1.0
C      1  0.5341200000000  0.5821810000000  0.4794760000000 1.0
C      1  0.5334170000000  0.4923160000000  0.5853470000000 1.0
C      1  0.4665830000000  0.5076840000000  0.4146530000000 1.0
C      1  0.4925960000000  0.4676900000000  0.4375760000000 1.0
C      1  0.5074040000000  0.5323100000000  0.5624240000000 1.0
C      1  0.4652090000000  0.5099080000000  0.5178720000000 1.0
C      1  0.5347910000000  0.4900920000000  0.4821280000000 1.0
C      1  0.5706530000000  0.5257240000000  0.5259120000000 1.0
C      1  0.4293470000000  0.4742760000000  0.4740880000000 1.0
C      1  0.4389800000000  0.5058420000000  0.5739250000000 1.0
C      1  0.5610200000000  0.4941580000000  0.4260750000000 1.0
C      1  0.5068820000000  0.5579370000000  0.5735990000000 1.0
C      1  0.4931180000000  0.4420630000000  0.4264010000000 1.0
C      1  0.4854670000000  0.5000600000000  0.5903330000000 1.0
C      1  0.5145330000000  0.4999400000000  0.4096670000000 1.0
END
