TITL C-74086-5274-331 -8.21936006247778e-07 125000 -344.947838562713 0 0 57 (Cs) n - 1
REM
REM in /home/nfs/bkarasulu/CARBON/AIRSS/Generating-Clusters/LCBOP/Higher-Symm/SD-CG/FIRE-CG
REM
REM
REM
REM
REM
REM ./C.cell (b20cbc046b6831c77cfcea5457e17084)
REM AIRSS Version 0.9.1 bugfix July 2018 build 013d7b7c2542+ Fri, 06 Jul 2018 19:26:36 +0100
REM compiler GCC version 9.2.1 20190827 (Red Hat 9.2.1-1)
REM options -cpp -mtune=generic -march=x86-64 -g -O0 -fpre-include=/usr/include/finclude/math-vector-fortran.h
REM seed 825838809 248695727 1111021199 -878076941 1444323994 -1811112776 1727159513 -675483221 -1086014433 -1542276721 1428559502 -1209906223 716136950 -562124546 -1784452621 -1023046937 243549649 82548682 -1798023420 975448628 1799725093 1894389541 -521467980 2122361286 41098045 -355418221 1084058654 -826127639 -536151843 1557338638 -925875205 1156967022 411540580
REM
CELL 1.54180   50.00000   50.00000   50.00000   90.00000   90.00000   90.00000
LATT -1
SFAC C  
C      1  0.4473960000000  0.4492530000000  0.5256780000000 1.0
C      1  0.4473880000000  0.4492700000000  0.4729580000000 1.0
C      1  0.5189950000000  0.5378920000000  0.5534650000000 1.0
C      1  0.5189800000000  0.5379250000000  0.4452060000000 1.0
C      1  0.4905770000000  0.5398510000000  0.4543320000000 1.0
C      1  0.4905890000000  0.5398230000000  0.5443470000000 1.0
C      1  0.4872620000000  0.5632240000000  0.4730300000000 1.0
C      1  0.4872690000000  0.5632080000000  0.5256650000000 1.0
C      1  0.4449190000000  0.5439860000000  0.4714530000000 1.0
C      1  0.4449270000000  0.5439690000000  0.5272420000000 1.0
C      1  0.5094530000000  0.5768970000000  0.5135720000000 1.0
C      1  0.5094490000000  0.5769060000000  0.4851260000000 1.0
C      1  0.4625730000000  0.5268040000000  0.4553790000000 1.0
C      1  0.4625850000000  0.5267760000000  0.5433010000000 1.0
C      1  0.4627240000000  0.4257590000000  0.5340590000000 1.0
C      1  0.4627140000000  0.4257800000000  0.4645580000000 1.0
C      1  0.5702780000000  0.4822180000000  0.5137410000000 1.0
C      1  0.5702740000000  0.4822270000000  0.4848810000000 1.0
C      1  0.5662000000000  0.5182360000000  0.5474130000000 1.0
C      1  0.5661870000000  0.5182650000000  0.4512320000000 1.0
C      1  0.5052770000000  0.4711780000000  0.4118700000000 1.0
C      1  0.5053010000000  0.4711240000000  0.5867630000000 1.0
C      1  0.4893500000000  0.4182750000000  0.5349560000000 1.0
C      1  0.4893400000000  0.4182970000000  0.4636490000000 1.0
C      1  0.4863180000000  0.4707070000000  0.5362090000000 1.0
C      1  0.4863070000000  0.4707300000000  0.4624290000000 1.0
C      1  0.5375700000000  0.5161190000000  0.5490970000000 1.0
C      1  0.5375560000000  0.5161500000000  0.4495550000000 1.0
C      1  0.5377600000000  0.4449690000000  0.5307260000000 1.0
C      1  0.5377510000000  0.4449880000000  0.4678820000000 1.0
C      1  0.4974720000000  0.4572740000000  0.5133900000000 1.0
C      1  0.4974680000000  0.4572830000000  0.4852370000000 1.0
C      1  0.5462710000000  0.4721030000000  0.5268350000000 1.0
C      1  0.5462630000000  0.4721210000000  0.4717870000000 1.0
C      1  0.5285540000000  0.4948010000000  0.5325390000000 1.0
C      1  0.5285450000000  0.4948210000000  0.4661020000000 1.0
C      1  0.5304930000000  0.5805630000000  0.5320430000000 1.0
C      1  0.5304840000000  0.5805840000000  0.4666510000000 1.0
C      1  0.5109180000000  0.5031720000000  0.4861380000000 1.0
C      1  0.5109220000000  0.5031640000000  0.5125130000000 1.0
C      1  0.4523960000000  0.5002770000000  0.4533130000000 1.0
C      1  0.4524090000000  0.5002480000000  0.5453520000000 1.0
C      1  0.5321650000000  0.5635590000000  0.5533120000000 1.0
C      1  0.5321500000000  0.5635930000000  0.4453710000000 1.0
C      1  0.4581490000000  0.4743590000000  0.5360050000000 1.0
C      1  0.4581390000000  0.4743810000000  0.4626430000000 1.0
C      1  0.4983140000000  0.4718800000000  0.5616530000000 1.0
C      1  0.4982970000000  0.4719180000000  0.4369820000000 1.0
C      1  0.5115400000000  0.4343890000000  0.4725790000000 1.0
C      1  0.5115480000000  0.4343730000000  0.5260300000000 1.0
C      1  0.4614720000000  0.5631900000000  0.5135530000000 1.0
C      1  0.4614680000000  0.5631990000000  0.4851490000000 1.0
C      1  0.4219780000000  0.5356840000000  0.4857300000000 1.0
C      1  0.4219820000000  0.5356760000000  0.5129670000000 1.0
C      1  0.5813040000000  0.5034920000000  0.4689050000000 1.0
C      1  0.5813120000000  0.5034730000000  0.5297270000000 1.0
C      1  0.4367470000000  0.4490230000000  0.4993190000000 1.0
END
