TITL C-74084-3399-41 -5.21883791681787e-05 125000 -1038.13641915734 0 0 171 (C1) n - 1
REM
REM in /home/nfs/bkarasulu/CARBON/AIRSS/Generating-Clusters/LCBOP/Higher-Symm/SD-CG/FIRE-CG
REM
REM
REM
REM
REM
REM ./C.cell (b20cbc046b6831c77cfcea5457e17084)
REM AIRSS Version 0.9.1 bugfix July 2018 build 013d7b7c2542+ Fri, 06 Jul 2018 19:26:36 +0100
REM compiler GCC version 9.2.1 20190827 (Red Hat 9.2.1-1)
REM options -cpp -mtune=generic -march=x86-64 -g -O0 -fpre-include=/usr/include/finclude/math-vector-fortran.h
REM seed 92523111 245793440 -2125380850 1146817198 1458521397 -1951328216 -1919812801 1360725874 1924011156 318602802 244242818 -435730136 93611826 2069134811 -737331227 1800043898 -313014501 1391068284 258502675 -1068133044 2062877059 -610086061 -701776124 -1237933477 666412628 -1702201217 -1867182226 -1553283278 -198942677 744627987 165900192 212663916 -326854813
REM
CELL 1.54180   50.00000   50.00000   50.00000   90.00000   90.00000   90.00000
LATT -1
SFAC C  
C      1  0.5956620000000  0.4573940000000  0.4686920000000 1.0
C      1  0.5941110000000  0.5408820000000  0.5165660000000 1.0
C      1  0.5847680000000  0.5305040000000  0.3900600000000 1.0
C      1  0.5952790000000  0.4892110000000  0.5802860000000 1.0
C      1  0.6080300000000  0.4207800000000  0.5326590000000 1.0
C      1  0.6105410000000  0.5450000000000  0.4531640000000 1.0
C      1  0.5001770000000  0.5186350000000  0.5344680000000 1.0
C      1  0.4998970000000  0.4760380000000  0.4769860000000 1.0
C      1  0.4609650000000  0.5845100000000  0.6088820000000 1.0
C      1  0.4908110000000  0.4051020000000  0.4252980000000 1.0
C      1  0.4173610000000  0.4627230000000  0.4936280000000 1.0
C      1  0.4191780000000  0.5374420000000  0.4783980000000 1.0
C      1  0.4631050000000  0.4777310000000  0.3888870000000 1.0
C      1  0.4359880000000  0.5149890000000  0.5963680000000 1.0
C      1  0.4965910000000  0.4874620000000  0.5020640000000 1.0
C      1  0.4920380000000  0.5152980000000  0.5063690000000 1.0
C      1  0.5469180000000  0.4494040000000  0.5454690000000 1.0
C      1  0.5535660000000  0.5586410000000  0.4525500000000 1.0
C      1  0.5723460000000  0.4498000000000  0.5593380000000 1.0
C      1  0.5702910000000  0.5578500000000  0.4280620000000 1.0
C      1  0.5501980000000  0.4822870000000  0.5864460000000 1.0
C      1  0.5484420000000  0.5167110000000  0.4172960000000 1.0
C      1  0.5282440000000  0.5713670000000  0.5062860000000 1.0
C      1  0.5249130000000  0.4346860000000  0.4790380000000 1.0
C      1  0.4316650000000  0.3377340000000  0.4526100000000 1.0
C      1  0.4914860000000  0.5980910000000  0.5548260000000 1.0
C      1  0.4962160000000  0.4489600000000  0.5957180000000 1.0
C      1  0.5012980000000  0.5546570000000  0.4103180000000 1.0
C      1  0.4165150000000  0.6077510000000  0.4926690000000 1.0
C      1  0.4107040000000  0.3994590000000  0.5128950000000 1.0
C      1  0.4998680000000  0.4923170000000  0.4169770000000 1.0
C      1  0.4833800000000  0.5116640000000  0.5814650000000 1.0
C      1  0.5279010000000  0.5709900000000  0.4491040000000 1.0
C      1  0.5253470000000  0.4343260000000  0.5575070000000 1.0
C      1  0.4999670000000  0.4263430000000  0.4903640000000 1.0
C      1  0.5013390000000  0.5645520000000  0.4999740000000 1.0
C      1  0.4459700000000  0.5131180000000  0.4497620000000 1.0
C      1  0.4390240000000  0.4974090000000  0.5202610000000 1.0
C      1  0.4837820000000  0.4962130000000  0.3936800000000 1.0
C      1  0.4613030000000  0.5024030000000  0.5973820000000 1.0
C      1  0.5562150000000  0.5683930000000  0.5080490000000 1.0
C      1  0.5535440000000  0.4279880000000  0.4775190000000 1.0
C      1  0.5440810000000  0.3779970000000  0.5153440000000 1.0
C      1  0.5546860000000  0.6250510000000  0.4803430000000 1.0
C      1  0.4585000000000  0.4880370000000  0.4530010000000 1.0
C      1  0.4440740000000  0.5202420000000  0.5337890000000 1.0
C      1  0.5638250000000  0.5385080000000  0.4075250000000 1.0
C      1  0.5749190000000  0.4687530000000  0.5808500000000 1.0
C      1  0.4768310000000  0.3898140000000  0.5336510000000 1.0
C      1  0.4791020000000  0.6167210000000  0.4719910000000 1.0
C      1  0.3660590000000  0.5739940000000  0.5240460000000 1.0
C      1  0.3424720000000  0.4220540000000  0.5102560000000 1.0
C      1  0.5659710000000  0.4029740000000  0.4814420000000 1.0
C      1  0.5764610000000  0.5881250000000  0.5016050000000 1.0
C      1  0.4607950000000  0.5410140000000  0.4535610000000 1.0
C      1  0.4677520000000  0.4575140000000  0.5427720000000 1.0
C      1  0.6015210000000  0.5340030000000  0.5630500000000 1.0
C      1  0.6108220000000  0.4937110000000  0.4404150000000 1.0
C      1  0.4955260000000  0.5379040000000  0.4877060000000 1.0
C      1  0.5088170000000  0.4726690000000  0.5243560000000 1.0
C      1  0.5454580000000  0.5026040000000  0.5688230000000 1.0
C      1  0.5551670000000  0.5042970000000  0.4404940000000 1.0
C      1  0.5329140000000  0.3456340000000  0.4508320000000 1.0
C      1  0.5878030000000  0.6475870000000  0.5415030000000 1.0
C      1  0.4038010000000  0.4039520000000  0.5826220000000 1.0
C      1  0.3973690000000  0.5809550000000  0.4312360000000 1.0
C      1  0.4548900000000  0.5399230000000  0.5489000000000 1.0
C      1  0.4796690000000  0.4700450000000  0.4579620000000 1.0
C      1  0.4762050000000  0.4355270000000  0.5005580000000 1.0
C      1  0.4822140000000  0.5840060000000  0.5082170000000 1.0
C      1  0.5194690000000  0.4070480000000  0.5515100000000 1.0
C      1  0.5197950000000  0.5982830000000  0.4521580000000 1.0
C      1  0.6080910000000  0.5488410000000  0.5401450000000 1.0
C      1  0.6172090000000  0.4711820000000  0.4568240000000 1.0
C      1  0.3934770000000  0.5950240000000  0.4828840000000 1.0
C      1  0.3898330000000  0.4057630000000  0.5304080000000 1.0
C      1  0.4916100000000  0.6036950000000  0.4505380000000 1.0
C      1  0.4937430000000  0.3951970000000  0.5554750000000 1.0
C      1  0.4434340000000  0.5506800000000  0.4777070000000 1.0
C      1  0.4591210000000  0.4526760000000  0.5163090000000 1.0
C      1  0.3937230000000  0.4041150000000  0.5580690000000 1.0
C      1  0.3906840000000  0.5899600000000  0.4554250000000 1.0
C      1  0.4887970000000  0.4520630000000  0.4372990000000 1.0
C      1  0.4674570000000  0.5531430000000  0.5715160000000 1.0
C      1  0.5251710000000  0.4638160000000  0.4744870000000 1.0
C      1  0.5267570000000  0.5278450000000  0.5317790000000 1.0
C      1  0.6152030000000  0.5609870000000  0.4761110000000 1.0
C      1  0.6088210000000  0.4087920000000  0.5088780000000 1.0
C      1  0.5510570000000  0.4748010000000  0.4828410000000 1.0
C      1  0.5527770000000  0.5164330000000  0.5210050000000 1.0
C      1  0.6010840000000  0.5173050000000  0.4534990000000 1.0
C      1  0.5916310000000  0.5072510000000  0.5568400000000 1.0
C      1  0.5373010000000  0.4691830000000  0.5266250000000 1.0
C      1  0.5620080000000  0.5381990000000  0.4730530000000 1.0
C      1  0.4385500000000  0.4711830000000  0.5086490000000 1.0
C      1  0.4182290000000  0.5158230000000  0.4595990000000 1.0
C      1  0.4835140000000  0.5465220000000  0.3895980000000 1.0
C      1  0.4740520000000  0.4535220000000  0.6123410000000 1.0
C      1  0.4852940000000  0.3873410000000  0.5809220000000 1.0
C      1  0.4736330000000  0.5874140000000  0.4364460000000 1.0
C      1  0.6019180000000  0.5099760000000  0.3943550000000 1.0
C      1  0.5988880000000  0.5091670000000  0.6015230000000 1.0
C      1  0.5728400000000  0.5153690000000  0.4597570000000 1.0
C      1  0.5647310000000  0.5087350000000  0.5480230000000 1.0
C      1  0.5333710000000  0.4559020000000  0.4130250000000 1.0
C      1  0.5152040000000  0.5488720000000  0.5915200000000 1.0
C      1  0.6430920000000  0.4634580000000  0.4608130000000 1.0
C      1  0.6267560000000  0.5686880000000  0.5405800000000 1.0
C      1  0.6021440000000  0.4888500000000  0.4132480000000 1.0
C      1  0.5932780000000  0.5364530000000  0.5914620000000 1.0
C      1  0.3651250000000  0.4139100000000  0.5202420000000 1.0
C      1  0.3753670000000  0.5846320000000  0.5015700000000 1.0
C      1  0.4413440000000  0.5630560000000  0.4108700000000 1.0
C      1  0.4484810000000  0.4077640000000  0.6104550000000 1.0
C      1  0.3952900000000  0.4748590000000  0.4384720000000 1.0
C      1  0.3607940000000  0.5632720000000  0.5494140000000 1.0
C      1  0.5081980000000  0.4650960000000  0.4209520000000 1.0
C      1  0.4897420000000  0.5396620000000  0.5835770000000 1.0
C      1  0.4571860000000  0.5644640000000  0.4344470000000 1.0
C      1  0.4677340000000  0.3898410000000  0.6007350000000 1.0
C      1  0.4738220000000  0.5915400000000  0.5351320000000 1.0
C      1  0.4328080000000  0.3620900000000  0.4618070000000 1.0
C      1  0.3985670000000  0.4982960000000  0.4508490000000 1.0
C      1  0.3351290000000  0.5572510000000  0.5567320000000 1.0
C      1  0.6010340000000  0.5793810000000  0.4900320000000 1.0
C      1  0.5932870000000  0.4022440000000  0.4881580000000 1.0
C      1  0.4983750000000  0.5095050000000  0.4400110000000 1.0
C      1  0.4914220000000  0.5007150000000  0.5565080000000 1.0
C      1  0.4648000000000  0.4798060000000  0.6133970000000 1.0
C      1  0.4865030000000  0.5203610000000  0.3799400000000 1.0
C      1  0.4479200000000  0.4263670000000  0.4341660000000 1.0
C      1  0.4266570000000  0.5772030000000  0.5747520000000 1.0
C      1  0.5419700000000  0.3618150000000  0.4691440000000 1.0
C      1  0.5790850000000  0.6326430000000  0.5220140000000 1.0
C      1  0.4523730000000  0.5722640000000  0.5861100000000 1.0
C      1  0.4764210000000  0.4273140000000  0.4321000000000 1.0
C      1  0.4346610000000  0.3881800000000  0.4717830000000 1.0
C      1  0.4459280000000  0.6005450000000  0.5332480000000 1.0
C      1  0.4411310000000  0.6072310000000  0.5054060000000 1.0
C      1  0.4344220000000  0.3919790000000  0.5000570000000 1.0
C      1  0.4330150000000  0.4449390000000  0.4183130000000 1.0
C      1  0.4073280000000  0.5565090000000  0.5785580000000 1.0
C      1  0.5684950000000  0.5490150000000  0.5974770000000 1.0
C      1  0.5843880000000  0.4672470000000  0.4085430000000 1.0
C      1  0.4581890000000  0.4320330000000  0.6205930000000 1.0
C      1  0.4572860000000  0.5574830000000  0.3883680000000 1.0
C      1  0.4080670000000  0.4544580000000  0.4269530000000 1.0
C      1  0.3819400000000  0.5587470000000  0.5672350000000 1.0
C      1  0.5660960000000  0.5395740000000  0.5039140000000 1.0
C      1  0.5693700000000  0.4528660000000  0.4767110000000 1.0
C      1  0.5702690000000  0.6158110000000  0.5016880000000 1.0
C      1  0.5504880000000  0.3801650000000  0.4881980000000 1.0
C      1  0.5982270000000  0.5604420000000  0.4324740000000 1.0
C      1  0.5939050000000  0.4344870000000  0.5505190000000 1.0
C      1  0.4573400000000  0.3874430000000  0.5156750000000 1.0
C      1  0.4663450000000  0.6026090000000  0.4922320000000 1.0
C      1  0.5375600000000  0.6176990000000  0.4613730000000 1.0
C      1  0.5376840000000  0.3909110000000  0.5376670000000 1.0
C      1  0.4146250000000  0.5706300000000  0.4136170000000 1.0
C      1  0.4220000000000  0.4050640000000  0.6019570000000 1.0
C      1  0.5074550000000  0.5545890000000  0.4383870000000 1.0
C      1  0.5059130000000  0.4515230000000  0.5696720000000 1.0
C      1  0.4460270000000  0.4590970000000  0.3975910000000 1.0
C      1  0.4165950000000  0.5325000000000  0.5904250000000 1.0
C      1  0.4367460000000  0.4095140000000  0.4536240000000 1.0
C      1  0.4271030000000  0.5952910000000  0.5532170000000 1.0
C      1  0.5597520000000  0.4567700000000  0.4087460000000 1.0
C      1  0.5416400000000  0.5516620000000  0.5961500000000 1.0
C      1  0.4915000000000  0.5351780000000  0.4559440000000 1.0
C      1  0.4931020000000  0.4710220000000  0.5504330000000 1.0
C      1  0.5508000000000  0.4877800000000  0.5083890000000 1.0
END
