TITL C-74084-3399-391 -6.57880295052309e-07 125000 -899.404136208016 0 0 146 (C1) n - 1
REM
REM in /home/nfs/bkarasulu/CARBON/AIRSS/Generating-Clusters/LCBOP/Higher-Symm/SD-CG/FIRE-CG
REM
REM
REM
REM
REM
REM ./C.cell (b20cbc046b6831c77cfcea5457e17084)
REM AIRSS Version 0.9.1 bugfix July 2018 build 013d7b7c2542+ Fri, 06 Jul 2018 19:26:36 +0100
REM compiler GCC version 9.2.1 20190827 (Red Hat 9.2.1-1)
REM options -cpp -mtune=generic -march=x86-64 -g -O0 -fpre-include=/usr/include/finclude/math-vector-fortran.h
REM seed -1560354987 1149835678 -1885546192 2024423829 -1375618711 -250104763 -794862308 777294077 1623141966 -1938550953 -1540864617 38685104 -590154806 -1519093953 1954938271 1346664355 1881115507 1914003044 1051622549 -796262834 -1417617921 387737853 1057571465 -272593414 -1341149557 -555825524 381053665 445983925 -1409932388 1595637567 -407865971 1557659559 -1390398542
REM
CELL 1.54180   50.00000   50.00000   50.00000   90.00000   90.00000   90.00000
LATT -1
SFAC C  
C      1  0.5545550000000  0.4072020000000  0.4278510000000 1.0
C      1  0.4146290000000  0.4140260000000  0.5032770000000 1.0
C      1  0.5322790000000  0.4109330000000  0.5737420000000 1.0
C      1  0.4964650000000  0.4836080000000  0.4423380000000 1.0
C      1  0.4410480000000  0.4984710000000  0.5387150000000 1.0
C      1  0.5423020000000  0.4953560000000  0.5242330000000 1.0
C      1  0.5825590000000  0.5243210000000  0.5570310000000 1.0
C      1  0.5182850000000  0.5269090000000  0.4012790000000 1.0
C      1  0.4037360000000  0.5349080000000  0.5223360000000 1.0
C      1  0.5665130000000  0.5780060000000  0.5147900000000 1.0
C      1  0.4839230000000  0.5756880000000  0.4463470000000 1.0
C      1  0.4623780000000  0.5562390000000  0.5578880000000 1.0
C      1  0.5426740000000  0.4544160000000  0.4280750000000 1.0
C      1  0.4345800000000  0.4612290000000  0.5075380000000 1.0
C      1  0.5311150000000  0.4507890000000  0.5477800000000 1.0
C      1  0.5026670000000  0.5378960000000  0.5232750000000 1.0
C      1  0.5287450000000  0.5359590000000  0.4808130000000 1.0
C      1  0.4798290000000  0.5356210000000  0.4817970000000 1.0
C      1  0.3870350000000  0.4984110000000  0.4914010000000 1.0
C      1  0.5338360000000  0.5117200000000  0.5776570000000 1.0
C      1  0.5777460000000  0.5122030000000  0.4245050000000 1.0
C      1  0.4373000000000  0.4042380000000  0.4859290000000 1.0
C      1  0.5059590000000  0.4078860000000  0.5614850000000 1.0
C      1  0.5506270000000  0.4027220000000  0.4564980000000 1.0
C      1  0.5626880000000  0.4344350000000  0.4243410000000 1.0
C      1  0.4140980000000  0.4423720000000  0.4974880000000 1.0
C      1  0.5445280000000  0.4342240000000  0.5665030000000 1.0
C      1  0.5328580000000  0.5416820000000  0.5792810000000 1.0
C      1  0.5570130000000  0.5591450000000  0.4455400000000 1.0
C      1  0.4333390000000  0.5448600000000  0.4838410000000 1.0
C      1  0.4500070000000  0.4018120000000  0.5327670000000 1.0
C      1  0.5407610000000  0.3989180000000  0.5250710000000 1.0
C      1  0.5005840000000  0.3987350000000  0.4444540000000 1.0
C      1  0.4300080000000  0.5448230000000  0.5278450000000 1.0
C      1  0.5733330000000  0.5341010000000  0.5309410000000 1.0
C      1  0.5001890000000  0.5347140000000  0.4230610000000 1.0
C      1  0.5123450000000  0.4233750000000  0.4803630000000 1.0
C      1  0.4758860000000  0.4277830000000  0.5069940000000 1.0
C      1  0.5057750000000  0.4256490000000  0.5101150000000 1.0
C      1  0.5128330000000  0.4785610000000  0.3963760000000 1.0
C      1  0.3953510000000  0.4904030000000  0.5399240000000 1.0
C      1  0.5989290000000  0.4779140000000  0.5672510000000 1.0
C      1  0.4563510000000  0.4748010000000  0.4688500000000 1.0
C      1  0.4881650000000  0.4830030000000  0.5521620000000 1.0
C      1  0.5461700000000  0.4729090000000  0.4773410000000 1.0
C      1  0.5307150000000  0.5584430000000  0.4608840000000 1.0
C      1  0.4601110000000  0.5548420000000  0.4887420000000 1.0
C      1  0.5237590000000  0.5565490000000  0.5295590000000 1.0
C      1  0.6104290000000  0.5206250000000  0.5007510000000 1.0
C      1  0.4526370000000  0.5197460000000  0.4074230000000 1.0
C      1  0.4277090000000  0.5205990000000  0.6052470000000 1.0
C      1  0.4590590000000  0.4037040000000  0.5048070000000 1.0
C      1  0.5119560000000  0.4037630000000  0.5320440000000 1.0
C      1  0.5230810000000  0.4024090000000  0.4636970000000 1.0
C      1  0.4860840000000  0.5923740000000  0.4707680000000 1.0
C      1  0.4890460000000  0.5878810000000  0.5421720000000 1.0
C      1  0.5476700000000  0.5969080000000  0.5059940000000 1.0
C      1  0.5714970000000  0.5834740000000  0.4519190000000 1.0
C      1  0.4195100000000  0.5604550000000  0.4637910000000 1.0
C      1  0.5108780000000  0.5620500000000  0.5828180000000 1.0
C      1  0.4401110000000  0.5437960000000  0.5999250000000 1.0
C      1  0.5973200000000  0.5432670000000  0.5132010000000 1.0
C      1  0.4707100000000  0.5424110000000  0.4134060000000 1.0
C      1  0.5870800000000  0.4875340000000  0.4320300000000 1.0
C      1  0.3938230000000  0.4852320000000  0.4684830000000 1.0
C      1  0.5118570000000  0.4993350000000  0.5951960000000 1.0
C      1  0.5896500000000  0.5690000000000  0.5002840000000 1.0
C      1  0.4616640000000  0.5655620000000  0.4305990000000 1.0
C      1  0.4619830000000  0.5546600000000  0.5860150000000 1.0
C      1  0.4451430000000  0.5686510000000  0.5370590000000 1.0
C      1  0.5532930000000  0.5570960000000  0.5306110000000 1.0
C      1  0.5074350000000  0.5588410000000  0.4414940000000 1.0
C      1  0.4810960000000  0.4206370000000  0.4451810000000 1.0
C      1  0.4504580000000  0.4281080000000  0.5453590000000 1.0
C      1  0.5536860000000  0.4230920000000  0.5140140000000 1.0
C      1  0.5115340000000  0.5824740000000  0.5254670000000 1.0
C      1  0.5318990000000  0.5872830000000  0.4833700000000 1.0
C      1  0.4695890000000  0.5819210000000  0.4945590000000 1.0
C      1  0.5905430000000  0.5795920000000  0.4735090000000 1.0
C      1  0.4354970000000  0.5681550000000  0.4413420000000 1.0
C      1  0.4882560000000  0.5463510000000  0.5933930000000 1.0
C      1  0.5585330000000  0.5147390000000  0.5132190000000 1.0
C      1  0.4938480000000  0.5117930000000  0.4422500000000 1.0
C      1  0.4503490000000  0.5229890000000  0.5291740000000 1.0
C      1  0.5748610000000  0.5237160000000  0.4680540000000 1.0
C      1  0.4461220000000  0.5144110000000  0.4544610000000 1.0
C      1  0.4853750000000  0.5121560000000  0.5592300000000 1.0
C      1  0.5230000000000  0.5027610000000  0.3901900000000 1.0
C      1  0.3919050000000  0.5087750000000  0.5177920000000 1.0
C      1  0.5917940000000  0.5034760000000  0.5710240000000 1.0
C      1  0.4807450000000  0.4720710000000  0.5242680000000 1.0
C      1  0.5299110000000  0.4727490000000  0.5036250000000 1.0
C      1  0.4867310000000  0.4687980000000  0.4694120000000 1.0
C      1  0.5312010000000  0.6036460000000  0.5287950000000 1.0
C      1  0.5130410000000  0.6042740000000  0.4707080000000 1.0
C      1  0.4650600000000  0.5862820000000  0.5243180000000 1.0
C      1  0.4500520000000  0.4534590000000  0.4261310000000 1.0
C      1  0.4522430000000  0.4593600000000  0.5801310000000 1.0
C      1  0.5866770000000  0.4559810000000  0.4991360000000 1.0
C      1  0.4934700000000  0.4392100000000  0.4644330000000 1.0
C      1  0.4595690000000  0.4488790000000  0.5226410000000 1.0
C      1  0.5309930000000  0.4447590000000  0.5181630000000 1.0
C      1  0.5365020000000  0.4674430000000  0.4511650000000 1.0
C      1  0.4406900000000  0.4863720000000  0.4913910000000 1.0
C      1  0.5175700000000  0.4744430000000  0.5541170000000 1.0
C      1  0.5752300000000  0.4717730000000  0.4780260000000 1.0
C      1  0.4383940000000  0.4698800000000  0.4465160000000 1.0
C      1  0.4769150000000  0.4728750000000  0.5781240000000 1.0
C      1  0.4336300000000  0.5149280000000  0.4808410000000 1.0
C      1  0.5351170000000  0.4969240000000  0.5523710000000 1.0
C      1  0.5693170000000  0.5334160000000  0.4416890000000 1.0
C      1  0.5303490000000  0.6168600000000  0.4508020000000 1.0
C      1  0.3672720000000  0.5720310000000  0.4694110000000 1.0
C      1  0.5285330000000  0.6064940000000  0.5585460000000 1.0
C      1  0.4573310000000  0.4939210000000  0.3956020000000 1.0
C      1  0.4238740000000  0.4946630000000  0.5994240000000 1.0
C      1  0.6147290000000  0.4950170000000  0.5121790000000 1.0
C      1  0.4539020000000  0.4269780000000  0.4393780000000 1.0
C      1  0.4596310000000  0.4328050000000  0.5713040000000 1.0
C      1  0.5747200000000  0.4293320000000  0.4961420000000 1.0
C      1  0.4765420000000  0.5334460000000  0.5409180000000 1.0
C      1  0.5535980000000  0.5232440000000  0.4867060000000 1.0
C      1  0.4736120000000  0.5200380000000  0.4596360000000 1.0
C      1  0.4110920000000  0.4663980000000  0.4554460000000 1.0
C      1  0.4994410000000  0.4711390000000  0.5971090000000 1.0
C      1  0.5868800000000  0.4668840000000  0.4518480000000 1.0
C      1  0.4345920000000  0.5170780000000  0.4292740000000 1.0
C      1  0.4906450000000  0.5183400000000  0.5877690000000 1.0
C      1  0.6019120000000  0.5193130000000  0.4740550000000 1.0
C      1  0.3926840000000  0.5672650000000  0.4661610000000 1.0
C      1  0.5051110000000  0.5885240000000  0.5685210000000 1.0
C      1  0.5562290000000  0.6075970000000  0.4462130000000 1.0
C      1  0.4663220000000  0.4691310000000  0.4079550000000 1.0
C      1  0.4286690000000  0.4760050000000  0.5786040000000 1.0
C      1  0.6032540000000  0.4693480000000  0.5180680000000 1.0
C      1  0.5011360000000  0.4419810000000  0.5987560000000 1.0
C      1  0.5824730000000  0.4388230000000  0.4461460000000 1.0
C      1  0.4131160000000  0.4409380000000  0.4679660000000 1.0
C      1  0.4340280000000  0.4200420000000  0.4602760000000 1.0
C      1  0.4871270000000  0.4240580000000  0.5783270000000 1.0
C      1  0.5725370000000  0.4200420000000  0.4684980000000 1.0
C      1  0.6029010000000  0.4627040000000  0.5454480000000 1.0
C      1  0.4937870000000  0.4715940000000  0.4160810000000 1.0
C      1  0.4203570000000  0.4854230000000  0.5526470000000 1.0
C      1  0.4981630000000  0.4758100000000  0.4990670000000 1.0
C      1  0.5039610000000  0.5327150000000  0.4952450000000 1.0
END
