TITL C-74084-3399-316 -309.422955704845 125000 -1187.60005908044 0 0 194 (C1) n - 1
REM
REM in /home/nfs/bkarasulu/CARBON/AIRSS/Generating-Clusters/LCBOP/Higher-Symm/SD-CG/FIRE-CG
REM
REM
REM
REM
REM
REM ./C.cell (b20cbc046b6831c77cfcea5457e17084)
REM AIRSS Version 0.9.1 bugfix July 2018 build 013d7b7c2542+ Fri, 06 Jul 2018 19:26:36 +0100
REM compiler GCC version 9.2.1 20190827 (Red Hat 9.2.1-1)
REM options -cpp -mtune=generic -march=x86-64 -g -O0 -fpre-include=/usr/include/finclude/math-vector-fortran.h
REM seed -2063713768 -117805951 1214339755 472483196 -86059880 -1531047871 1550273627 -1768441332 997531942 771336455 1460983735 -1770092238 -551874928 -1515084987 1143899150 -374986659 -823356072 -1752712680 2102899166 545312630 -1074447423 223930295 -1422203337 -289035141 -870343763 1918811035 1521712613 1467491315 978148517 -246191460 1973831186 -807140621 1468646251
REM
CELL 1.54180   50.00000   50.00000   50.00000   90.00000   90.00000   90.00000
LATT -1
SFAC C  
C      1  0.3785600000000  0.5730810000000  0.5113140000000 1.0
C      1  0.6153520000000  0.4272370000000  0.5114620000000 1.0
C      1  0.5627030000000  0.5291630000000  0.3932600000000 1.0
C      1  0.4421570000000  0.4819530000000  0.3956860000000 1.0
C      1  0.5438540000000  0.5452690000000  0.4077490000000 1.0
C      1  0.4584140000000  0.4619620000000  0.4068770000000 1.0
C      1  0.5698060000000  0.5552630000000  0.5694570000000 1.0
C      1  0.4314220000000  0.4454600000000  0.5730110000000 1.0
C      1  0.5120100000000  0.4950650000000  0.3997700000000 1.0
C      1  0.4874890000000  0.5209470000000  0.4001180000000 1.0
C      1  0.4767330000000  0.5713940000000  0.4190110000000 1.0
C      1  0.5130100000000  0.4402670000000  0.4042800000000 1.0
C      1  0.5428100000000  0.4635390000000  0.6021110000000 1.0
C      1  0.4581400000000  0.5368850000000  0.5960540000000 1.0
C      1  0.5162570000000  0.5714920000000  0.4624880000000 1.0
C      1  0.4815880000000  0.4232730000000  0.4593260000000 1.0
C      1  0.4924450000000  0.4288510000000  0.5089780000000 1.0
C      1  0.4985860000000  0.5690590000000  0.5114970000000 1.0
C      1  0.5259260000000  0.5694000000000  0.5954130000000 1.0
C      1  0.4748480000000  0.4324490000000  0.5974090000000 1.0
C      1  0.4776920000000  0.5611230000000  0.4907850000000 1.0
C      1  0.5168770000000  0.4373070000000  0.4911910000000 1.0
C      1  0.5647410000000  0.4752120000000  0.5848830000000 1.0
C      1  0.4392190000000  0.5251920000000  0.5759860000000 1.0
C      1  0.3681250000000  0.4645000000000  0.5826570000000 1.0
C      1  0.6285410000000  0.5402130000000  0.5741760000000 1.0
C      1  0.6143810000000  0.4168420000000  0.4868820000000 1.0
C      1  0.3835460000000  0.5885330000000  0.4900930000000 1.0
C      1  0.5746560000000  0.5108570000000  0.4903910000000 1.0
C      1  0.4279760000000  0.4848070000000  0.4957040000000 1.0
C      1  0.5137170000000  0.6036610000000  0.4210660000000 1.0
C      1  0.4812010000000  0.4006400000000  0.4038940000000 1.0
C      1  0.3766660000000  0.4689000000000  0.5565460000000 1.0
C      1  0.6180270000000  0.5305870000000  0.5502130000000 1.0
C      1  0.4323210000000  0.3994730000000  0.4182590000000 1.0
C      1  0.5647060000000  0.5855040000000  0.4331940000000 1.0
C      1  0.3732520000000  0.4697880000000  0.5022510000000 1.0
C      1  0.6316840000000  0.5238250000000  0.5003870000000 1.0
C      1  0.3997790000000  0.4679450000000  0.4326540000000 1.0
C      1  0.5826740000000  0.5163150000000  0.4408790000000 1.0
C      1  0.5306210000000  0.4980150000000  0.3792560000000 1.0
C      1  0.4692620000000  0.5167120000000  0.3788450000000 1.0
C      1  0.5021250000000  0.6119820000000  0.5554890000000 1.0
C      1  0.4968120000000  0.3911110000000  0.5539850000000 1.0
C      1  0.5400530000000  0.5374350000000  0.4355310000000 1.0
C      1  0.4697080000000  0.4643270000000  0.4329540000000 1.0
C      1  0.5227880000000  0.5181370000000  0.5685740000000 1.0
C      1  0.4832060000000  0.4755060000000  0.5628350000000 1.0
C      1  0.5225490000000  0.4640870000000  0.4150880000000 1.0
C      1  0.4769620000000  0.5420100000000  0.4190950000000 1.0
C      1  0.4630190000000  0.3910160000000  0.5212770000000 1.0
C      1  0.5316480000000  0.6120820000000  0.5213680000000 1.0
C      1  0.3914340000000  0.5582590000000  0.5295750000000 1.0
C      1  0.6026310000000  0.4417800000000  0.5298490000000 1.0
C      1  0.5300650000000  0.6155090000000  0.5499400000000 1.0
C      1  0.4689720000000  0.3872670000000  0.5486280000000 1.0
C      1  0.5979050000000  0.4141030000000  0.4659510000000 1.0
C      1  0.4019620000000  0.5992720000000  0.4740890000000 1.0
C      1  0.4838030000000  0.5402660000000  0.5469810000000 1.0
C      1  0.5316400000000  0.4643680000000  0.5430360000000 1.0
C      1  0.5027710000000  0.5208700000000  0.5491150000000 1.0
C      1  0.5019690000000  0.4643250000000  0.5422800000000 1.0
C      1  0.4170050000000  0.5115550000000  0.4934190000000 1.0
C      1  0.5828270000000  0.4833000000000  0.4903730000000 1.0
C      1  0.5259260000000  0.4010960000000  0.4600090000000 1.0
C      1  0.4726210000000  0.5874830000000  0.4461170000000 1.0
C      1  0.5335000000000  0.4794940000000  0.6231340000000 1.0
C      1  0.4689740000000  0.5198980000000  0.6153120000000 1.0
C      1  0.3923740000000  0.4493800000000  0.5420140000000 1.0
C      1  0.6032700000000  0.5480820000000  0.5317050000000 1.0
C      1  0.4047830000000  0.5174380000000  0.3442620000000 1.0
C      1  0.5919370000000  0.4874830000000  0.3407150000000 1.0
C      1  0.4048350000000  0.4940770000000  0.4342930000000 1.0
C      1  0.5962190000000  0.4916500000000  0.4369280000000 1.0
C      1  0.5115300000000  0.5070940000000  0.5257700000000 1.0
C      1  0.4960830000000  0.4846850000000  0.5204940000000 1.0
C      1  0.4877110000000  0.5686170000000  0.4650530000000 1.0
C      1  0.5102810000000  0.4245190000000  0.4653470000000 1.0
C      1  0.5237440000000  0.5533050000000  0.5082110000000 1.0
C      1  0.4668300000000  0.4435740000000  0.5020060000000 1.0
C      1  0.4502620000000  0.5526050000000  0.4962310000000 1.0
C      1  0.5433710000000  0.4487430000000  0.4993520000000 1.0
C      1  0.5404160000000  0.5075440000000  0.5250770000000 1.0
C      1  0.4677730000000  0.4901580000000  0.5203440000000 1.0
C      1  0.4639420000000  0.4496450000000  0.6177000000000 1.0
C      1  0.5389180000000  0.5552240000000  0.6169930000000 1.0
C      1  0.5508200000000  0.3944320000000  0.5010150000000 1.0
C      1  0.4723890000000  0.6124910000000  0.4888510000000 1.0
C      1  0.5097610000000  0.5973670000000  0.5111770000000 1.0
C      1  0.4826250000000  0.4004310000000  0.5021430000000 1.0
C      1  0.5256440000000  0.5719030000000  0.3663470000000 1.0
C      1  0.4587650000000  0.4409730000000  0.3625990000000 1.0
C      1  0.4688910000000  0.5630730000000  0.5880650000000 1.0
C      1  0.5306630000000  0.4387460000000  0.5911120000000 1.0
C      1  0.5491620000000  0.5160190000000  0.4995560000000 1.0
C      1  0.4561540000000  0.4853230000000  0.4949150000000 1.0
C      1  0.4445950000000  0.5033120000000  0.3776210000000 1.0
C      1  0.5566970000000  0.5078570000000  0.3758900000000 1.0
C      1  0.4656930000000  0.6097200000000  0.5192660000000 1.0
C      1  0.5409330000000  0.3961160000000  0.5282260000000 1.0
C      1  0.5543070000000  0.5135400000000  0.4401780000000 1.0
C      1  0.4849230000000  0.4869510000000  0.4393200000000 1.0
C      1  0.6096630000000  0.4804680000000  0.4996370000000 1.0
C      1  0.3901830000000  0.5143050000000  0.5020120000000 1.0
C      1  0.4806190000000  0.4962520000000  0.6107810000000 1.0
C      1  0.5250040000000  0.5046980000000  0.6194060000000 1.0
C      1  0.5704430000000  0.5905250000000  0.5361620000000 1.0
C      1  0.4252200000000  0.4088740000000  0.5432410000000 1.0
C      1  0.4525790000000  0.4249350000000  0.5794340000000 1.0
C      1  0.5483540000000  0.5756030000000  0.5766140000000 1.0
C      1  0.5303610000000  0.5621740000000  0.3901830000000 1.0
C      1  0.4685420000000  0.4431920000000  0.3880190000000 1.0
C      1  0.4967490000000  0.5847420000000  0.5604390000000 1.0
C      1  0.5001600000000  0.4186940000000  0.5599210000000 1.0
C      1  0.4547530000000  0.6023210000000  0.4671490000000 1.0
C      1  0.5512090000000  0.4024100000000  0.4729430000000 1.0
C      1  0.4668920000000  0.4625990000000  0.4809780000000 1.0
C      1  0.5337910000000  0.5367210000000  0.4871830000000 1.0
C      1  0.5471850000000  0.5091420000000  0.5541240000000 1.0
C      1  0.4601550000000  0.4886410000000  0.5491480000000 1.0
C      1  0.4501350000000  0.5721530000000  0.5649620000000 1.0
C      1  0.5517310000000  0.4293140000000  0.5716010000000 1.0
C      1  0.5516080000000  0.5984150000000  0.5592320000000 1.0
C      1  0.4479880000000  0.4018270000000  0.5623920000000 1.0
C      1  0.3724250000000  0.4958780000000  0.5140480000000 1.0
C      1  0.6270770000000  0.4983950000000  0.5132040000000 1.0
C      1  0.4839050000000  0.3753910000000  0.4598350000000 1.0
C      1  0.5029510000000  0.6153450000000  0.4704840000000 1.0
C      1  0.4132660000000  0.4340520000000  0.5534390000000 1.0
C      1  0.5833530000000  0.5648400000000  0.5441540000000 1.0
C      1  0.4270150000000  0.6037840000000  0.4663450000000 1.0
C      1  0.5707570000000  0.4202300000000  0.4604080000000 1.0
C      1  0.5201930000000  0.5175030000000  0.5962180000000 1.0
C      1  0.4877190000000  0.4812810000000  0.5897080000000 1.0
C      1  0.3934790000000  0.4533400000000  0.5134540000000 1.0
C      1  0.6092620000000  0.5420310000000  0.5034020000000 1.0
C      1  0.5472950000000  0.4195320000000  0.5435720000000 1.0
C      1  0.4507610000000  0.5872750000000  0.5325990000000 1.0
C      1  0.4901730000000  0.5663150000000  0.5397320000000 1.0
C      1  0.4966240000000  0.4357610000000  0.5376330000000 1.0
C      1  0.5307430000000  0.5478110000000  0.4607010000000 1.0
C      1  0.4686520000000  0.4484340000000  0.4560370000000 1.0
C      1  0.4655990000000  0.5301930000000  0.4428270000000 1.0
C      1  0.5398180000000  0.4650390000000  0.4375700000000 1.0
C      1  0.5900760000000  0.5347040000000  0.4835710000000 1.0
C      1  0.4196130000000  0.4574220000000  0.5034770000000 1.0
C      1  0.5401780000000  0.5550620000000  0.5300160000000 1.0
C      1  0.4399190000000  0.4367330000000  0.5084450000000 1.0
C      1  0.4389330000000  0.3977220000000  0.4822970000000 1.0
C      1  0.5527260000000  0.5991000000000  0.4841350000000 1.0
C      1  0.5747770000000  0.4975030000000  0.3575780000000 1.0
C      1  0.4242700000000  0.5106580000000  0.3601830000000 1.0
C      1  0.4375920000000  0.5662760000000  0.5177900000000 1.0
C      1  0.5514810000000  0.4464850000000  0.5282610000000 1.0
C      1  0.6240660000000  0.5041470000000  0.5410290000000 1.0
C      1  0.3698690000000  0.4929040000000  0.5423160000000 1.0
C      1  0.4183420000000  0.5530880000000  0.5350930000000 1.0
C      1  0.5792600000000  0.4527740000000  0.5403740000000 1.0
C      1  0.5420730000000  0.5986950000000  0.4246210000000 1.0
C      1  0.4568690000000  0.3916700000000  0.4110760000000 1.0
C      1  0.4140990000000  0.4178690000000  0.4246740000000 1.0
C      1  0.5813850000000  0.5665730000000  0.4442220000000 1.0
C      1  0.5711210000000  0.5313520000000  0.5870650000000 1.0
C      1  0.4333990000000  0.4719080000000  0.5854660000000 1.0
C      1  0.4310300000000  0.5485600000000  0.5603170000000 1.0
C      1  0.5726620000000  0.4520010000000  0.5689040000000 1.0
C      1  0.5663530000000  0.5036440000000  0.5754420000000 1.0
C      1  0.4401650000000  0.4961810000000  0.5689580000000 1.0
C      1  0.4187690000000  0.5163800000000  0.4389170000000 1.0
C      1  0.5891880000000  0.4655180000000  0.4401890000000 1.0
C      1  0.4390470000000  0.5297300000000  0.4532650000000 1.0
C      1  0.5652300000000  0.4501900000000  0.4533220000000 1.0
C      1  0.4693090000000  0.3981940000000  0.4730450000000 1.0
C      1  0.5267070000000  0.5970630000000  0.4721090000000 1.0
C      1  0.5893500000000  0.5409030000000  0.4553770000000 1.0
C      1  0.4032350000000  0.4416810000000  0.4297100000000 1.0
C      1  0.5633630000000  0.4622280000000  0.4826340000000 1.0
C      1  0.4347750000000  0.5324080000000  0.4818060000000 1.0
C      1  0.5577190000000  0.6021010000000  0.5120920000000 1.0
C      1  0.4366840000000  0.4064930000000  0.5135390000000 1.0
C      1  0.6381580000000  0.5496970000000  0.5964630000000 1.0
C      1  0.3620480000000  0.4599610000000  0.6075890000000 1.0
C      1  0.5406070000000  0.4910380000000  0.4480070000000 1.0
C      1  0.4823720000000  0.5099240000000  0.4524150000000 1.0
C      1  0.4974750000000  0.5725700000000  0.5865200000000 1.0
C      1  0.5026140000000  0.4297270000000  0.5864720000000 1.0
C      1  0.5106280000000  0.3779160000000  0.4540910000000 1.0
C      1  0.4953110000000  0.6111100000000  0.4426990000000 1.0
C      1  0.4820310000000  0.6241950000000  0.5386990000000 1.0
C      1  0.5193830000000  0.3807160000000  0.5396120000000 1.0
C      1  0.5608290000000  0.5387570000000  0.6131230000000 1.0
C      1  0.4435950000000  0.4675990000000  0.6122510000000 1.0
C      1  0.4962630000000  0.5873310000000  0.4044750000000 1.0
C      1  0.4897140000000  0.4265340000000  0.3970910000000 1.0
END
