TITL C-74084-3399-252 4.85550139363789e-08 125000 -1180.83547954148 0 0 194 (C1) n - 1
REM
REM in /home/nfs/bkarasulu/CARBON/AIRSS/Generating-Clusters/LCBOP/Higher-Symm/SD-CG/FIRE-CG
REM
REM
REM
REM
REM
REM ./C.cell (b20cbc046b6831c77cfcea5457e17084)
REM AIRSS Version 0.9.1 bugfix July 2018 build 013d7b7c2542+ Fri, 06 Jul 2018 19:26:36 +0100
REM compiler GCC version 9.2.1 20190827 (Red Hat 9.2.1-1)
REM options -cpp -mtune=generic -march=x86-64 -g -O0 -fpre-include=/usr/include/finclude/math-vector-fortran.h
REM seed -1762534667 1327808248 -421522588 1646168622 870966592 -431590287 -1297127562 1086037249 -1569549067 1752464388 1967392907 -955326284 1682913221 2087113474 107178391 662800586 -815914628 1087891373 -628470023 664621503 1115544585 1223040101 -899135104 518805383 -794989098 1109712693 886644435 -1040400489 -595555810 826880411 -117085452 -899466920 -850741833
REM
CELL 1.54180   50.00000   50.00000   50.00000   90.00000   90.00000   90.00000
LATT -1
SFAC C  
C      1  0.5538990000000  0.3959070000000  0.4487950000000 1.0
C      1  0.4490820000000  0.3962010000000  0.5566960000000 1.0
C      1  0.5622570000000  0.3935270000000  0.5566940000000 1.0
C      1  0.4506540000000  0.3959230000000  0.4427220000000 1.0
C      1  0.4294570000000  0.5700450000000  0.5775100000000 1.0
C      1  0.5540000000000  0.5341150000000  0.4179380000000 1.0
C      1  0.4284840000000  0.5667660000000  0.4191310000000 1.0
C      1  0.5562210000000  0.5337200000000  0.5845040000000 1.0
C      1  0.4294750000000  0.3866340000000  0.4843470000000 1.0
C      1  0.5866550000000  0.3977320000000  0.5157750000000 1.0
C      1  0.4281230000000  0.3870750000000  0.5148920000000 1.0
C      1  0.5872010000000  0.3995170000000  0.4862300000000 1.0
C      1  0.5244460000000  0.4528430000000  0.5860680000000 1.0
C      1  0.4698600000000  0.4470100000000  0.4169330000000 1.0
C      1  0.5238390000000  0.4526560000000  0.4159680000000 1.0
C      1  0.4696650000000  0.4460680000000  0.5849290000000 1.0
C      1  0.4704970000000  0.4493740000000  0.5565910000000 1.0
C      1  0.5213300000000  0.4675100000000  0.4405380000000 1.0
C      1  0.4712400000000  0.4506700000000  0.4450540000000 1.0
C      1  0.5212280000000  0.4682670000000  0.5617650000000 1.0
C      1  0.4733710000000  0.4754350000000  0.5143770000000 1.0
C      1  0.5255530000000  0.4748640000000  0.4884220000000 1.0
C      1  0.4727080000000  0.4756250000000  0.4879570000000 1.0
C      1  0.5259580000000  0.4722100000000  0.5146520000000 1.0
C      1  0.4401500000000  0.4488020000000  0.5907900000000 1.0
C      1  0.5536950000000  0.4541940000000  0.4099500000000 1.0
C      1  0.4408850000000  0.4490480000000  0.4096870000000 1.0
C      1  0.5547690000000  0.4546840000000  0.5910990000000 1.0
C      1  0.5987630000000  0.6057910000000  0.5324290000000 1.0
C      1  0.4294770000000  0.6492060000000  0.4686540000000 1.0
C      1  0.5976590000000  0.6081950000000  0.4690960000000 1.0
C      1  0.4277740000000  0.6486670000000  0.5314930000000 1.0
C      1  0.5131030000000  0.4557790000000  0.5356130000000 1.0
C      1  0.4840570000000  0.4614130000000  0.4670060000000 1.0
C      1  0.5134980000000  0.4574420000000  0.4675280000000 1.0
C      1  0.4838750000000  0.4606180000000  0.5353080000000 1.0
C      1  0.5508110000000  0.5586500000000  0.6010510000000 1.0
C      1  0.4476880000000  0.5811390000000  0.4014460000000 1.0
C      1  0.5491160000000  0.5600990000000  0.4027210000000 1.0
C      1  0.4497970000000  0.5813930000000  0.5946020000000 1.0
C      1  0.5766410000000  0.4120230000000  0.4391460000000 1.0
C      1  0.4227890000000  0.4060360000000  0.5617560000000 1.0
C      1  0.5817620000000  0.4141960000000  0.5624920000000 1.0
C      1  0.4242720000000  0.4057510000000  0.4378060000000 1.0
C      1  0.4740280000000  0.5352170000000  0.4724180000000 1.0
C      1  0.5053690000000  0.5353240000000  0.5312960000000 1.0
C      1  0.4755710000000  0.5392190000000  0.5324510000000 1.0
C      1  0.5035580000000  0.5311730000000  0.4726020000000 1.0
C      1  0.4577900000000  0.3966320000000  0.4718860000000 1.0
C      1  0.5573630000000  0.3921270000000  0.5271360000000 1.0
C      1  0.4556560000000  0.3966110000000  0.5276180000000 1.0
C      1  0.5587010000000  0.3992750000000  0.4786640000000 1.0
C      1  0.4559460000000  0.4240110000000  0.5135530000000 1.0
C      1  0.5448770000000  0.4220800000000  0.4902790000000 1.0
C      1  0.4569300000000  0.4241010000000  0.4863480000000 1.0
C      1  0.5437870000000  0.4186460000000  0.5189300000000 1.0
C      1  0.5592390000000  0.4883200000000  0.4567800000000 1.0
C      1  0.4371480000000  0.4869480000000  0.5415630000000 1.0
C      1  0.5594270000000  0.4878000000000  0.5437950000000 1.0
C      1  0.4362410000000  0.4852830000000  0.4574750000000 1.0
C      1  0.5186430000000  0.4265170000000  0.5299410000000 1.0
C      1  0.5010600000000  0.4114740000000  0.4873240000000 1.0
C      1  0.5205890000000  0.4298000000000  0.4773710000000 1.0
C      1  0.4998480000000  0.4095320000000  0.5159480000000 1.0
C      1  0.4878460000000  0.3920790000000  0.4711430000000 1.0
C      1  0.5429470000000  0.3687800000000  0.5147610000000 1.0
C      1  0.4839380000000  0.3884750000000  0.5260240000000 1.0
C      1  0.5427440000000  0.3688700000000  0.4871980000000 1.0
C      1  0.4496530000000  0.6200360000000  0.5621640000000 1.0
C      1  0.5647430000000  0.5946420000000  0.4383390000000 1.0
C      1  0.4477430000000  0.6187590000000  0.4373220000000 1.0
C      1  0.5635570000000  0.5957020000000  0.5621280000000 1.0
C      1  0.5789500000000  0.4729840000000  0.5335880000000 1.0
C      1  0.4198680000000  0.4658390000000  0.4652870000000 1.0
C      1  0.5792200000000  0.4731190000000  0.4651310000000 1.0
C      1  0.4209380000000  0.4674850000000  0.5330990000000 1.0
C      1  0.5065910000000  0.4870350000000  0.3775000000000 1.0
C      1  0.4792600000000  0.4883290000000  0.6231400000000 1.0
C      1  0.5064610000000  0.4864220000000  0.6232800000000 1.0
C      1  0.4793690000000  0.4883510000000  0.3772890000000 1.0
C      1  0.4663510000000  0.5610840000000  0.5155480000000 1.0
C      1  0.5184840000000  0.5527550000000  0.4870330000000 1.0
C      1  0.4653830000000  0.5588950000000  0.4878610000000 1.0
C      1  0.5195800000000  0.5561740000000  0.5150000000000 1.0
C      1  0.6062450000000  0.5062890000000  0.5646850000000 1.0
C      1  0.3849850000000  0.4939630000000  0.4343870000000 1.0
C      1  0.6058510000000  0.5070030000000  0.4340150000000 1.0
C      1  0.3853000000000  0.4942750000000  0.5639430000000 1.0
C      1  0.4863740000000  0.5665910000000  0.5757230000000 1.0
C      1  0.5094430000000  0.5658960000000  0.4219070000000 1.0
C      1  0.4827350000000  0.5664490000000  0.4235300000000 1.0
C      1  0.5124610000000  0.5649950000000  0.5814680000000 1.0
C      1  0.5994690000000  0.4125130000000  0.5383470000000 1.0
C      1  0.4103070000000  0.3975790000000  0.4628800000000 1.0
C      1  0.5982550000000  0.4111070000000  0.4612390000000 1.0
C      1  0.4088910000000  0.3977970000000  0.5364960000000 1.0
C      1  0.5221000000000  0.5185570000000  0.4540280000000 1.0
C      1  0.4544430000000  0.5312050000000  0.5506260000000 1.0
C      1  0.5247380000000  0.5206340000000  0.5473590000000 1.0
C      1  0.4536310000000  0.5292480000000  0.4519550000000 1.0
C      1  0.5074620000000  0.5332360000000  0.3877430000000 1.0
C      1  0.4780040000000  0.5342680000000  0.6092070000000 1.0
C      1  0.5077440000000  0.5325420000000  0.6137860000000 1.0
C      1  0.4776970000000  0.5345670000000  0.3894210000000 1.0
C      1  0.4630790000000  0.6074440000000  0.5854380000000 1.0
C      1  0.5487120000000  0.5892320000000  0.4144360000000 1.0
C      1  0.4613670000000  0.6067780000000  0.4135890000000 1.0
C      1  0.5489550000000  0.5917250000000  0.5870600000000 1.0
C      1  0.5337340000000  0.4943960000000  0.4408020000000 1.0
C      1  0.4493970000000  0.5050420000000  0.5594440000000 1.0
C      1  0.5343610000000  0.4950580000000  0.5604790000000 1.0
C      1  0.4477200000000  0.5046350000000  0.4405540000000 1.0
C      1  0.5903340000000  0.6076830000000  0.4423620000000 1.0
C      1  0.4359650000000  0.6453200000000  0.5578760000000 1.0
C      1  0.5905730000000  0.6059900000000  0.5588910000000 1.0
C      1  0.4366270000000  0.6452430000000  0.4420740000000 1.0
C      1  0.4350340000000  0.6261030000000  0.4856860000000 1.0
C      1  0.5782270000000  0.5958260000000  0.5145550000000 1.0
C      1  0.4352520000000  0.6262990000000  0.5142290000000 1.0
C      1  0.5777770000000  0.5958220000000  0.4864180000000 1.0
C      1  0.5445650000000  0.5044840000000  0.5902990000000 1.0
C      1  0.4473330000000  0.4983850000000  0.4124430000000 1.0
C      1  0.5438390000000  0.5042760000000  0.4110890000000 1.0
C      1  0.4479180000000  0.4979060000000  0.5872720000000 1.0
C      1  0.4883670000000  0.6040350000000  0.5105510000000 1.0
C      1  0.5131980000000  0.5998330000000  0.4748810000000 1.0
C      1  0.4871440000000  0.6007590000000  0.4819070000000 1.0
C      1  0.5154000000000  0.6039860000000  0.5149460000000 1.0
C      1  0.6139550000000  0.5001100000000  0.4842830000000 1.0
C      1  0.3804180000000  0.4845900000000  0.5137870000000 1.0
C      1  0.6136140000000  0.4998840000000  0.5138250000000 1.0
C      1  0.3799330000000  0.4842680000000  0.4844910000000 1.0
C      1  0.5309270000000  0.5821320000000  0.5225290000000 1.0
C      1  0.4651220000000  0.5845850000000  0.4709250000000 1.0
C      1  0.5292050000000  0.5762100000000  0.4698560000000 1.0
C      1  0.4694950000000  0.5887520000000  0.5273420000000 1.0
C      1  0.4230880000000  0.4273230000000  0.5808190000000 1.0
C      1  0.5702440000000  0.4326340000000  0.4202090000000 1.0
C      1  0.4241480000000  0.4271810000000  0.4190150000000 1.0
C      1  0.5726630000000  0.4344350000000  0.5804180000000 1.0
C      1  0.6045240000000  0.4731950000000  0.5224200000000 1.0
C      1  0.3942750000000  0.4602620000000  0.4749860000000 1.0
C      1  0.6052680000000  0.4735730000000  0.4749350000000 1.0
C      1  0.3955250000000  0.4609830000000  0.5232760000000 1.0
C      1  0.5914360000000  0.4919580000000  0.4161210000000 1.0
C      1  0.4020860000000  0.4829860000000  0.5823100000000 1.0
C      1  0.5920200000000  0.4920080000000  0.5833690000000 1.0
C      1  0.4018090000000  0.4825000000000  0.4161590000000 1.0
C      1  0.4288700000000  0.4760490000000  0.4080040000000 1.0
C      1  0.5662880000000  0.4826050000000  0.5937200000000 1.0
C      1  0.4288330000000  0.4761370000000  0.5911680000000 1.0
C      1  0.5653910000000  0.4822350000000  0.4070880000000 1.0
C      1  0.3858900000000  0.4354190000000  0.4854280000000 1.0
C      1  0.6185740000000  0.4504690000000  0.5127050000000 1.0
C      1  0.3862700000000  0.4359630000000  0.5137480000000 1.0
C      1  0.6187270000000  0.4504660000000  0.4842070000000 1.0
C      1  0.6140140000000  0.5147840000000  0.4592620000000 1.0
C      1  0.3761770000000  0.4990240000000  0.5384220000000 1.0
C      1  0.6140780000000  0.5138820000000  0.5392700000000 1.0
C      1  0.3759580000000  0.4988400000000  0.4599070000000 1.0
C      1  0.5261660000000  0.5634690000000  0.4436530000000 1.0
C      1  0.4806010000000  0.5816070000000  0.5534920000000 1.0
C      1  0.5300660000000  0.5634210000000  0.5603720000000 1.0
C      1  0.4655490000000  0.5714480000000  0.4446300000000 1.0
C      1  0.4479530000000  0.6079390000000  0.5340280000000 1.0
C      1  0.5573990000000  0.5867700000000  0.4670810000000 1.0
C      1  0.4451630000000  0.6065230000000  0.4655210000000 1.0
C      1  0.5561790000000  0.5889240000000  0.5331920000000 1.0
C      1  0.3875110000000  0.4116900000000  0.4709990000000 1.0
C      1  0.6206280000000  0.4290850000000  0.5305000000000 1.0
C      1  0.3864340000000  0.4125240000000  0.5286300000000 1.0
C      1  0.6194610000000  0.4288710000000  0.4662790000000 1.0
C      1  0.5217300000000  0.6069100000000  0.5915760000000 1.0
C      1  0.4925270000000  0.6107420000000  0.4097220000000 1.0
C      1  0.5208090000000  0.6060510000000  0.4098240000000 1.0
C      1  0.4935940000000  0.6117040000000  0.5910160000000 1.0
C      1  0.5397320000000  0.5389150000000  0.4431460000000 1.0
C      1  0.4348370000000  0.5505040000000  0.5592690000000 1.0
C      1  0.5445360000000  0.5395990000000  0.5580960000000 1.0
C      1  0.4422260000000  0.5535650000000  0.4410790000000 1.0
C      1  0.4965060000000  0.3644690000000  0.5328430000000 1.0
C      1  0.5332320000000  0.3761470000000  0.4518530000000 1.0
C      1  0.5053260000000  0.3776870000000  0.4537830000000 1.0
C      1  0.5219470000000  0.3565640000000  0.5290210000000 1.0
C      1  0.4688050000000  0.5602860000000  0.3989820000000 1.0
C      1  0.5224290000000  0.5552630000000  0.6062040000000 1.0
C      1  0.4693270000000  0.5594980000000  0.5973100000000 1.0
C      1  0.5204890000000  0.5564510000000  0.3970050000000 1.0
C      1  0.4649130000000  0.5083600000000  0.3919630000000 1.0
C      1  0.5216850000000  0.5069950000000  0.6111370000000 1.0
C      1  0.4651460000000  0.5080330000000  0.6077700000000 1.0
C      1  0.5214020000000  0.5076940000000  0.3900460000000 1.0
C      1  0.4974550000000  0.4441490000000  0.5955640000000 1.0
C      1  0.4972160000000  0.4445980000000  0.4060110000000 1.0
END
