TITL C-74082-2733-432 -2.55320547303609e-07 125000 -146.286751460985 0 0 24 (D6h) n - 1
REM
REM in /home/nfs/bkarasulu/CARBON/AIRSS/Generating-Clusters/LCBOP/Higher-Symm/SD-CG/FIRE-CG
REM
REM
REM
REM
REM
REM ./C.cell (b20cbc046b6831c77cfcea5457e17084)
REM AIRSS Version 0.9.1 bugfix July 2018 build 013d7b7c2542+ Fri, 06 Jul 2018 19:26:36 +0100
REM compiler GCC version 9.2.1 20190827 (Red Hat 9.2.1-1)
REM options -cpp -mtune=generic -march=x86-64 -g -O0 -fpre-include=/usr/include/finclude/math-vector-fortran.h
REM seed -253283522 70075225 -727741405 304983869 -260296432 1974373217 -1387720949 -575061845 614594725 -1469921827 1590705415 947654275 1888388702 -594864984 1949077388 -1014895788 -1360632264 -738300026 -860179377 964063941 -1121360178 1241595284 -807788182 -1646090507 1924103265 -899915002 920783027 1730091692 918908215 -431621530 10875509 808518249 182010745
REM
CELL 1.54180   50.00000   50.00000   50.00000   90.00000   90.00000   90.00000
LATT -1
SFAC C  
C      1  0.4863630000000  0.4475680000000  0.4999970000000 1.0
C      1  0.4863690000000  0.4737780000000  0.5454070000000 1.0
C      1  0.4863650000000  0.5262100000000  0.5454120000000 1.0
C      1  0.4863550000000  0.5524300000000  0.5000080000000 1.0
C      1  0.4863490000000  0.5262200000000  0.4545980000000 1.0
C      1  0.4863530000000  0.4737880000000  0.4545930000000 1.0
C      1  0.5136450000000  0.4475700000000  0.4999920000000 1.0
C      1  0.5136350000000  0.4737900000000  0.4545880000000 1.0
C      1  0.5136310000000  0.5262220000000  0.4545930000000 1.0
C      1  0.5136370000000  0.5524320000000  0.5000030000000 1.0
C      1  0.5136470000000  0.5262120000000  0.5454070000000 1.0
C      1  0.5136510000000  0.4737800000000  0.5454020000000 1.0
C      1  0.5299240000000  0.5287850000000  0.4999980000000 1.0
C      1  0.5299200000000  0.5143960000000  0.4750700000000 1.0
C      1  0.5299220000000  0.4856140000000  0.4750670000000 1.0
C      1  0.5299280000000  0.4712200000000  0.4999920000000 1.0
C      1  0.5299310000000  0.4856080000000  0.5249200000000 1.0
C      1  0.5299290000000  0.5143910000000  0.5249230000000 1.0
C      1  0.4700720000000  0.5287800000000  0.5000080000000 1.0
C      1  0.4700780000000  0.5143860000000  0.5249330000000 1.0
C      1  0.4700800000000  0.4856040000000  0.5249300000000 1.0
C      1  0.4700760000000  0.4712150000000  0.5000020000000 1.0
C      1  0.4700710000000  0.4856090000000  0.4750770000000 1.0
C      1  0.4700690000000  0.5143920000000  0.4750800000000 1.0
END
