TITL C-74079-2735-70 47350.9753708013 125000 -995.797322949895 0 0 165 (C1) n - 1
REM
REM in /home/nfs/bkarasulu/CARBON/AIRSS/Generating-Clusters/LCBOP/Higher-Symm/SD-CG/FIRE-CG
REM
REM
REM
REM
REM
REM ./C.cell (b20cbc046b6831c77cfcea5457e17084)
REM AIRSS Version 0.9.1 bugfix July 2018 build 013d7b7c2542+ Fri, 06 Jul 2018 19:26:36 +0100
REM compiler GCC version 9.2.1 20190827 (Red Hat 9.2.1-1)
REM options -cpp -mtune=generic -march=x86-64 -g -O0 -fpre-include=/usr/include/finclude/math-vector-fortran.h
REM seed -58149395 -2125847685 1917913367 2013146908 -1484718706 -332087523 -1003575543 1534225506 246641676 -213212065 717264561 1571410261 -344094380 -1767032498 -237725672 1770691311 -155433682 -1367432719 1792790051 2036257043 1183586728 -1174432284 1681226519 2087664667 1910844026 1391213513 -1625908415 723725072 -738021558 877655218 -738039723 -854513964 -1329918547
REM
CELL 1.54180   50.00000   50.00000   50.00000   90.00000   90.00000   90.00000
LATT -1
SFAC C  
C      1  0.5231590000000  0.3889640000000  0.5865150000000 1.0
C      1  0.4960830000000  0.3853310000000  0.5834930000000 1.0
C      1  0.4344530000000  0.5416680000000  0.4751930000000 1.0
C      1  0.5875420000000  0.5607770000000  0.4660270000000 1.0
C      1  0.4741980000000  0.4808500000000  0.3867430000000 1.0
C      1  0.5250250000000  0.4880170000000  0.3765580000000 1.0
C      1  0.5125660000000  0.4623550000000  0.5458980000000 1.0
C      1  0.4843150000000  0.4613560000000  0.5433280000000 1.0
C      1  0.6039280000000  0.4332120000000  0.4793630000000 1.0
C      1  0.4197930000000  0.4162740000000  0.4515570000000 1.0
C      1  0.5896840000000  0.4912410000000  0.4983000000000 1.0
C      1  0.4224060000000  0.4702660000000  0.4866850000000 1.0
C      1  0.4095050000000  0.5377380000000  0.5153820000000 1.0
C      1  0.5699810000000  0.5490830000000  0.5081730000000 1.0
C      1  0.4723520000000  0.4462540000000  0.5189600000000 1.0
C      1  0.5289850000000  0.4564670000000  0.5238810000000 1.0
C      1  0.4698840000000  0.4338940000000  0.6020780000000 1.0
C      1  0.5416860000000  0.4428270000000  0.6056140000000 1.0
C      1  0.5186370000000  0.5945680000000  0.4627790000000 1.0
C      1  0.4883720000000  0.5907060000000  0.4681170000000 1.0
C      1  0.5110950000000  0.3689800000000  0.4844360000000 1.0
C      1  0.5362340000000  0.3754450000000  0.4911090000000 1.0
C      1  0.4468910000000  0.4815470000000  0.4461810000000 1.0
C      1  0.5632060000000  0.4879060000000  0.4563340000000 1.0
C      1  0.5784580000000  0.4693380000000  0.5482730000000 1.0
C      1  0.4434560000000  0.4429340000000  0.5286040000000 1.0
C      1  0.4954880000000  0.4088210000000  0.5422850000000 1.0
C      1  0.5242910000000  0.4105840000000  0.5448740000000 1.0
C      1  0.5484510000000  0.6051210000000  0.5058020000000 1.0
C      1  0.4583550000000  0.5971450000000  0.5138770000000 1.0
C      1  0.4339680000000  0.5314800000000  0.5240270000000 1.0
C      1  0.5444470000000  0.5476910000000  0.5027900000000 1.0
C      1  0.4998270000000  0.4512710000000  0.4220740000000 1.0
C      1  0.5275890000000  0.4509290000000  0.4141170000000 1.0
C      1  0.5362920000000  0.4088890000000  0.5708330000000 1.0
C      1  0.4810200000000  0.4025110000000  0.5661500000000 1.0
C      1  0.4378200000000  0.5648260000000  0.5813240000000 1.0
C      1  0.5455290000000  0.5709950000000  0.5739800000000 1.0
C      1  0.4818290000000  0.5077260000000  0.3823630000000 1.0
C      1  0.5091660000000  0.5121090000000  0.3747900000000 1.0
C      1  0.4251360000000  0.4452860000000  0.3329580000000 1.0
C      1  0.4100880000000  0.4634670000000  0.3450300000000 1.0
C      1  0.5382920000000  0.5498390000000  0.4527140000000 1.0
C      1  0.5532050000000  0.5474110000000  0.4305690000000 1.0
C      1  0.3874090000000  0.4969020000000  0.3789320000000 1.0
C      1  0.5664890000000  0.4712380000000  0.3936220000000 1.0
C      1  0.4903030000000  0.5071410000000  0.4464210000000 1.0
C      1  0.5164860000000  0.4979090000000  0.4381100000000 1.0
C      1  0.5179570000000  0.5370040000000  0.6303540000000 1.0
C      1  0.4775970000000  0.5334540000000  0.6007390000000 1.0
C      1  0.5445390000000  0.5940450000000  0.4790620000000 1.0
C      1  0.4682510000000  0.5835140000000  0.4896690000000 1.0
C      1  0.3859430000000  0.5199970000000  0.4259170000000 1.0
C      1  0.5807220000000  0.4972300000000  0.4355570000000 1.0
C      1  0.4150340000000  0.5214300000000  0.4707310000000 1.0
C      1  0.5976540000000  0.5333740000000  0.4668280000000 1.0
C      1  0.4614080000000  0.5365600000000  0.5290420000000 1.0
C      1  0.5203080000000  0.5502660000000  0.5167380000000 1.0
C      1  0.4860910000000  0.3778450000000  0.4879510000000 1.0
C      1  0.5487410000000  0.3949510000000  0.5045770000000 1.0
C      1  0.5295970000000  0.4923980000000  0.6116030000000 1.0
C      1  0.4642990000000  0.4858080000000  0.6065730000000 1.0
C      1  0.4740570000000  0.5260690000000  0.5729430000000 1.0
C      1  0.5004650000000  0.5255250000000  0.5623590000000 1.0
C      1  0.4405570000000  0.4271000000000  0.3224170000000 1.0
C      1  0.3969890000000  0.4809030000000  0.3600920000000 1.0
C      1  0.4395780000000  0.4346360000000  0.4551020000000 1.0
C      1  0.5820240000000  0.4470930000000  0.4708990000000 1.0
C      1  0.5201940000000  0.5800060000000  0.4094640000000 1.0
C      1  0.4655990000000  0.5687260000000  0.4226090000000 1.0
C      1  0.4727420000000  0.4941970000000  0.5033220000000 1.0
C      1  0.5249970000000  0.5028200000000  0.5132890000000 1.0
C      1  0.3886680000000  0.5547130000000  0.5135990000000 1.0
C      1  0.5949250000000  0.5377740000000  0.5133020000000 1.0
C      1  0.4956560000000  0.4603580000000  0.4735390000000 1.0
C      1  0.5218510000000  0.4713330000000  0.4775710000000 1.0
C      1  0.5991350000000  0.5187730000000  0.4924370000000 1.0
C      1  0.4141840000000  0.4972660000000  0.4856400000000 1.0
C      1  0.5467060000000  0.5884730000000  0.5291730000000 1.0
C      1  0.4488410000000  0.5826090000000  0.5373840000000 1.0
C      1  0.5362440000000  0.5486100000000  0.3549940000000 1.0
C      1  0.4530360000000  0.5224690000000  0.4199580000000 1.0
C      1  0.5847150000000  0.5578530000000  0.5545840000000 1.0
C      1  0.4006450000000  0.5683710000000  0.5562010000000 1.0
C      1  0.3539970000000  0.5625720000000  0.5470370000000 1.0
C      1  0.6255510000000  0.5320520000000  0.5518360000000 1.0
C      1  0.5467220000000  0.5424520000000  0.5786120000000 1.0
C      1  0.4274270000000  0.5369580000000  0.5803700000000 1.0
C      1  0.5750530000000  0.5378370000000  0.5749560000000 1.0
C      1  0.4001030000000  0.5427250000000  0.5725980000000 1.0
C      1  0.3518170000000  0.5438940000000  0.5668620000000 1.0
C      1  0.6196320000000  0.5187870000000  0.5748960000000 1.0
C      1  0.4748790000000  0.5867580000000  0.4420810000000 1.0
C      1  0.5233630000000  0.5927810000000  0.4334190000000 1.0
C      1  0.4798180000000  0.5189920000000  0.5160610000000 1.0
C      1  0.5074410000000  0.5249690000000  0.5167450000000 1.0
C      1  0.4345220000000  0.4616560000000  0.4621540000000 1.0
C      1  0.5782500000000  0.4748480000000  0.4772180000000 1.0
C      1  0.4702870000000  0.3970710000000  0.5013640000000 1.0
C      1  0.5671810000000  0.4262350000000  0.5340020000000 1.0
C      1  0.4895890000000  0.4459520000000  0.4489450000000 1.0
C      1  0.5462340000000  0.4378200000000  0.4313990000000 1.0
C      1  0.5057230000000  0.5830640000000  0.5534630000000 1.0
C      1  0.4856000000000  0.5691190000000  0.5678710000000 1.0
C      1  0.4654200000000  0.4745460000000  0.5598400000000 1.0
C      1  0.5241060000000  0.4758380000000  0.5670510000000 1.0
C      1  0.4466490000000  0.5164600000000  0.5737380000000 1.0
C      1  0.5266010000000  0.5231260000000  0.5735050000000 1.0
C      1  0.4431340000000  0.4317250000000  0.5557060000000 1.0
C      1  0.5669760000000  0.4444200000000  0.5568700000000 1.0
C      1  0.6114050000000  0.3962080000000  0.5285210000000 1.0
C      1  0.4183280000000  0.3855480000000  0.5089060000000 1.0
C      1  0.4581570000000  0.6246510000000  0.5143550000000 1.0
C      1  0.5537490000000  0.6319040000000  0.5085340000000 1.0
C      1  0.5344950000000  0.4856070000000  0.4567700000000 1.0
C      1  0.4634070000000  0.5022920000000  0.4372290000000 1.0
C      1  0.4670300000000  0.5606670000000  0.5450950000000 1.0
C      1  0.5207870000000  0.5749580000000  0.5313150000000 1.0
C      1  0.4247720000000  0.4549980000000  0.5106990000000 1.0
C      1  0.5866320000000  0.4824040000000  0.5257100000000 1.0
C      1  0.3741220000000  0.5331630000000  0.5783410000000 1.0
C      1  0.5947270000000  0.5207510000000  0.5857270000000 1.0
C      1  0.5303340000000  0.4971630000000  0.5835850000000 1.0
C      1  0.4520560000000  0.4892550000000  0.5800980000000 1.0
C      1  0.3797820000000  0.5685250000000  0.5364700000000 1.0
C      1  0.6053050000000  0.5461860000000  0.5378520000000 1.0
C      1  0.5294170000000  0.4763770000000  0.5043910000000 1.0
C      1  0.4774750000000  0.4664650000000  0.4959400000000 1.0
C      1  0.4814950000000  0.4602830000000  0.4023770000000 1.0
C      1  0.5383230000000  0.4679300000000  0.3924610000000 1.0
C      1  0.5293910000000  0.5100140000000  0.4165430000000 1.0
C      1  0.4931810000000  0.5297270000000  0.4630040000000 1.0
C      1  0.4693260000000  0.5284920000000  0.3965120000000 1.0
C      1  0.5179370000000  0.5402660000000  0.3744550000000 1.0
C      1  0.5642260000000  0.4362390000000  0.4513670000000 1.0
C      1  0.4667800000000  0.4291750000000  0.4502470000000 1.0
C      1  0.5902720000000  0.4114760000000  0.5285990000000 1.0
C      1  0.4428600000000  0.3931860000000  0.5044980000000 1.0
C      1  0.4895880000000  0.5600730000000  0.5969630000000 1.0
C      1  0.5099650000000  0.5601910000000  0.6174600000000 1.0
C      1  0.5199370000000  0.4280420000000  0.6166130000000 1.0
C      1  0.4935730000000  0.4240260000000  0.6142900000000 1.0
C      1  0.4821010000000  0.5081690000000  0.6155840000000 1.0
C      1  0.5102550000000  0.5093880000000  0.6249520000000 1.0
C      1  0.4854290000000  0.4189700000000  0.5152020000000 1.0
C      1  0.5395550000000  0.4207630000000  0.5202500000000 1.0
C      1  0.5511770000000  0.4329760000000  0.5795430000000 1.0
C      1  0.4619670000000  0.4221490000000  0.5760620000000 1.0
C      1  0.5148090000000  0.5452110000000  0.4642720000000 1.0
C      1  0.5482450000000  0.5286050000000  0.4121650000000 1.0
C      1  0.5978380000000  0.5180890000000  0.4432590000000 1.0
C      1  0.3966690000000  0.5243350000000  0.4497800000000 1.0
C      1  0.3831510000000  0.5103860000000  0.4013590000000 1.0
C      1  0.5823260000000  0.4839800000000  0.4110270000000 1.0
C      1  0.5632130000000  0.5788040000000  0.5513470000000 1.0
C      1  0.4275640000000  0.5800840000000  0.5576650000000 1.0
C      1  0.4621220000000  0.4586140000000  0.6136550000000 1.0
C      1  0.5437930000000  0.4686500000000  0.6175820000000 1.0
C      1  0.4800380000000  0.5554630000000  0.4005570000000 1.0
C      1  0.5071340000000  0.5599750000000  0.3934560000000 1.0
C      1  0.5688420000000  0.5807250000000  0.4688120000000 1.0
C      1  0.4513650000000  0.5613830000000  0.4819440000000 1.0
C      1  0.5541840000000  0.5561700000000  0.3376730000000 1.0
C      1  0.4454990000000  0.5488220000000  0.4291410000000 1.0
C      1  0.5124720000000  0.4233540000000  0.5010890000000 1.0
END
