TITL C-74084-3399-328 -7.51294641171397e-07 125000 -611.581781321208 0 0 95 (C5) n - 1
REM
REM in /home/nfs/bkarasulu/CARBON/AIRSS/Generating-Clusters/LCBOP/Higher-Symm/SD-CG/FIRE-CG
REM
REM
REM
REM
REM
REM ./C.cell (b20cbc046b6831c77cfcea5457e17084)
REM AIRSS Version 0.9.1 bugfix July 2018 build 013d7b7c2542+ Fri, 06 Jul 2018 19:26:36 +0100
REM compiler GCC version 9.2.1 20190827 (Red Hat 9.2.1-1)
REM options -cpp -mtune=generic -march=x86-64 -g -O0 -fpre-include=/usr/include/finclude/math-vector-fortran.h
REM seed 1006510110 589168234 -466634132 -374125254 458047872 -1945211341 943157683 777594500 -1552404961 249767297 1189517892 1862430907 -1998206043 -1797808273 872576127 1119952578 1211918299 -1280776496 -1382005472 -1305883965 -814043395 1781412706 -1714203680 -699485356 -679508011 167232161 1854561803 -187190265 765323943 -1351637574 -1505361224 -1821129304 1596598270
REM
CELL 1.54180   50.00000   50.00000   50.00000   90.00000   90.00000   90.00000
LATT -1
SFAC C  
C      1  0.4851530000000  0.5893970000000  0.4597260000000 1.0
C      1  0.4851420000000  0.4893220000000  0.4025350000000 1.0
C      1  0.4851410000000  0.4040050000000  0.4800390000000 1.0
C      1  0.4851520000000  0.4513520000000  0.5851300000000 1.0
C      1  0.4851590000000  0.5659300000000  0.5725760000000 1.0
C      1  0.5124320000000  0.5893950000000  0.4597240000000 1.0
C      1  0.5124200000000  0.4893200000000  0.4025330000000 1.0
C      1  0.5124190000000  0.4040030000000  0.4800370000000 1.0
C      1  0.5124300000000  0.4513500000000  0.5851280000000 1.0
C      1  0.5124380000000  0.5659280000000  0.5725740000000 1.0
C      1  0.4323030000000  0.4625750000000  0.5349300000000 1.0
C      1  0.4323080000000  0.5216540000000  0.5463950000000 1.0
C      1  0.4323060000000  0.5508150000000  0.4937500000000 1.0
C      1  0.4323000000000  0.5097580000000  0.4497490000000 1.0
C      1  0.4322980000000  0.4552230000000  0.4751990000000 1.0
C      1  0.5652740000000  0.4625650000000  0.5349200000000 1.0
C      1  0.5652790000000  0.5216440000000  0.5463850000000 1.0
C      1  0.5652780000000  0.5508050000000  0.4937410000000 1.0
C      1  0.5652720000000  0.5097480000000  0.4497400000000 1.0
C      1  0.5652690000000  0.4552130000000  0.4751900000000 1.0
C      1  0.5240660000000  0.5228660000000  0.4912770000000 1.0
C      1  0.5240630000000  0.4987710000000  0.4755550000000 1.0
C      1  0.5240630000000  0.4763720000000  0.4936120000000 1.0
C      1  0.5240660000000  0.4866240000000  0.5204950000000 1.0
C      1  0.5240680000000  0.5153590000000  0.5190510000000 1.0
C      1  0.4735130000000  0.5228690000000  0.4912810000000 1.0
C      1  0.4735100000000  0.4987740000000  0.4755590000000 1.0
C      1  0.4735100000000  0.4763760000000  0.4936160000000 1.0
C      1  0.4735130000000  0.4866280000000  0.5204980000000 1.0
C      1  0.4735150000000  0.5153620000000  0.5190550000000 1.0
C      1  0.4697770000000  0.4920420000000  0.4259630000000 1.0
C      1  0.4697760000000  0.4271270000000  0.4846930000000 1.0
C      1  0.4697850000000  0.4629230000000  0.5645800000000 1.0
C      1  0.4697900000000  0.5499610000000  0.5552220000000 1.0
C      1  0.4697860000000  0.5679580000000  0.4695520000000 1.0
C      1  0.5277890000000  0.4920380000000  0.4259590000000 1.0
C      1  0.5277880000000  0.4271230000000  0.4846890000000 1.0
C      1  0.5277960000000  0.4629190000000  0.5645760000000 1.0
C      1  0.5278020000000  0.5499570000000  0.5552180000000 1.0
C      1  0.5277970000000  0.5679530000000  0.4695480000000 1.0
C      1  0.5517580000000  0.4387300000000  0.5229330000000 1.0
C      1  0.5517660000000  0.5028780000000  0.5653520000000 1.0
C      1  0.5517670000000  0.5630430000000  0.5174510000000 1.0
C      1  0.5517600000000  0.5360790000000  0.4454290000000 1.0
C      1  0.5517540000000  0.4592490000000  0.4488170000000 1.0
C      1  0.4458130000000  0.4387380000000  0.5229410000000 1.0
C      1  0.4458210000000  0.5028860000000  0.5653590000000 1.0
C      1  0.4458220000000  0.5630510000000  0.5174590000000 1.0
C      1  0.4458150000000  0.5360870000000  0.4454360000000 1.0
C      1  0.4458090000000  0.4592570000000  0.4488240000000 1.0
C      1  0.4198580000000  0.4781090000000  0.4876070000000 1.0
C      1  0.4198600000000  0.4814480000000  0.5170000000000 1.0
C      1  0.4198630000000  0.5104340000000  0.5229070000000 1.0
C      1  0.4198620000000  0.5250090000000  0.4971650000000 1.0
C      1  0.4198590000000  0.5050310000000  0.4753490000000 1.0
C      1  0.5777140000000  0.4780970000000  0.4875960000000 1.0
C      1  0.5777170000000  0.4814360000000  0.5169890000000 1.0
C      1  0.5777190000000  0.5104220000000  0.5228960000000 1.0
C      1  0.5777180000000  0.5249970000000  0.4971540000000 1.0
C      1  0.5777150000000  0.5050190000000  0.4753380000000 1.0
C      1  0.5263710000000  0.4262480000000  0.5335590000000 1.0
C      1  0.5263800000000  0.5091260000000  0.5805100000000 1.0
C      1  0.5263810000000  0.5793900000000  0.5161960000000 1.0
C      1  0.5263720000000  0.5399360000000  0.4294970000000 1.0
C      1  0.5263650000000  0.4452890000000  0.4402280000000 1.0
C      1  0.4712000000000  0.4262520000000  0.5335630000000 1.0
C      1  0.4712100000000  0.5091300000000  0.5805140000000 1.0
C      1  0.4712110000000  0.5793940000000  0.5162000000000 1.0
C      1  0.4712010000000  0.5399410000000  0.4295010000000 1.0
C      1  0.4711950000000  0.4452930000000  0.4402320000000 1.0
C      1  0.5539710000000  0.5485410000000  0.5433110000000 1.0
C      1  0.5539670000000  0.5561920000000  0.4672120000000 1.0
C      1  0.5539590000000  0.4861820000000  0.4364200000000 1.0
C      1  0.5539600000000  0.4352620000000  0.4934880000000 1.0
C      1  0.5539670000000  0.4738020000000  0.5595500000000 1.0
C      1  0.4436190000000  0.5485490000000  0.5433190000000 1.0
C      1  0.4436140000000  0.5562000000000  0.4672200000000 1.0
C      1  0.4436070000000  0.4861900000000  0.4364280000000 1.0
C      1  0.4436070000000  0.4352710000000  0.4934960000000 1.0
C      1  0.4436150000000  0.4738110000000  0.5595580000000 1.0
C      1  0.4849600000000  0.4515320000000  0.4871710000000 1.0
C      1  0.4849660000000  0.4728210000000  0.5421330000000 1.0
C      1  0.4849700000000  0.5316720000000  0.5388700000000 1.0
C      1  0.4849670000000  0.5467540000000  0.4818910000000 1.0
C      1  0.4849610000000  0.4972250000000  0.4499400000000 1.0
C      1  0.5126080000000  0.4515300000000  0.4871690000000 1.0
C      1  0.5126140000000  0.4728190000000  0.5421310000000 1.0
C      1  0.5126180000000  0.5316700000000  0.5388680000000 1.0
C      1  0.5126150000000  0.5467520000000  0.4818890000000 1.0
C      1  0.5126090000000  0.4972230000000  0.4499380000000 1.0
C      1  0.4987860000000  0.5420840000000  0.4259750000000 1.0
C      1  0.4987800000000  0.4426030000000  0.4371010000000 1.0
C      1  0.4987850000000  0.4224430000000  0.5351510000000 1.0
C      1  0.4987960000000  0.5834070000000  0.5171490000000 1.0
C      1  0.4987950000000  0.5094640000000  0.5846240000000 1.0
END
