TITL C-74084-3399-182 108.557357496967 125000 -1179.42919001254 0 0 193 (C1) n - 1
REM
REM in /home/nfs/bkarasulu/CARBON/AIRSS/Generating-Clusters/LCBOP/Higher-Symm/SD-CG/FIRE-CG
REM
REM
REM
REM
REM
REM ./C.cell (b20cbc046b6831c77cfcea5457e17084)
REM AIRSS Version 0.9.1 bugfix July 2018 build 013d7b7c2542+ Fri, 06 Jul 2018 19:26:36 +0100
REM compiler GCC version 9.2.1 20190827 (Red Hat 9.2.1-1)
REM options -cpp -mtune=generic -march=x86-64 -g -O0 -fpre-include=/usr/include/finclude/math-vector-fortran.h
REM seed 1647849466 -1840409831 -1385981022 -1326265448 -725892079 -396419009 1055736008 -1693930550 734026277 -715633923 1163330124 -2024689829 -888001951 744644345 152771079 1900942131 127819643 1346081562 -900700577 -1765900201 2021730866 129528669 -1684678811 -600545407 1499412027 -633349879 -2140686146 40637782 1446337833 -1715966134 -2075321754 -1425434263 1124428816
REM
CELL 1.54180   50.00000   50.00000   50.00000   90.00000   90.00000   90.00000
LATT -1
SFAC C  
C      1  0.4944350000000  0.5741080000000  0.6027360000000 1.0
C      1  0.5600420000000  0.4684370000000  0.4658240000000 1.0
C      1  0.5174890000000  0.4818240000000  0.4426400000000 1.0
C      1  0.4731690000000  0.4709750000000  0.6320950000000 1.0
C      1  0.5842940000000  0.5197570000000  0.4158090000000 1.0
C      1  0.4280910000000  0.4379270000000  0.4509710000000 1.0
C      1  0.4362450000000  0.5596150000000  0.4481840000000 1.0
C      1  0.4551480000000  0.3796470000000  0.4465640000000 1.0
C      1  0.5169660000000  0.4654160000000  0.6528550000000 1.0
C      1  0.5864980000000  0.5011080000000  0.5145960000000 1.0
C      1  0.5641950000000  0.5195840000000  0.4748460000000 1.0
C      1  0.5092040000000  0.5127420000000  0.5602540000000 1.0
C      1  0.6033280000000  0.5241100000000  0.4366080000000 1.0
C      1  0.5203340000000  0.6256340000000  0.5021170000000 1.0
C      1  0.5136270000000  0.3960850000000  0.4634340000000 1.0
C      1  0.4566500000000  0.5883490000000  0.5758680000000 1.0
C      1  0.5260600000000  0.3697180000000  0.5195900000000 1.0
C      1  0.5809720000000  0.4939310000000  0.4050920000000 1.0
C      1  0.4367200000000  0.4279950000000  0.4259900000000 1.0
C      1  0.4547570000000  0.5392610000000  0.5275720000000 1.0
C      1  0.5362350000000  0.4329560000000  0.4033530000000 1.0
C      1  0.5051010000000  0.6178780000000  0.4220290000000 1.0
C      1  0.4689460000000  0.5233890000000  0.5080590000000 1.0
C      1  0.4622700000000  0.5068320000000  0.4081460000000 1.0
C      1  0.5363990000000  0.6226780000000  0.4802850000000 1.0
C      1  0.4813710000000  0.5165240000000  0.5656660000000 1.0
C      1  0.6120910000000  0.4972020000000  0.5043150000000 1.0
C      1  0.4468540000000  0.5495580000000  0.4720260000000 1.0
C      1  0.5818080000000  0.5634590000000  0.4671710000000 1.0
C      1  0.4068090000000  0.4200610000000  0.5799790000000 1.0
C      1  0.6122190000000  0.5509140000000  0.5100170000000 1.0
C      1  0.5135260000000  0.5571610000000  0.5351950000000 1.0
C      1  0.5034800000000  0.4368040000000  0.6168120000000 1.0
C      1  0.5459840000000  0.4857570000000  0.5407860000000 1.0
C      1  0.5070320000000  0.5509450000000  0.4480450000000 1.0
C      1  0.4049990000000  0.5795020000000  0.4725460000000 1.0
C      1  0.4357230000000  0.3807160000000  0.4651960000000 1.0
C      1  0.4137380000000  0.4062670000000  0.5072280000000 1.0
C      1  0.5066800000000  0.5675260000000  0.5084870000000 1.0
C      1  0.5028730000000  0.6026540000000  0.5482120000000 1.0
C      1  0.5216800000000  0.6164180000000  0.5290300000000 1.0
C      1  0.5407930000000  0.4002950000000  0.4693510000000 1.0
C      1  0.5654090000000  0.5388180000000  0.4066830000000 1.0
C      1  0.4402160000000  0.4549520000000  0.5020940000000 1.0
C      1  0.5118330000000  0.5538510000000  0.3581520000000 1.0
C      1  0.5180270000000  0.4070150000000  0.5786230000000 1.0
C      1  0.4588600000000  0.4268630000000  0.5833360000000 1.0
C      1  0.4531240000000  0.5527820000000  0.6114710000000 1.0
C      1  0.5486580000000  0.6066480000000  0.5349490000000 1.0
C      1  0.5113950000000  0.5130280000000  0.4860940000000 1.0
C      1  0.5206760000000  0.5775730000000  0.5580140000000 1.0
C      1  0.3914050000000  0.4255040000000  0.5084370000000 1.0
C      1  0.4669540000000  0.4971400000000  0.6238980000000 1.0
C      1  0.5461780000000  0.4364050000000  0.5386110000000 1.0
C      1  0.6219200000000  0.4263700000000  0.5007780000000 1.0
C      1  0.3868610000000  0.5581590000000  0.5174950000000 1.0
C      1  0.5285550000000  0.5664010000000  0.4906450000000 1.0
C      1  0.5164310000000  0.5284650000000  0.5362060000000 1.0
C      1  0.5088330000000  0.3919470000000  0.5576610000000 1.0
C      1  0.4704070000000  0.4793900000000  0.5282740000000 1.0
C      1  0.5273490000000  0.4581840000000  0.5780420000000 1.0
C      1  0.3881020000000  0.4426580000000  0.4848000000000 1.0
C      1  0.4865780000000  0.3971910000000  0.5104400000000 1.0
C      1  0.4386770000000  0.5598850000000  0.5147070000000 1.0
C      1  0.4891270000000  0.5274570000000  0.4413840000000 1.0
C      1  0.4949460000000  0.4051650000000  0.4828530000000 1.0
C      1  0.4108280000000  0.5717390000000  0.5082710000000 1.0
C      1  0.4204840000000  0.6023230000000  0.5460360000000 1.0
C      1  0.4818220000000  0.5754440000000  0.4986130000000 1.0
C      1  0.4180620000000  0.5389770000000  0.5851960000000 1.0
C      1  0.4353780000000  0.4120440000000  0.5258220000000 1.0
C      1  0.5533270000000  0.5678550000000  0.5049050000000 1.0
C      1  0.3878860000000  0.4237930000000  0.5608650000000 1.0
C      1  0.4139340000000  0.6003510000000  0.5187810000000 1.0
C      1  0.6193640000000  0.4260750000000  0.5278470000000 1.0
C      1  0.5047250000000  0.3851810000000  0.5299910000000 1.0
C      1  0.4179790000000  0.6053320000000  0.4710900000000 1.0
C      1  0.5162150000000  0.5512590000000  0.3855620000000 1.0
C      1  0.5640520000000  0.4231240000000  0.4073410000000 1.0
C      1  0.4595140000000  0.4339430000000  0.4944740000000 1.0
C      1  0.5176650000000  0.4414570000000  0.5289660000000 1.0
C      1  0.5124710000000  0.4641360000000  0.5117240000000 1.0
C      1  0.5024910000000  0.5572880000000  0.3061030000000 1.0
C      1  0.4940610000000  0.4357890000000  0.5447560000000 1.0
C      1  0.4668420000000  0.5376470000000  0.5528500000000 1.0
C      1  0.4392670000000  0.5303000000000  0.6011790000000 1.0
C      1  0.6146430000000  0.5223350000000  0.5552580000000 1.0
C      1  0.4447560000000  0.5077340000000  0.4573710000000 1.0
C      1  0.4633430000000  0.4963950000000  0.5747190000000 1.0
C      1  0.4831060000000  0.4358490000000  0.5714430000000 1.0
C      1  0.4904230000000  0.4442980000000  0.4510830000000 1.0
C      1  0.4763810000000  0.6018520000000  0.5591070000000 1.0
C      1  0.4779050000000  0.3855570000000  0.4332470000000 1.0
C      1  0.5498940000000  0.3752030000000  0.5085550000000 1.0
C      1  0.5521390000000  0.4193620000000  0.4526820000000 1.0
C      1  0.5729460000000  0.4863150000000  0.5336830000000 1.0
C      1  0.5239260000000  0.4820470000000  0.4150110000000 1.0
C      1  0.5483460000000  0.5116970000000  0.6126640000000 1.0
C      1  0.6171920000000  0.4729910000000  0.4645880000000 1.0
C      1  0.5088260000000  0.5242800000000  0.6381500000000 1.0
C      1  0.3973480000000  0.5369130000000  0.4377940000000 1.0
C      1  0.6001300000000  0.4428870000000  0.4321750000000 1.0
C      1  0.4740880000000  0.5047280000000  0.4579460000000 1.0
C      1  0.4587490000000  0.4384880000000  0.4141870000000 1.0
C      1  0.4365080000000  0.4583910000000  0.5538560000000 1.0
C      1  0.4200550000000  0.3890440000000  0.4854950000000 1.0
C      1  0.5949560000000  0.4271430000000  0.5397010000000 1.0
C      1  0.4964040000000  0.4554590000000  0.6363560000000 1.0
C      1  0.5306860000000  0.5548020000000  0.4642790000000 1.0
C      1  0.6178060000000  0.4985530000000  0.4766710000000 1.0
C      1  0.5649080000000  0.5425410000000  0.5439080000000 1.0
C      1  0.4982720000000  0.5704240000000  0.4273560000000 1.0
C      1  0.6017410000000  0.5040540000000  0.5711340000000 1.0
C      1  0.5588690000000  0.5450970000000  0.4624380000000 1.0
C      1  0.5712240000000  0.5213000000000  0.5019560000000 1.0
C      1  0.4800320000000  0.4291230000000  0.4738620000000 1.0
C      1  0.5744070000000  0.4185550000000  0.4977160000000 1.0
C      1  0.5652110000000  0.4077700000000  0.4306380000000 1.0
C      1  0.4030900000000  0.4331760000000  0.4624860000000 1.0
C      1  0.6095060000000  0.5468730000000  0.5400600000000 1.0
C      1  0.5489070000000  0.5904830000000  0.5587970000000 1.0
C      1  0.5621130000000  0.5931080000000  0.5141210000000 1.0
C      1  0.4727840000000  0.4846610000000  0.4251310000000 1.0
C      1  0.4246200000000  0.5059940000000  0.4988350000000 1.0
C      1  0.5245200000000  0.4996550000000  0.4637280000000 1.0
C      1  0.3810160000000  0.4280770000000  0.5349110000000 1.0
C      1  0.5424280000000  0.5470390000000  0.3955910000000 1.0
C      1  0.5306020000000  0.4905650000000  0.5691830000000 1.0
C      1  0.5702990000000  0.4278150000000  0.5251070000000 1.0
C      1  0.5203630000000  0.6366920000000  0.4124220000000 1.0
C      1  0.4978620000000  0.5587760000000  0.2804900000000 1.0
C      1  0.5861410000000  0.5587810000000  0.5539670000000 1.0
C      1  0.3740420000000  0.5588770000000  0.5410990000000 1.0
C      1  0.6125780000000  0.5243820000000  0.4639640000000 1.0
C      1  0.5329220000000  0.5098630000000  0.6359720000000 1.0
C      1  0.4943250000000  0.5528130000000  0.4038020000000 1.0
C      1  0.5140970000000  0.5691960000000  0.5854300000000 1.0
C      1  0.4522950000000  0.5043490000000  0.6003500000000 1.0
C      1  0.4633200000000  0.6037860000000  0.4416840000000 1.0
C      1  0.3781920000000  0.4935400000000  0.4671680000000 1.0
C      1  0.6050680000000  0.4473670000000  0.4599050000000 1.0
C      1  0.5437990000000  0.4461020000000  0.4579570000000 1.0
C      1  0.5756360000000  0.5911680000000  0.4640120000000 1.0
C      1  0.5758290000000  0.4600200000000  0.5749460000000 1.0
C      1  0.4167250000000  0.6181610000000  0.4966790000000 1.0
C      1  0.5086370000000  0.4352780000000  0.5879660000000 1.0
C      1  0.4421700000000  0.4614270000000  0.4594400000000 1.0
C      1  0.4105450000000  0.5641590000000  0.5746990000000 1.0
C      1  0.4290840000000  0.5855400000000  0.5674050000000 1.0
C      1  0.5160260000000  0.4147900000000  0.4148670000000 1.0
C      1  0.5516490000000  0.4471570000000  0.5655770000000 1.0
C      1  0.4131360000000  0.5295060000000  0.4139040000000 1.0
C      1  0.5039450000000  0.3971750000000  0.4354830000000 1.0
C      1  0.4799350000000  0.5291690000000  0.4128750000000 1.0
C      1  0.3783400000000  0.4695870000000  0.4804940000000 1.0
C      1  0.5990840000000  0.4295930000000  0.4832170000000 1.0
C      1  0.4830770000000  0.5174140000000  0.6353700000000 1.0
C      1  0.5830910000000  0.4448360000000  0.4094730000000 1.0
C      1  0.4834540000000  0.5161110000000  0.4850700000000 1.0
C      1  0.5539140000000  0.5003860000000  0.5877380000000 1.0
C      1  0.4325840000000  0.5087070000000  0.4075890000000 1.0
C      1  0.4314330000000  0.4846380000000  0.4481600000000 1.0
C      1  0.4710330000000  0.4734070000000  0.4765920000000 1.0
C      1  0.5403490000000  0.4628900000000  0.4019300000000 1.0
C      1  0.5526100000000  0.4958050000000  0.4671390000000 1.0
C      1  0.3835340000000  0.5161040000000  0.4526140000000 1.0
C      1  0.6051990000000  0.5488490000000  0.4802210000000 1.0
C      1  0.4886390000000  0.5969120000000  0.4307200000000 1.0
C      1  0.4073540000000  0.5611110000000  0.4506190000000 1.0
C      1  0.4757550000000  0.4563590000000  0.4282210000000 1.0
C      1  0.5071920000000  0.5556950000000  0.3321400000000 1.0
C      1  0.4612330000000  0.4112620000000  0.5137810000000 1.0
C      1  0.5168440000000  0.4545420000000  0.4523720000000 1.0
C      1  0.5616980000000  0.5432930000000  0.5162910000000 1.0
C      1  0.5795630000000  0.4882660000000  0.5804950000000 1.0
C      1  0.4220800000000  0.4858070000000  0.4216900000000 1.0
C      1  0.5285390000000  0.4861430000000  0.5191810000000 1.0
C      1  0.5574730000000  0.3959520000000  0.4914210000000 1.0
C      1  0.4351670000000  0.5233600000000  0.4785660000000 1.0
C      1  0.5744590000000  0.5808630000000  0.5670090000000 1.0
C      1  0.4328080000000  0.4207830000000  0.5878430000000 1.0
C      1  0.4319520000000  0.4340250000000  0.5433860000000 1.0
C      1  0.5572840000000  0.6108800000000  0.4675950000000 1.0
C      1  0.5207030000000  0.5121470000000  0.5125580000000 1.0
C      1  0.4666480000000  0.5741060000000  0.5990670000000 1.0
C      1  0.4561240000000  0.4784240000000  0.5533200000000 1.0
C      1  0.4562890000000  0.5666170000000  0.4923200000000 1.0
C      1  0.3839430000000  0.5652510000000  0.5652430000000 1.0
C      1  0.4277650000000  0.4793400000000  0.5043720000000 1.0
C      1  0.5691840000000  0.4688800000000  0.4023770000000 1.0
C      1  0.4847830000000  0.4713120000000  0.5040820000000 1.0
C      1  0.5338320000000  0.4863190000000  0.6515740000000 1.0
C      1  0.4398350000000  0.6096860000000  0.4535040000000 1.0
END
