TITL C-74086-5274-7 -4.18888147657628e-07 125000 -844.285490635702 0 0 140 (D3) n - 1
REM
REM in /home/nfs/bkarasulu/CARBON/AIRSS/Generating-Clusters/LCBOP/Higher-Symm/SD-CG/FIRE-CG
REM
REM
REM
REM
REM
REM ./C.cell (b20cbc046b6831c77cfcea5457e17084)
REM AIRSS Version 0.9.1 bugfix July 2018 build 013d7b7c2542+ Fri, 06 Jul 2018 19:26:36 +0100
REM compiler GCC version 9.2.1 20190827 (Red Hat 9.2.1-1)
REM options -cpp -mtune=generic -march=x86-64 -g -O0 -fpre-include=/usr/include/finclude/math-vector-fortran.h
REM seed 1019648665 -349415979 -1757415084 271146505 -1695899996 -990564819 -1665125346 95286505 -606722549 -1938648657 -1504215732 213130412 822953951 -1588413661 820000340 1641372404 1870314939 1328008384 -289826660 1621401047 1590637881 1259983870 1421244281 1979049020 -2069888569 -435118686 1679430122 882092131 766048215 1520377149 -1346987413 -1130368817 371254975
REM
CELL 1.54180   50.00000   50.00000   50.00000   90.00000   90.00000   90.00000
LATT -1
SFAC C  
C      1  0.5110670000000  0.4697310000000  0.5081990000000 1.0
C      1  0.5110650000000  0.5220940000000  0.5219810000000 1.0
C      1  0.5110660000000  0.5078470000000  0.4697430000000 1.0
C      1  0.4901510000000  0.4697310000000  0.4917480000000 1.0
C      1  0.4901500000000  0.5220940000000  0.4779680000000 1.0
C      1  0.4901500000000  0.5078460000000  0.5302060000000 1.0
C      1  0.4755380000000  0.4882930000000  0.5404910000000 1.0
C      1  0.4755370000000  0.5407770000000  0.4897590000000 1.0
C      1  0.4755390000000  0.4706000000000  0.4696720000000 1.0
C      1  0.5256790000000  0.4882960000000  0.4594570000000 1.0
C      1  0.5256770000000  0.5407780000000  0.5101910000000 1.0
C      1  0.5256790000000  0.4706000000000  0.5302750000000 1.0
C      1  0.4971830000000  0.5671250000000  0.4122020000000 1.0
C      1  0.4971870000000  0.3902600000000  0.4856330000000 1.0
C      1  0.4971820000000  0.5422860000000  0.6020870000000 1.0
C      1  0.5040290000000  0.5671230000000  0.5877480000000 1.0
C      1  0.5040350000000  0.3902600000000  0.5143120000000 1.0
C      1  0.5040320000000  0.5422890000000  0.3978620000000 1.0
C      1  0.4733200000000  0.5079290000000  0.4358790000000 1.0
C      1  0.4733210000000  0.4403630000000  0.5250590000000 1.0
C      1  0.4733180000000  0.5513780000000  0.5389830000000 1.0
C      1  0.5278950000000  0.5079290000000  0.5640700000000 1.0
C      1  0.5278980000000  0.4403650000000  0.4748870000000 1.0
C      1  0.5278950000000  0.5513810000000  0.4609660000000 1.0
C      1  0.6118520000000  0.5333740000000  0.4126190000000 1.0
C      1  0.6118540000000  0.4075010000000  0.5146580000000 1.0
C      1  0.6118500000000  0.5588060000000  0.5726480000000 1.0
C      1  0.3893630000000  0.5333650000000  0.5873300000000 1.0
C      1  0.3893670000000  0.4074960000000  0.4852870000000 1.0
C      1  0.3893630000000  0.5588020000000  0.4273020000000 1.0
C      1  0.5258500000000  0.5292320000000  0.4112720000000 1.0
C      1  0.5258520000000  0.4084030000000  0.5189160000000 1.0
C      1  0.5258480000000  0.5620390000000  0.5697350000000 1.0
C      1  0.4753640000000  0.5292280000000  0.5886770000000 1.0
C      1  0.4753680000000  0.4084020000000  0.4810300000000 1.0
C      1  0.4753650000000  0.5620400000000  0.4302150000000 1.0
C      1  0.4571530000000  0.5818020000000  0.5742540000000 1.0
C      1  0.4571560000000  0.5232620000000  0.3918950000000 1.0
C      1  0.4571580000000  0.3946040000000  0.5337720000000 1.0
C      1  0.5440590000000  0.5818070000000  0.4256960000000 1.0
C      1  0.5440590000000  0.5232610000000  0.6080540000000 1.0
C      1  0.5440640000000  0.3946080000000  0.4661730000000 1.0
C      1  0.4190370000000  0.4808110000000  0.5394310000000 1.0
C      1  0.4190360000000  0.5435990000000  0.4967660000000 1.0
C      1  0.4190380000000  0.4752560000000  0.4637230000000 1.0
C      1  0.5821800000000  0.4808160000000  0.4605170000000 1.0
C      1  0.5821780000000  0.5436030000000  0.5031830000000 1.0
C      1  0.5821800000000  0.4752590000000  0.5362240000000 1.0
C      1  0.4183300000000  0.5049180000000  0.4558280000000 1.0
C      1  0.4183300000000  0.4591430000000  0.5176910000000 1.0
C      1  0.4183280000000  0.5356050000000  0.5264020000000 1.0
C      1  0.5828860000000  0.5049210000000  0.5441210000000 1.0
C      1  0.5828880000000  0.4591470000000  0.4822560000000 1.0
C      1  0.5828860000000  0.5356100000000  0.4735480000000 1.0
C      1  0.5398110000000  0.4484960000000  0.4088240000000 1.0
C      1  0.5398100000000  0.4466510000000  0.5900600000000 1.0
C      1  0.5398070000000  0.6045280000000  0.5010390000000 1.0
C      1  0.4614080000000  0.4484910000000  0.5911220000000 1.0
C      1  0.4614090000000  0.4466520000000  0.4098870000000 1.0
C      1  0.4614040000000  0.6045260000000  0.4989120000000 1.0
C      1  0.4835260000000  0.3830080000000  0.5334080000000 1.0
C      1  0.4835200000000  0.5872860000000  0.5844800000000 1.0
C      1  0.4835240000000  0.5293770000000  0.3820340000000 1.0
C      1  0.5176960000000  0.3830100000000  0.4665370000000 1.0
C      1  0.5176910000000  0.5872890000000  0.4154710000000 1.0
C      1  0.5176910000000  0.5293740000000  0.6179150000000 1.0
C      1  0.4214850000000  0.5470550000000  0.5528000000000 1.0
C      1  0.4214870000000  0.5220540000000  0.4327130000000 1.0
C      1  0.4214880000000  0.4305570000000  0.5144070000000 1.0
C      1  0.5797290000000  0.5470600000000  0.4471500000000 1.0
C      1  0.5797280000000  0.5220560000000  0.5672360000000 1.0
C      1  0.5797310000000  0.4305610000000  0.4855390000000 1.0
C      1  0.5711720000000  0.5071390000000  0.4194030000000 1.0
C      1  0.5711730000000  0.4264920000000  0.5339850000000 1.0
C      1  0.5711690000000  0.5660460000000  0.5465360000000 1.0
C      1  0.4300440000000  0.5071330000000  0.5805450000000 1.0
C      1  0.4300470000000  0.4264890000000  0.4659610000000 1.0
C      1  0.4300440000000  0.5660440000000  0.4534140000000 1.0
C      1  0.4872600000000  0.4442910000000  0.5963860000000 1.0
C      1  0.4872570000000  0.6111860000000  0.4999180000000 1.0
C      1  0.4872620000000  0.4441940000000  0.4036170000000 1.0
C      1  0.5139590000000  0.4442940000000  0.4035600000000 1.0
C      1  0.5139540000000  0.6111860000000  0.5000330000000 1.0
C      1  0.5139570000000  0.4441920000000  0.5963290000000 1.0
C      1  0.5897490000000  0.4734250000000  0.5076020000000 1.0
C      1  0.5897480000000  0.5197320000000  0.5190830000000 1.0
C      1  0.5897480000000  0.5065210000000  0.4732390000000 1.0
C      1  0.4114690000000  0.4734210000000  0.4923450000000 1.0
C      1  0.4114680000000  0.5197290000000  0.4808660000000 1.0
C      1  0.4114670000000  0.5065160000000  0.5267090000000 1.0
C      1  0.4398030000000  0.4506190000000  0.4251830000000 1.0
C      1  0.4398010000000  0.4597530000000  0.5800380000000 1.0
C      1  0.4397980000000  0.5892950000000  0.4947000000000 1.0
C      1  0.5614160000000  0.4506200000000  0.5747640000000 1.0
C      1  0.5614170000000  0.4597590000000  0.4199090000000 1.0
C      1  0.5614130000000  0.5892980000000  0.5052510000000 1.0
C      1  0.4129210000000  0.5493970000000  0.4375450000000 1.0
C      1  0.4129240000000  0.4210690000000  0.4883120000000 1.0
C      1  0.4129200000000  0.5291990000000  0.5740630000000 1.0
C      1  0.5882930000000  0.5494000000000  0.5624050000000 1.0
C      1  0.5882960000000  0.4210740000000  0.5116340000000 1.0
C      1  0.5882950000000  0.5292050000000  0.4258860000000 1.0
C      1  0.4715190000000  0.4620990000000  0.5399970000000 1.0
C      1  0.4715170000000  0.5534470000000  0.5126900000000 1.0
C      1  0.4715190000000  0.4841240000000  0.4472340000000 1.0
C      1  0.5296990000000  0.4621020000000  0.4599500000000 1.0
C      1  0.5296970000000  0.5534480000000  0.4872600000000 1.0
C      1  0.5296980000000  0.4841240000000  0.5527140000000 1.0
C      1  0.4738140000000  0.5374530000000  0.5615930000000 1.0
C      1  0.4738150000000  0.5344720000000  0.4366340000000 1.0
C      1  0.4738170000000  0.4277450000000  0.5016950000000 1.0
C      1  0.5274010000000  0.5374560000000  0.4383570000000 1.0
C      1  0.5274000000000  0.5344710000000  0.5633150000000 1.0
C      1  0.5274030000000  0.4277460000000  0.4982510000000 1.0
C      1  0.4277820000000  0.4510620000000  0.4507320000000 1.0
C      1  0.4277800000000  0.4816580000000  0.5668800000000 1.0
C      1  0.4277780000000  0.5669470000000  0.4823090000000 1.0
C      1  0.5734370000000  0.4510640000000  0.5492150000000 1.0
C      1  0.5734370000000  0.4816640000000  0.4330680000000 1.0
C      1  0.5734340000000  0.5669500000000  0.5176420000000 1.0
C      1  0.4534000000000  0.5132080000000  0.5959600000000 1.0
C      1  0.4534000000000  0.5763560000000  0.4404460000000 1.0
C      1  0.4534040000000  0.4101040000000  0.4635150000000 1.0
C      1  0.5478150000000  0.5132130000000  0.4039890000000 1.0
C      1  0.5478120000000  0.5763570000000  0.5595040000000 1.0
C      1  0.5478170000000  0.4101050000000  0.5364310000000 1.0
C      1  0.5651540000000  0.5182070000000  0.5916320000000 1.0
C      1  0.5651540000000  0.5701120000000  0.4382850000000 1.0
C      1  0.5651580000000  0.4113580000000  0.4700080000000 1.0
C      1  0.4360610000000  0.5182070000000  0.4083170000000 1.0
C      1  0.4360580000000  0.5701070000000  0.5616650000000 1.0
C      1  0.4360630000000  0.4113530000000  0.5299380000000 1.0
C      1  0.4895620000000  0.6131560000000  0.5915380000000 1.0
C      1  0.4895660000000  0.5225540000000  0.3561020000000 1.0
C      1  0.4895680000000  0.3639610000000  0.5522830000000 1.0
C      1  0.5116490000000  0.6131590000000  0.4084140000000 1.0
C      1  0.5116490000000  0.5225510000000  0.6438470000000 1.0
C      1  0.5116550000000  0.3639630000000  0.4476620000000 1.0
C      1  0.5977660000000  0.4998930000000  0.4999750000000 1.0
C      1  0.4034500000000  0.4998880000000  0.4999730000000 1.0
END
