TITL C-74082-2733-166 6.22390104260269e-07 125000 -237.59998477317 0 0 41 (C1) n - 1
REM
REM in /home/nfs/bkarasulu/CARBON/AIRSS/Generating-Clusters/LCBOP/Higher-Symm/SD-CG/FIRE-CG
REM
REM
REM
REM
REM
REM ./C.cell (b20cbc046b6831c77cfcea5457e17084)
REM AIRSS Version 0.9.1 bugfix July 2018 build 013d7b7c2542+ Fri, 06 Jul 2018 19:26:36 +0100
REM compiler GCC version 9.2.1 20190827 (Red Hat 9.2.1-1)
REM options -cpp -mtune=generic -march=x86-64 -g -O0 -fpre-include=/usr/include/finclude/math-vector-fortran.h
REM seed 192071790 -269948233 834309788 201203473 1988820920 -2146911277 1525372379 -1437012785 1800050270 1982672300 -653935997 941721484 887623783 1833859123 150328921 -139919967 790117153 1509262320 1885213051 2032862441 -1852228644 1698440824 320680924 -1510634074 983556512 330752769 1313823371 -1629313745 -459157005 1446886348 1439676436 -1437470122 529029217
REM
CELL 1.54180   50.00000   50.00000   50.00000   90.00000   90.00000   90.00000
LATT -1
SFAC C  
C      1  0.4707840000000  0.4890920000000  0.5115830000000 1.0
C      1  0.4955140000000  0.5408640000000  0.5023440000000 1.0
C      1  0.5696540000000  0.5342900000000  0.4820960000000 1.0
C      1  0.5096830000000  0.4920810000000  0.5664540000000 1.0
C      1  0.4771070000000  0.4722380000000  0.4417920000000 1.0
C      1  0.5257800000000  0.4437100000000  0.4656330000000 1.0
C      1  0.5581080000000  0.5277460000000  0.4584860000000 1.0
C      1  0.4324690000000  0.5302780000000  0.5170130000000 1.0
C      1  0.4912430000000  0.4970370000000  0.4449310000000 1.0
C      1  0.4745400000000  0.5315770000000  0.4847130000000 1.0
C      1  0.5668870000000  0.4484020000000  0.4930670000000 1.0
C      1  0.4813620000000  0.5523090000000  0.5464410000000 1.0
C      1  0.4800140000000  0.4469380000000  0.4516400000000 1.0
C      1  0.4295910000000  0.5421140000000  0.4702070000000 1.0
C      1  0.5650390000000  0.5254250000000  0.5087010000000 1.0
C      1  0.4779150000000  0.5263670000000  0.5526460000000 1.0
C      1  0.4388990000000  0.5096180000000  0.5359970000000 1.0
C      1  0.5570570000000  0.4970040000000  0.5095230000000 1.0
C      1  0.5695730000000  0.4723630000000  0.5051200000000 1.0
C      1  0.5406700000000  0.5316580000000  0.5524150000000 1.0
C      1  0.5279130000000  0.4995590000000  0.5067580000000 1.0
C      1  0.5238060000000  0.4722080000000  0.4661410000000 1.0
C      1  0.4868200000000  0.4801290000000  0.5539350000000 1.0
C      1  0.5199000000000  0.4931020000000  0.4471640000000 1.0
C      1  0.4123300000000  0.5477980000000  0.5237850000000 1.0
C      1  0.5500020000000  0.4346520000000  0.4769210000000 1.0
C      1  0.4144180000000  0.5488810000000  0.4501280000000 1.0
C      1  0.4879690000000  0.5604940000000  0.5215170000000 1.0
C      1  0.5398860000000  0.5129160000000  0.4452890000000 1.0
C      1  0.5157260000000  0.4804340000000  0.4917650000000 1.0
C      1  0.4985500000000  0.4341610000000  0.4695080000000 1.0
C      1  0.4876570000000  0.4537230000000  0.5429270000000 1.0
C      1  0.5193110000000  0.5269500000000  0.5095970000000 1.0
C      1  0.5281700000000  0.5117820000000  0.5660310000000 1.0
C      1  0.4912760000000  0.4285420000000  0.4964900000000 1.0
C      1  0.4462420000000  0.5343420000000  0.4916610000000 1.0
C      1  0.4890660000000  0.4365580000000  0.5221620000000 1.0
C      1  0.4677580000000  0.5003020000000  0.5398040000000 1.0
C      1  0.4578800000000  0.4761700000000  0.4928540000000 1.0
C      1  0.5427880000000  0.5376900000000  0.5246200000000 1.0
C      1  0.4806420000000  0.5184930000000  0.4601390000000 1.0
END
