TITL C-74080-5790-246 2674.14214898325 125000 -1072.2342880028 0 0 174 (C1) n - 1
REM
REM in /home/nfs/bkarasulu/CARBON/AIRSS/Generating-Clusters/LCBOP/Higher-Symm/SD-CG/FIRE-CG
REM
REM
REM
REM
REM
REM ./C.cell (b20cbc046b6831c77cfcea5457e17084)
REM AIRSS Version 0.9.1 bugfix July 2018 build 013d7b7c2542+ Fri, 06 Jul 2018 19:26:36 +0100
REM compiler GCC version 9.2.1 20190827 (Red Hat 9.2.1-1)
REM options -cpp -mtune=generic -march=x86-64 -g -O0 -fpre-include=/usr/include/finclude/math-vector-fortran.h
REM seed -141228843 1434457080 84102519 -341730224 365379640 -1699975889 857394358 -1894365521 1897438286 1390242478 256589730 1168916226 93784567 540040237 -1894739631 1548163996 1356588971 -1561671372 -332046517 -144347612 131594835 -138813148 -1266211529 1966944472 846065614 1143856902 -1295095394 259977727 -1142582997 -1206982655 1243510269 983965706 -1310830022
REM
CELL 1.54180   50.00000   50.00000   50.00000   90.00000   90.00000   90.00000
LATT -1
SFAC C  
C      1  0.4132630000000  0.4636820000000  0.5663240000000 1.0
C      1  0.5932530000000  0.4737180000000  0.5718100000000 1.0
C      1  0.4365520000000  0.5801240000000  0.5156610000000 1.0
C      1  0.5640730000000  0.5802990000000  0.5139040000000 1.0
C      1  0.5321760000000  0.5640720000000  0.3968930000000 1.0
C      1  0.4705410000000  0.5628300000000  0.4012880000000 1.0
C      1  0.5131850000000  0.4826010000000  0.4852610000000 1.0
C      1  0.4827450000000  0.4788900000000  0.4776670000000 1.0
C      1  0.4476290000000  0.5622160000000  0.4215200000000 1.0
C      1  0.5530660000000  0.5631240000000  0.4193880000000 1.0
C      1  0.4369580000000  0.4567040000000  0.5062070000000 1.0
C      1  0.5557740000000  0.4535180000000  0.5157560000000 1.0
C      1  0.4650040000000  0.5887760000000  0.5739220000000 1.0
C      1  0.5395520000000  0.5847160000000  0.5784900000000 1.0
C      1  0.4425150000000  0.4406310000000  0.4338950000000 1.0
C      1  0.5563060000000  0.4404230000000  0.4366120000000 1.0
C      1  0.5135770000000  0.5241340000000  0.4364030000000 1.0
C      1  0.5068920000000  0.5487770000000  0.4280720000000 1.0
C      1  0.4856030000000  0.5624030000000  0.5231040000000 1.0
C      1  0.5160070000000  0.5615820000000  0.5231880000000 1.0
C      1  0.4628520000000  0.4965660000000  0.4698190000000 1.0
C      1  0.5341940000000  0.4979170000000  0.4708280000000 1.0
C      1  0.5745900000000  0.4145720000000  0.5122010000000 1.0
C      1  0.4248580000000  0.4117500000000  0.5078360000000 1.0
C      1  0.4733270000000  0.5900100000000  0.4529630000000 1.0
C      1  0.5264870000000  0.5906760000000  0.4528310000000 1.0
C      1  0.4603470000000  0.4446390000000  0.5013960000000 1.0
C      1  0.5318380000000  0.4431890000000  0.5089840000000 1.0
C      1  0.5685540000000  0.4699360000000  0.5908260000000 1.0
C      1  0.4418540000000  0.4578880000000  0.5746980000000 1.0
C      1  0.6032170000000  0.5007360000000  0.5598480000000 1.0
C      1  0.3992370000000  0.4956730000000  0.5615580000000 1.0
C      1  0.5213920000000  0.4691220000000  0.5651750000000 1.0
C      1  0.4596980000000  0.4731550000000  0.5589780000000 1.0
C      1  0.4463970000000  0.5717590000000  0.5612200000000 1.0
C      1  0.5556540000000  0.5711920000000  0.5597950000000 1.0
C      1  0.5103090000000  0.4945380000000  0.5126100000000 1.0
C      1  0.4863720000000  0.4877500000000  0.5247220000000 1.0
C      1  0.4561470000000  0.5446930000000  0.5598270000000 1.0
C      1  0.5469130000000  0.5436520000000  0.5581660000000 1.0
C      1  0.4643040000000  0.3742890000000  0.4949750000000 1.0
C      1  0.5347530000000  0.3773210000000  0.5000850000000 1.0
C      1  0.5291720000000  0.5466740000000  0.4739710000000 1.0
C      1  0.4732430000000  0.5426100000000  0.4633950000000 1.0
C      1  0.5256380000000  0.5140410000000  0.3817530000000 1.0
C      1  0.4750950000000  0.5148300000000  0.3825060000000 1.0
C      1  0.5689070000000  0.4668740000000  0.4388590000000 1.0
C      1  0.4295700000000  0.4670320000000  0.4362570000000 1.0
C      1  0.5254060000000  0.6251280000000  0.4854340000000 1.0
C      1  0.4741660000000  0.6248700000000  0.4854170000000 1.0
C      1  0.4684460000000  0.3475790000000  0.5019610000000 1.0
C      1  0.5313700000000  0.3505000000000  0.5072540000000 1.0
C      1  0.5540390000000  0.4916940000000  0.6040500000000 1.0
C      1  0.4683180000000  0.4966630000000  0.6068920000000 1.0
C      1  0.5906290000000  0.5273720000000  0.5633470000000 1.0
C      1  0.4141260000000  0.5231620000000  0.5663760000000 1.0
C      1  0.5133840000000  0.4342120000000  0.4664580000000 1.0
C      1  0.4860240000000  0.4329460000000  0.4636410000000 1.0
C      1  0.5616870000000  0.4950430000000  0.4771790000000 1.0
C      1  0.4348630000000  0.4966590000000  0.4749290000000 1.0
C      1  0.5151960000000  0.4881410000000  0.3906900000000 1.0
C      1  0.4845920000000  0.4883410000000  0.3900380000000 1.0
C      1  0.3933700000000  0.4684310000000  0.5018980000000 1.0
C      1  0.5978410000000  0.4688010000000  0.5074510000000 1.0
C      1  0.4416510000000  0.4212810000000  0.4569640000000 1.0
C      1  0.5573070000000  0.4222490000000  0.4607590000000 1.0
C      1  0.5745630000000  0.4717320000000  0.5239350000000 1.0
C      1  0.4178940000000  0.4734070000000  0.5155250000000 1.0
C      1  0.4404450000000  0.4857620000000  0.4165190000000 1.0
C      1  0.5581250000000  0.4855400000000  0.4190230000000 1.0
C      1  0.4475310000000  0.5831230000000  0.4428560000000 1.0
C      1  0.5518800000000  0.5834270000000  0.4415630000000 1.0
C      1  0.4724850000000  0.4387520000000  0.5250350000000 1.0
C      1  0.5174620000000  0.4338280000000  0.5306210000000 1.0
C      1  0.4634560000000  0.4723830000000  0.4027870000000 1.0
C      1  0.5352130000000  0.4723490000000  0.4052820000000 1.0
C      1  0.5303690000000  0.5286820000000  0.6092540000000 1.0
C      1  0.4636680000000  0.5418660000000  0.6181110000000 1.0
C      1  0.5957870000000  0.5478000000000  0.5410890000000 1.0
C      1  0.4073640000000  0.5447120000000  0.5443530000000 1.0
C      1  0.5229190000000  0.4500290000000  0.5874610000000 1.0
C      1  0.4904190000000  0.4359880000000  0.5884340000000 1.0
C      1  0.4968390000000  0.4797990000000  0.4340410000000 1.0
C      1  0.4924080000000  0.5064390000000  0.4365860000000 1.0
C      1  0.4043850000000  0.4546890000000  0.4775810000000 1.0
C      1  0.5895550000000  0.4554970000000  0.4829620000000 1.0
C      1  0.5196820000000  0.4957820000000  0.6168060000000 1.0
C      1  0.4931800000000  0.4895300000000  0.6142470000000 1.0
C      1  0.5070010000000  0.4535360000000  0.5471990000000 1.0
C      1  0.4806190000000  0.4622150000000  0.5405220000000 1.0
C      1  0.4282930000000  0.4942650000000  0.5298160000000 1.0
C      1  0.5630220000000  0.4873560000000  0.5439670000000 1.0
C      1  0.4888750000000  0.5503960000000  0.6220900000000 1.0
C      1  0.5136750000000  0.5519880000000  0.6082190000000 1.0
C      1  0.4722030000000  0.5095790000000  0.5350130000000 1.0
C      1  0.5239650000000  0.5082710000000  0.5333290000000 1.0
C      1  0.6274520000000  0.5036000000000  0.4894420000000 1.0
C      1  0.3663440000000  0.5077440000000  0.4926840000000 1.0
C      1  0.4317330000000  0.5194920000000  0.4920240000000 1.0
C      1  0.5692530000000  0.5148920000000  0.4954460000000 1.0
C      1  0.5648620000000  0.5289520000000  0.5743030000000 1.0
C      1  0.4409670000000  0.5272130000000  0.5775090000000 1.0
C      1  0.6055880000000  0.5418750000000  0.4687460000000 1.0
C      1  0.3943640000000  0.5416010000000  0.4711930000000 1.0
C      1  0.4197280000000  0.4750490000000  0.4617810000000 1.0
C      1  0.5767680000000  0.4741900000000  0.4649370000000 1.0
C      1  0.5564580000000  0.5199240000000  0.5987490000000 1.0
C      1  0.4539680000000  0.5205640000000  0.6020270000000 1.0
C      1  0.4729310000000  0.6110750000000  0.5086060000000 1.0
C      1  0.5271270000000  0.6106490000000  0.5082460000000 1.0
C      1  0.6192420000000  0.4865260000000  0.5111330000000 1.0
C      1  0.3741510000000  0.4871890000000  0.5113850000000 1.0
C      1  0.4661460000000  0.5848070000000  0.5166350000000 1.0
C      1  0.5346280000000  0.5844340000000  0.5159430000000 1.0
C      1  0.5141840000000  0.5690240000000  0.4669380000000 1.0
C      1  0.4862820000000  0.5671790000000  0.4641210000000 1.0
C      1  0.4870150000000  0.3295860000000  0.5085820000000 1.0
C      1  0.5136470000000  0.3308860000000  0.5108890000000 1.0
C      1  0.5764830000000  0.5710400000000  0.5385730000000 1.0
C      1  0.4248380000000  0.5698880000000  0.5407230000000 1.0
C      1  0.5520880000000  0.4445460000000  0.5871080000000 1.0
C      1  0.4575300000000  0.4323520000000  0.5776910000000 1.0
C      1  0.5769770000000  0.4284320000000  0.4844390000000 1.0
C      1  0.4197400000000  0.4268670000000  0.4798360000000 1.0
C      1  0.5286020000000  0.5227430000000  0.4597730000000 1.0
C      1  0.4723350000000  0.5165570000000  0.4535800000000 1.0
C      1  0.4275660000000  0.5862870000000  0.4631790000000 1.0
C      1  0.5724780000000  0.5866020000000  0.4613360000000 1.0
C      1  0.4335480000000  0.5133090000000  0.4164200000000 1.0
C      1  0.5651630000000  0.5129700000000  0.4173160000000 1.0
C      1  0.5144370000000  0.6153640000000  0.4610010000000 1.0
C      1  0.4852350000000  0.6147370000000  0.4612820000000 1.0
C      1  0.5302420000000  0.4113950000000  0.4663490000000 1.0
C      1  0.4694190000000  0.4097060000000  0.4627260000000 1.0
C      1  0.4856730000000  0.5407290000000  0.3881800000000 1.0
C      1  0.5160590000000  0.5407660000000  0.3862240000000 1.0
C      1  0.6166920000000  0.5045480000000  0.5339060000000 1.0
C      1  0.3828360000000  0.5022820000000  0.5361310000000 1.0
C      1  0.5754770000000  0.5847880000000  0.4882520000000 1.0
C      1  0.4246590000000  0.5845730000000  0.4901300000000 1.0
C      1  0.5173890000000  0.3895340000000  0.4803720000000 1.0
C      1  0.4825330000000  0.3883230000000  0.4778020000000 1.0
C      1  0.6169910000000  0.5308200000000  0.4922790000000 1.0
C      1  0.3825040000000  0.5319880000000  0.4955460000000 1.0
C      1  0.5361310000000  0.4904440000000  0.5524140000000 1.0
C      1  0.4499620000000  0.4965370000000  0.5467400000000 1.0
C      1  0.5129560000000  0.4283070000000  0.4095900000000 1.0
C      1  0.4861680000000  0.4285270000000  0.4082670000000 1.0
C      1  0.5911790000000  0.5425170000000  0.4457900000000 1.0
C      1  0.4086970000000  0.5418550000000  0.4478760000000 1.0
C      1  0.5616880000000  0.4252530000000  0.5673050000000 1.0
C      1  0.4449310000000  0.4143870000000  0.5574610000000 1.0
C      1  0.4870830000000  0.5866380000000  0.3985520000000 1.0
C      1  0.5144690000000  0.5872520000000  0.3958100000000 1.0
C      1  0.5213580000000  0.4535550000000  0.4854190000000 1.0
C      1  0.4741320000000  0.4526110000000  0.4790740000000 1.0
C      1  0.4291560000000  0.5395230000000  0.4271410000000 1.0
C      1  0.5704760000000  0.5397950000000  0.4258000000000 1.0
C      1  0.4232110000000  0.4206240000000  0.5374400000000 1.0
C      1  0.5808640000000  0.4275450000000  0.5451620000000 1.0
C      1  0.5153460000000  0.5757830000000  0.5909880000000 1.0
C      1  0.4904510000000  0.5879600000000  0.5832930000000 1.0
C      1  0.5566300000000  0.3920970000000  0.5112380000000 1.0
C      1  0.4411880000000  0.3880800000000  0.5040710000000 1.0
C      1  0.5564500000000  0.5322010000000  0.5113590000000 1.0
C      1  0.4460990000000  0.5356730000000  0.5083990000000 1.0
C      1  0.4634700000000  0.4444340000000  0.4128520000000 1.0
C      1  0.5352880000000  0.4443310000000  0.4154220000000 1.0
C      1  0.6120870000000  0.5327000000000  0.5218570000000 1.0
C      1  0.3896280000000  0.5310030000000  0.5250220000000 1.0
C      1  0.5337020000000  0.5364220000000  0.5317880000000 1.0
C      1  0.4672830000000  0.5382490000000  0.5314090000000 1.0
C      1  0.5988380000000  0.4490030000000  0.5554960000000 1.0
C      1  0.4054610000000  0.4409960000000  0.5490890000000 1.0
END
