TITL C-74083-3671-90 460.022842835248 125000 -810.33021755287 0 0 131 (C1) n - 1
REM
REM in /home/nfs/bkarasulu/CARBON/AIRSS/Generating-Clusters/LCBOP/Higher-Symm/SD-CG/FIRE-CG
REM
REM
REM
REM
REM
REM ./C.cell (b20cbc046b6831c77cfcea5457e17084)
REM AIRSS Version 0.9.1 bugfix July 2018 build 013d7b7c2542+ Fri, 06 Jul 2018 19:26:36 +0100
REM compiler GCC version 9.2.1 20190827 (Red Hat 9.2.1-1)
REM options -cpp -mtune=generic -march=x86-64 -g -O0 -fpre-include=/usr/include/finclude/math-vector-fortran.h
REM seed -1090521730 -744722548 -265618382 -1232972283 -1195456362 793604236 1876168287 419738732 1883413456 149616536 875582739 2117295307 312217823 -901359231 1143403119 -721877879 2041546777 1696216253 -1477840727 -210974521 -710555071 952503025 2117704288 -1127497182 -1965656202 1856745639 331688085 50911600 -849018183 119706450 -1543199610 -559006305 -207466546
REM
CELL 1.54180   50.00000   50.00000   50.00000   90.00000   90.00000   90.00000
LATT -1
SFAC C  
C      1  0.5528970000000  0.4728280000000  0.4282200000000 1.0
C      1  0.5005800000000  0.5583340000000  0.4305670000000 1.0
C      1  0.4540620000000  0.4703150000000  0.4276380000000 1.0
C      1  0.5258660000000  0.5185080000000  0.3867210000000 1.0
C      1  0.4764740000000  0.5131310000000  0.3861510000000 1.0
C      1  0.5060330000000  0.4729710000000  0.3848730000000 1.0
C      1  0.5632590000000  0.4376910000000  0.4821170000000 1.0
C      1  0.4888150000000  0.6284590000000  0.4463720000000 1.0
C      1  0.4195660000000  0.4775830000000  0.4809190000000 1.0
C      1  0.5158760000000  0.3935590000000  0.4929000000000 1.0
C      1  0.5882350000000  0.5608270000000  0.4957700000000 1.0
C      1  0.4044120000000  0.5384410000000  0.4974490000000 1.0
C      1  0.5700340000000  0.5590570000000  0.6123040000000 1.0
C      1  0.3898820000000  0.4805710000000  0.5939030000000 1.0
C      1  0.5420280000000  0.4068310000000  0.6020470000000 1.0
C      1  0.4688810000000  0.4310590000000  0.5096920000000 1.0
C      1  0.5748380000000  0.4989270000000  0.5149510000000 1.0
C      1  0.4653600000000  0.5607660000000  0.5163360000000 1.0
C      1  0.4447900000000  0.5193930000000  0.5690610000000 1.0
C      1  0.4953060000000  0.4423620000000  0.5608910000000 1.0
C      1  0.5470940000000  0.5223510000000  0.5650170000000 1.0
C      1  0.5425490000000  0.4550360000000  0.5993340000000 1.0
C      1  0.5314720000000  0.5815380000000  0.5926160000000 1.0
C      1  0.4364020000000  0.4671170000000  0.5946750000000 1.0
C      1  0.5206340000000  0.4796900000000  0.4606750000000 1.0
C      1  0.5095860000000  0.5268810000000  0.4636500000000 1.0
C      1  0.4752810000000  0.4937310000000  0.4615460000000 1.0
C      1  0.5280970000000  0.4630370000000  0.4392630000000 1.0
C      1  0.5211900000000  0.5425270000000  0.4432820000000 1.0
C      1  0.4571240000000  0.4961940000000  0.4402040000000 1.0
C      1  0.5651320000000  0.5666600000000  0.5431000000000 1.0
C      1  0.4068260000000  0.5053170000000  0.5402990000000 1.0
C      1  0.5320780000000  0.4116550000000  0.5420260000000 1.0
C      1  0.5497860000000  0.5119710000000  0.5119570000000 1.0
C      1  0.4647800000000  0.5317800000000  0.5149940000000 1.0
C      1  0.4916320000000  0.4483950000000  0.5086280000000 1.0
C      1  0.5785470000000  0.5014760000000  0.4622950000000 1.0
C      1  0.4615550000000  0.5633760000000  0.4631460000000 1.0
C      1  0.4676280000000  0.4307320000000  0.4578940000000 1.0
C      1  0.3929850000000  0.4859950000000  0.4804980000000 1.0
C      1  0.5716900000000  0.4116430000000  0.4872400000000 1.0
C      1  0.4922100000000  0.6547110000000  0.4475880000000 1.0
C      1  0.5262810000000  0.5524300000000  0.4997210000000 1.0
C      1  0.4413010000000  0.4910350000000  0.4942830000000 1.0
C      1  0.5393990000000  0.4495150000000  0.4927070000000 1.0
C      1  0.5053250000000  0.5376810000000  0.4892260000000 1.0
C      1  0.4666770000000  0.4830790000000  0.4860010000000 1.0
C      1  0.5333530000000  0.4758180000000  0.4853490000000 1.0
C      1  0.5694540000000  0.5284550000000  0.4548530000000 1.0
C      1  0.4425600000000  0.5423750000000  0.4553480000000 1.0
C      1  0.4956020000000  0.4257820000000  0.4506660000000 1.0
C      1  0.4856770000000  0.4754500000000  0.5051940000000 1.0
C      1  0.5288720000000  0.4948550000000  0.5055520000000 1.0
C      1  0.4903920000000  0.5223840000000  0.5080360000000 1.0
C      1  0.4154690000000  0.4840340000000  0.5845290000000 1.0
C      1  0.5344530000000  0.4294980000000  0.5882220000000 1.0
C      1  0.5538260000000  0.5633970000000  0.5905740000000 1.0
C      1  0.4978840000000  0.4474300000000  0.4061080000000 1.0
C      1  0.5501020000000  0.5231520000000  0.4097950000000 1.0
C      1  0.4587140000000  0.5320210000000  0.4090800000000 1.0
C      1  0.5176990000000  0.4376930000000  0.5063930000000 1.0
C      1  0.5487650000000  0.5396130000000  0.5098280000000 1.0
C      1  0.4420140000000  0.5146470000000  0.5106950000000 1.0
C      1  0.4496810000000  0.5233660000000  0.4340060000000 1.0
C      1  0.5089560000000  0.4430730000000  0.4312880000000 1.0
C      1  0.5479780000000  0.5338340000000  0.4355250000000 1.0
C      1  0.4483730000000  0.4493720000000  0.4466600000000 1.0
C      1  0.5732590000000  0.4765870000000  0.4482880000000 1.0
C      1  0.4825090000000  0.5743600000000  0.4464320000000 1.0
C      1  0.3964750000000  0.4796710000000  0.5336160000000 1.0
C      1  0.5604710000000  0.4134820000000  0.5434650000000 1.0
C      1  0.5506330000000  0.5911820000000  0.5411910000000 1.0
C      1  0.5809190000000  0.5495390000000  0.4704660000000 1.0
C      1  0.4193100000000  0.5400460000000  0.4724660000000 1.0
C      1  0.5090240000000  0.4062750000000  0.4675210000000 1.0
C      1  0.5336130000000  0.4610110000000  0.6247220000000 1.0
C      1  0.5343320000000  0.6042820000000  0.6077650000000 1.0
C      1  0.4438510000000  0.4702000000000  0.6209590000000 1.0
C      1  0.4668000000000  0.4371870000000  0.5588550000000 1.0
C      1  0.5545950000000  0.4915640000000  0.5609700000000 1.0
C      1  0.4902910000000  0.5622440000000  0.5616830000000 1.0
C      1  0.4925270000000  0.5344930000000  0.5661750000000 1.0
C      1  0.4819240000000  0.4887880000000  0.5671330000000 1.0
C      1  0.5271300000000  0.4794950000000  0.5524560000000 1.0
C      1  0.5016720000000  0.4703460000000  0.5601350000000 1.0
C      1  0.5189100000000  0.5250430000000  0.5689660000000 1.0
C      1  0.4723410000000  0.5150990000000  0.5682100000000 1.0
C      1  0.5068050000000  0.5772700000000  0.5793630000000 1.0
C      1  0.4499040000000  0.4477130000000  0.5791920000000 1.0
C      1  0.5583700000000  0.4750150000000  0.5862120000000 1.0
C      1  0.4854970000000  0.6021970000000  0.4455220000000 1.0
C      1  0.4265790000000  0.4560110000000  0.4637890000000 1.0
C      1  0.5781150000000  0.4531640000000  0.4636300000000 1.0
C      1  0.5706340000000  0.5553400000000  0.5175880000000 1.0
C      1  0.4159090000000  0.5223700000000  0.5186310000000 1.0
C      1  0.5211630000000  0.4111390000000  0.5153110000000 1.0
C      1  0.4604480000000  0.5720880000000  0.4905660000000 1.0
C      1  0.4609150000000  0.4215210000000  0.4843350000000 1.0
C      1  0.5882190000000  0.4980140000000  0.4897390000000 1.0
C      1  0.5860460000000  0.4581660000000  0.5411910000000 1.0
C      1  0.5009640000000  0.5940080000000  0.5280260000000 1.0
C      1  0.4258950000000  0.4371440000000  0.5318630000000 1.0
C      1  0.5820980000000  0.3873100000000  0.4886340000000 1.0
C      1  0.4956150000000  0.6809680000000  0.4488430000000 1.0
C      1  0.3671050000000  0.4903550000000  0.4767910000000 1.0
C      1  0.5193220000000  0.3400460000000  0.4980630000000 1.0
C      1  0.6326060000000  0.5906460000000  0.5023290000000 1.0
C      1  0.3573190000000  0.5637640000000  0.5040640000000 1.0
C      1  0.4989630000000  0.7067920000000  0.4500810000000 1.0
C      1  0.3417090000000  0.4955130000000  0.4739760000000 1.0
C      1  0.5912830000000  0.3630270000000  0.4909770000000 1.0
C      1  0.5170360000000  0.3658630000000  0.4953590000000 1.0
C      1  0.6112470000000  0.5761330000000  0.4988190000000 1.0
C      1  0.3803990000000  0.5521010000000  0.5008440000000 1.0
C      1  0.5184780000000  0.4254970000000  0.5641040000000 1.0
C      1  0.5593840000000  0.5491870000000  0.5659310000000 1.0
C      1  0.4208470000000  0.5051380000000  0.5656560000000 1.0
C      1  0.4829140000000  0.5733990000000  0.5359730000000 1.0
C      1  0.4536580000000  0.4319710000000  0.5336240000000 1.0
C      1  0.5758560000000  0.4845660000000  0.5398270000000 1.0
C      1  0.5007760000000  0.5302930000000  0.3872220000000 1.0
C      1  0.4787670000000  0.4854460000000  0.3856970000000 1.0
C      1  0.5290840000000  0.4885900000000  0.3859300000000 1.0
C      1  0.4906540000000  0.5489640000000  0.4063790000000 1.0
C      1  0.4673120000000  0.4661050000000  0.4037290000000 1.0
C      1  0.5507530000000  0.4877690000000  0.4050570000000 1.0
C      1  0.4054060000000  0.4543770000000  0.5317670000000 1.0
C      1  0.5797240000000  0.4321990000000  0.5430770000000 1.0
C      1  0.5268120000000  0.6002810000000  0.5324800000000 1.0
C      1  0.5020990000000  0.5004080000000  0.4585610000000 1.0
C      1  0.5017860000000  0.4972160000000  0.5129170000000 1.0
END
