TITL C-74085-4933-209 -1.20146988932599e-06 125000 -923.159057896907 0 0 146 (C1) n - 1
REM
REM in /home/nfs/bkarasulu/CARBON/AIRSS/Generating-Clusters/LCBOP/Higher-Symm/SD-CG/FIRE-CG
REM
REM
REM
REM
REM
REM ./C.cell (b20cbc046b6831c77cfcea5457e17084)
REM AIRSS Version 0.9.1 bugfix July 2018 build 013d7b7c2542+ Fri, 06 Jul 2018 19:26:36 +0100
REM compiler GCC version 9.2.1 20190827 (Red Hat 9.2.1-1)
REM options -cpp -mtune=generic -march=x86-64 -g -O0 -fpre-include=/usr/include/finclude/math-vector-fortran.h
REM seed 75678679 1183247628 -321539665 -1381024929 1285389201 1683619787 -1236780861 924085147 1489588031 854539941 -346516790 1786219432 -185963617 414666903 -1706470842 -542105183 213313994 -836640628 1705699400 -885080 -138290717 -191764173 2119357070 -1441529442 1701379395 1209361460 1939915890 1680587125 643906839 1412252934 1009950060 325490124 -1590900251
REM
CELL 1.54180   50.00000   50.00000   50.00000   90.00000   90.00000   90.00000
LATT -1
SFAC C  
C      1  0.5375600000000  0.5588660000000  0.5424270000000 1.0
C      1  0.4401120000000  0.5618310000000  0.5174220000000 1.0
C      1  0.5084380000000  0.5549880000000  0.4490640000000 1.0
C      1  0.5372580000000  0.4539930000000  0.5343040000000 1.0
C      1  0.4519500000000  0.4553050000000  0.5144850000000 1.0
C      1  0.5114310000000  0.4526740000000  0.4505680000000 1.0
C      1  0.5254720000000  0.4072110000000  0.4885770000000 1.0
C      1  0.4975200000000  0.4082050000000  0.5271200000000 1.0
C      1  0.4783960000000  0.4079470000000  0.4837140000000 1.0
C      1  0.5105330000000  0.5042440000000  0.4301610000000 1.0
C      1  0.5540830000000  0.5059570000000  0.5422830000000 1.0
C      1  0.4367940000000  0.5079220000000  0.5246670000000 1.0
C      1  0.4941850000000  0.4498870000000  0.4057910000000 1.0
C      1  0.5844540000000  0.4502580000000  0.5413300000000 1.0
C      1  0.4223360000000  0.4510380000000  0.5517570000000 1.0
C      1  0.4434550000000  0.4737500000000  0.4125280000000 1.0
C      1  0.6034710000000  0.4733830000000  0.4938860000000 1.0
C      1  0.4538240000000  0.4740460000000  0.5922750000000 1.0
C      1  0.5004530000000  0.5494250000000  0.4757140000000 1.0
C      1  0.5168400000000  0.5559000000000  0.5234920000000 1.0
C      1  0.4669740000000  0.5552480000000  0.5117160000000 1.0
C      1  0.5531540000000  0.4430490000000  0.4108740000000 1.0
C      1  0.5508260000000  0.4435330000000  0.5899220000000 1.0
C      1  0.3977580000000  0.4440480000000  0.4981170000000 1.0
C      1  0.4556600000000  0.5213300000000  0.4780460000000 1.0
C      1  0.5430930000000  0.5156390000000  0.4671450000000 1.0
C      1  0.5061370000000  0.5164510000000  0.5534910000000 1.0
C      1  0.4378230000000  0.4365890000000  0.5316060000000 1.0
C      1  0.5035190000000  0.4346730000000  0.4290100000000 1.0
C      1  0.5594270000000  0.4355620000000  0.5379380000000 1.0
C      1  0.4666540000000  0.4314490000000  0.4726170000000 1.0
C      1  0.5412350000000  0.4298500000000  0.4829550000000 1.0
C      1  0.4943960000000  0.4308110000000  0.5436270000000 1.0
C      1  0.5080100000000  0.5316800000000  0.5782590000000 1.0
C      1  0.4300720000000  0.5330530000000  0.4659220000000 1.0
C      1  0.5637280000000  0.5306000000000  0.4532680000000 1.0
C      1  0.5161230000000  0.6052420000000  0.5486140000000 1.0
C      1  0.4508180000000  0.6035230000000  0.4897020000000 1.0
C      1  0.5333770000000  0.6025340000000  0.4622300000000 1.0
C      1  0.4182690000000  0.4934340000000  0.4497210000000 1.0
C      1  0.5851360000000  0.4917770000000  0.4523170000000 1.0
C      1  0.4990200000000  0.4926060000000  0.5973590000000 1.0
C      1  0.4891030000000  0.5578000000000  0.5291130000000 1.0
C      1  0.4740640000000  0.5434480000000  0.4866080000000 1.0
C      1  0.5205580000000  0.5518110000000  0.4958450000000 1.0
C      1  0.5556090000000  0.5875450000000  0.4587090000000 1.0
C      1  0.5074070000000  0.5909510000000  0.5701180000000 1.0
C      1  0.4374320000000  0.5893440000000  0.4707690000000 1.0
C      1  0.6169460000000  0.4555390000000  0.5778420000000 1.0
C      1  0.3743590000000  0.4564060000000  0.5611920000000 1.0
C      1  0.5097130000000  0.4556340000000  0.3595260000000 1.0
C      1  0.3954860000000  0.4577690000000  0.5439610000000 1.0
C      1  0.5143490000000  0.4568540000000  0.3864230000000 1.0
C      1  0.5913730000000  0.4570540000000  0.5684030000000 1.0
C      1  0.4448600000000  0.5749750000000  0.4467530000000 1.0
C      1  0.5716310000000  0.5726170000000  0.4771910000000 1.0
C      1  0.4835830000000  0.5751510000000  0.5751870000000 1.0
C      1  0.5240090000000  0.4716190000000  0.5552360000000 1.0
C      1  0.4415600000000  0.4736700000000  0.4922600000000 1.0
C      1  0.5361360000000  0.4704730000000  0.4514820000000 1.0
C      1  0.4877650000000  0.4837890000000  0.5242880000000 1.0
C      1  0.4846230000000  0.4816550000000  0.4758210000000 1.0
C      1  0.5278060000000  0.4828320000000  0.4978500000000 1.0
C      1  0.4358160000000  0.5477940000000  0.4416510000000 1.0
C      1  0.5807360000000  0.5458180000000  0.4708360000000 1.0
C      1  0.4844200000000  0.5473820000000  0.5846780000000 1.0
C      1  0.5666030000000  0.4697560000000  0.4532670000000 1.0
C      1  0.5074700000000  0.4706030000000  0.5807950000000 1.0
C      1  0.4282050000000  0.4716630000000  0.4653030000000 1.0
C      1  0.5589360000000  0.4271170000000  0.4603390000000 1.0
C      1  0.5050780000000  0.4279850000000  0.5702820000000 1.0
C      1  0.4379700000000  0.4288560000000  0.4688010000000 1.0
C      1  0.5593440000000  0.5567570000000  0.5582820000000 1.0
C      1  0.4149630000000  0.5581740000000  0.5265590000000 1.0
C      1  0.5177690000000  0.5550980000000  0.4235350000000 1.0
C      1  0.5681120000000  0.5846920000000  0.5028680000000 1.0
C      1  0.4632860000000  0.5884820000000  0.5593930000000 1.0
C      1  0.4686650000000  0.5877740000000  0.4375210000000 1.0
C      1  0.5033600000000  0.4020190000000  0.4707110000000 1.0
C      1  0.5239830000000  0.4025930000000  0.5169820000000 1.0
C      1  0.4736990000000  0.4032310000000  0.5117700000000 1.0
C      1  0.4835900000000  0.5100260000000  0.4351960000000 1.0
C      1  0.5617090000000  0.5127500000000  0.5161270000000 1.0
C      1  0.4550360000000  0.5136440000000  0.5451810000000 1.0
C      1  0.4823000000000  0.5061350000000  0.5413940000000 1.0
C      1  0.4733660000000  0.5032740000000  0.4608690000000 1.0
C      1  0.5450520000000  0.5053520000000  0.4940540000000 1.0
C      1  0.5693200000000  0.4651460000000  0.5851230000000 1.0
C      1  0.3923590000000  0.4656540000000  0.5163790000000 1.0
C      1  0.5399850000000  0.4647370000000  0.3970790000000 1.0
C      1  0.3892810000000  0.5066760000000  0.4853620000000 1.0
C      1  0.5697300000000  0.5049580000000  0.4085900000000 1.0
C      1  0.5447090000000  0.5059550000000  0.6043970000000 1.0
C      1  0.4292000000000  0.4508160000000  0.4223690000000 1.0
C      1  0.6028230000000  0.4500030000000  0.4771730000000 1.0
C      1  0.4686290000000  0.4506480000000  0.5999910000000 1.0
C      1  0.5773560000000  0.5129030000000  0.4345940000000 1.0
C      1  0.5181040000000  0.5139480000000  0.5991020000000 1.0
C      1  0.4078290000000  0.5146350000000  0.4655940000000 1.0
C      1  0.5066850000000  0.6063650000000  0.4714110000000 1.0
C      1  0.5217390000000  0.6071110000000  0.5205170000000 1.0
C      1  0.4717840000000  0.6072710000000  0.5089030000000 1.0
C      1  0.5806150000000  0.5377720000000  0.5601010000000 1.0
C      1  0.4053230000000  0.5362580000000  0.5420220000000 1.0
C      1  0.5129030000000  0.5380320000000  0.4008630000000 1.0
C      1  0.4848950000000  0.5371390000000  0.3949720000000 1.0
C      1  0.5975760000000  0.5378920000000  0.5370720000000 1.0
C      1  0.4175720000000  0.5350760000000  0.5678280000000 1.0
C      1  0.4084060000000  0.5111690000000  0.5282050000000 1.0
C      1  0.5230120000000  0.5110470000000  0.4050900000000 1.0
C      1  0.5708940000000  0.5109680000000  0.5652550000000 1.0
C      1  0.5035880000000  0.4083210000000  0.4419000000000 1.0
C      1  0.5486430000000  0.4092550000000  0.5315440000000 1.0
C      1  0.4487550000000  0.4102670000000  0.5256360000000 1.0
C      1  0.4456870000000  0.5014290000000  0.4991830000000 1.0
C      1  0.5281910000000  0.4980650000000  0.4504950000000 1.0
C      1  0.5281040000000  0.4992370000000  0.5485760000000 1.0
C      1  0.5991940000000  0.4980070000000  0.4773950000000 1.0
C      1  0.4702720000000  0.4986890000000  0.5971610000000 1.0
C      1  0.4315740000000  0.4988120000000  0.4242400000000 1.0
C      1  0.5323670000000  0.4256950000000  0.5801110000000 1.0
C      1  0.4157230000000  0.4263250000000  0.4873040000000 1.0
C      1  0.5538260000000  0.4251270000000  0.4317230000000 1.0
C      1  0.4642930000000  0.6033290000000  0.5364480000000 1.0
C      1  0.4870060000000  0.6024690000000  0.4510960000000 1.0
C      1  0.5487130000000  0.6006640000000  0.5132320000000 1.0
C      1  0.4692100000000  0.5251200000000  0.4151540000000 1.0
C      1  0.5870840000000  0.5261560000000  0.5136290000000 1.0
C      1  0.4443270000000  0.5261130000000  0.5688240000000 1.0
C      1  0.5452500000000  0.4937890000000  0.3991620000000 1.0
C      1  0.5646940000000  0.4941560000000  0.5877640000000 1.0
C      1  0.3926640000000  0.4945400000000  0.5109410000000 1.0
C      1  0.5797620000000  0.4458190000000  0.4622080000000 1.0
C      1  0.4931370000000  0.4466270000000  0.5874980000000 1.0
C      1  0.4289460000000  0.4474910000000  0.4499630000000 1.0
C      1  0.4701500000000  0.4660150000000  0.4052630000000 1.0
C      1  0.5964950000000  0.4664260000000  0.5207150000000 1.0
C      1  0.4341160000000  0.4670970000000  0.5726720000000 1.0
C      1  0.5357920000000  0.4565700000000  0.5047430000000 1.0
C      1  0.4781590000000  0.4574850000000  0.5283500000000 1.0
C      1  0.4861370000000  0.4545850000000  0.4667270000000 1.0
C      1  0.4633790000000  0.5265520000000  0.5895490000000 1.0
C      1  0.4417760000000  0.5265650000000  0.4213770000000 1.0
C      1  0.5958160000000  0.5259250000000  0.4869180000000 1.0
C      1  0.4999470000000  0.4871070000000  0.4990440000000 1.0
C      1  0.5001110000000  0.6085270000000  0.5002250000000 1.0
END
