TITL C-74080-5790-408 694.401638244418 125000 -284.102849319691 0 0 48 (C1) n - 1
REM
REM in /home/nfs/bkarasulu/CARBON/AIRSS/Generating-Clusters/LCBOP/Higher-Symm/SD-CG/FIRE-CG
REM
REM
REM
REM
REM
REM ./C.cell (b20cbc046b6831c77cfcea5457e17084)
REM AIRSS Version 0.9.1 bugfix July 2018 build 013d7b7c2542+ Fri, 06 Jul 2018 19:26:36 +0100
REM compiler GCC version 9.2.1 20190827 (Red Hat 9.2.1-1)
REM options -cpp -mtune=generic -march=x86-64 -g -O0 -fpre-include=/usr/include/finclude/math-vector-fortran.h
REM seed 847934827 461154847 1358913907 1826544214 1294216362 -1276798020 1934604424 -1498919680 795043382 773889847 831538312 1163687177 -1909581883 -159215359 918093449 -903012231 -240580825 -1249772751 -556829066 1289880698 -1349205206 -1877554227 -591416097 -925023823 -123924398 2045159558 -349484723 -1451139694 956497043 2037258374 -1990009556 -685932766 -1593830973
REM
CELL 1.54180   50.00000   50.00000   50.00000   90.00000   90.00000   90.00000
LATT -1
SFAC C  
C      1  0.4492660000000  0.4985310000000  0.5178550000000 1.0
C      1  0.3501730000000  0.5279180000000  0.4971560000000 1.0
C      1  0.4610110000000  0.5026990000000  0.4493740000000 1.0
C      1  0.5597970000000  0.5259550000000  0.4657340000000 1.0
C      1  0.5356950000000  0.4447500000000  0.4760270000000 1.0
C      1  0.5838760000000  0.4827480000000  0.5355070000000 1.0
C      1  0.5476810000000  0.5140690000000  0.5694400000000 1.0
C      1  0.5052040000000  0.5446770000000  0.4748210000000 1.0
C      1  0.4893600000000  0.4453180000000  0.5114700000000 1.0
C      1  0.4758590000000  0.4912740000000  0.5141290000000 1.0
C      1  0.5046240000000  0.4992220000000  0.5550760000000 1.0
C      1  0.4984230000000  0.5355810000000  0.5209990000000 1.0
C      1  0.5640340000000  0.4632490000000  0.5381400000000 1.0
C      1  0.5637120000000  0.5347660000000  0.4919510000000 1.0
C      1  0.5225660000000  0.4662690000000  0.4639710000000 1.0
C      1  0.4962120000000  0.4759380000000  0.4721150000000 1.0
C      1  0.5403430000000  0.4664460000000  0.5550610000000 1.0
C      1  0.5431530000000  0.5484730000000  0.5076450000000 1.0
C      1  0.5199850000000  0.4465990000000  0.5507610000000 1.0
C      1  0.5492360000000  0.5508290000000  0.5356600000000 1.0
C      1  0.4868150000000  0.5003740000000  0.4594930000000 1.0
C      1  0.5349170000000  0.4334020000000  0.5085570000000 1.0
C      1  0.5814700000000  0.5170850000000  0.5365440000000 1.0
C      1  0.5312190000000  0.5139680000000  0.4502730000000 1.0
C      1  0.5901800000000  0.4932130000000  0.5012360000000 1.0
C      1  0.5662970000000  0.4904570000000  0.4606180000000 1.0
C      1  0.5685990000000  0.4530380000000  0.4892660000000 1.0
C      1  0.4239000000000  0.5060490000000  0.5166580000000 1.0
C      1  0.3264050000000  0.5347620000000  0.4876460000000 1.0
C      1  0.4352870000000  0.5052210000000  0.4435880000000 1.0
C      1  0.5307350000000  0.4920760000000  0.5642360000000 1.0
C      1  0.5150550000000  0.5475300000000  0.5011250000000 1.0
C      1  0.4841380000000  0.4693180000000  0.4975340000000 1.0
C      1  0.3027230000000  0.5415540000000  0.4778670000000 1.0
C      1  0.4092390000000  0.5078550000000  0.4394490000000 1.0
C      1  0.3988740000000  0.5135450000000  0.5122200000000 1.0
C      1  0.5615130000000  0.5302330000000  0.5509420000000 1.0
C      1  0.5057800000000  0.5218350000000  0.4583020000000 1.0
C      1  0.5126790000000  0.4371540000000  0.5249670000000 1.0
C      1  0.5839290000000  0.5207570000000  0.5070490000000 1.0
C      1  0.5395400000000  0.4855390000000  0.4510520000000 1.0
C      1  0.5614010000000  0.4449200000000  0.5159750000000 1.0
C      1  0.3742890000000  0.5208650000000  0.5055730000000 1.0
C      1  0.2794460000000  0.5482270000000  0.4682090000000 1.0
C      1  0.3836150000000  0.5104380000000  0.4353990000000 1.0
C      1  0.5790760000000  0.4774150000000  0.4814190000000 1.0
C      1  0.5244000000000  0.4966770000000  0.5118950000000 1.0
C      1  0.4985500000000  0.5062250000000  0.5266600000000 1.0
END
