TITL C-74079-2735-310 1.19740709941071e-07 125000 -28.9607206883077 0 0 8 (D3d) n - 1
REM
REM in /home/nfs/bkarasulu/CARBON/AIRSS/Generating-Clusters/LCBOP/Higher-Symm/SD-CG/FIRE-CG
REM
REM
REM
REM
REM
REM ./C.cell (b20cbc046b6831c77cfcea5457e17084)
REM AIRSS Version 0.9.1 bugfix July 2018 build 013d7b7c2542+ Fri, 06 Jul 2018 19:26:36 +0100
REM compiler GCC version 9.2.1 20190827 (Red Hat 9.2.1-1)
REM options -cpp -mtune=generic -march=x86-64 -g -O0 -fpre-include=/usr/include/finclude/math-vector-fortran.h
REM seed 1840644791 -1125086512 1346071255 -131122904 1432590526 -1281787910 -797373078 338363502 -2123134599 -1743852210 -673320871 1933435508 -1330140026 -97135644 -734595506 -1717024176 72045670 -1764656098 -1846135153 1073740903 -1682157795 1107336629 1479304072 -1286131199 -2076425683 1245899151 1891457039 613321008 -2136653971 -1843022534 1784619934 -1506293957 -1881879861
REM
CELL 1.54180   50.00000   50.00000   50.00000   90.00000   90.00000   90.00000
LATT -1
SFAC C  
C      1  0.4873650000000  0.5176630000000  0.5190350000000 1.0
C      1  0.5191830000000  0.4868220000000  0.5180670000000 1.0
C      1  0.5182100000000  0.5186330000000  0.4872200000000 1.0
C      1  0.4842740000000  0.4837200000000  0.4841280000000 1.0
C      1  0.4825950000000  0.5128880000000  0.4814790000000 1.0
C      1  0.5134420000000  0.4810760000000  0.4824530000000 1.0
C      1  0.5165340000000  0.5159890000000  0.5163890000000 1.0
C      1  0.4816270000000  0.4820460000000  0.5132960000000 1.0
END
