TITL C-74084-3399-65 0.0445521174430172 125000 -680.958307406931 0 0 113 (C1) n - 1
REM
REM in /home/nfs/bkarasulu/CARBON/AIRSS/Generating-Clusters/LCBOP/Higher-Symm/SD-CG/FIRE-CG
REM
REM
REM
REM
REM
REM ./C.cell (b20cbc046b6831c77cfcea5457e17084)
REM AIRSS Version 0.9.1 bugfix July 2018 build 013d7b7c2542+ Fri, 06 Jul 2018 19:26:36 +0100
REM compiler GCC version 9.2.1 20190827 (Red Hat 9.2.1-1)
REM options -cpp -mtune=generic -march=x86-64 -g -O0 -fpre-include=/usr/include/finclude/math-vector-fortran.h
REM seed -2100775512 -556281533 -1656605621 47206889 133027220 -508677950 -575882674 -988308544 1867259055 596907915 -418063059 -902769065 -995442792 1385430541 -169636154 -1155988793 -1472548394 -843526218 -1321365376 -983996274 -1068617543 9450462 1253168219 1883560043 -342992354 -24150721 340362738 -527397022 -373095803 1611621189 -124654804 1744231047 -2091950437
REM
CELL 1.54180   50.00000   50.00000   50.00000   90.00000   90.00000   90.00000
LATT -1
SFAC C  
C      1  0.5296510000000  0.4108560000000  0.5570240000000 1.0
C      1  0.4619420000000  0.4753480000000  0.4714880000000 1.0
C      1  0.5143540000000  0.4641110000000  0.4158780000000 1.0
C      1  0.5658960000000  0.5449000000000  0.4352740000000 1.0
C      1  0.5093480000000  0.5147110000000  0.5590770000000 1.0
C      1  0.5199710000000  0.5394230000000  0.4227130000000 1.0
C      1  0.5732770000000  0.5117440000000  0.5682560000000 1.0
C      1  0.4659820000000  0.4942250000000  0.4934640000000 1.0
C      1  0.6015940000000  0.5023770000000  0.4773920000000 1.0
C      1  0.4531440000000  0.5611630000000  0.4251120000000 1.0
C      1  0.6028440000000  0.4614240000000  0.5162480000000 1.0
C      1  0.5755500000000  0.4996730000000  0.4664640000000 1.0
C      1  0.4340450000000  0.4978900000000  0.5619030000000 1.0
C      1  0.5082060000000  0.5037840000000  0.4577760000000 1.0
C      1  0.4431870000000  0.5684050000000  0.5234520000000 1.0
C      1  0.5014980000000  0.4036410000000  0.5184240000000 1.0
C      1  0.5342770000000  0.5532470000000  0.5353410000000 1.0
C      1  0.4609580000000  0.5064470000000  0.5565150000000 1.0
C      1  0.5809940000000  0.4430250000000  0.5121010000000 1.0
C      1  0.4261420000000  0.5471320000000  0.5317430000000 1.0
C      1  0.5708850000000  0.4868320000000  0.4414850000000 1.0
C      1  0.5359900000000  0.4805880000000  0.4087580000000 1.0
C      1  0.5927380000000  0.5586530000000  0.4997290000000 1.0
C      1  0.4816570000000  0.4659650000000  0.4519300000000 1.0
C      1  0.4873550000000  0.4662290000000  0.6094330000000 1.0
C      1  0.4986230000000  0.4279220000000  0.5038610000000 1.0
C      1  0.5295920000000  0.5146090000000  0.4729980000000 1.0
C      1  0.5779220000000  0.4594560000000  0.4423950000000 1.0
C      1  0.6032440000000  0.5090800000000  0.5051720000000 1.0
C      1  0.5521140000000  0.4503510000000  0.5793600000000 1.0
C      1  0.4043360000000  0.5245170000000  0.4934980000000 1.0
C      1  0.5730400000000  0.4463210000000  0.5604320000000 1.0
C      1  0.4948340000000  0.5302810000000  0.4108690000000 1.0
C      1  0.5038930000000  0.4740560000000  0.5175420000000 1.0
C      1  0.4864660000000  0.5029820000000  0.4120200000000 1.0
C      1  0.4736460000000  0.5492870000000  0.4094540000000 1.0
C      1  0.5692200000000  0.4382430000000  0.4860500000000 1.0
C      1  0.5064310000000  0.5953610000000  0.5551760000000 1.0
C      1  0.5162040000000  0.5592190000000  0.4439780000000 1.0
C      1  0.3955300000000  0.6083430000000  0.3949360000000 1.0
C      1  0.4089910000000  0.4277110000000  0.4968060000000 1.0
C      1  0.5527600000000  0.4989430000000  0.4223710000000 1.0
C      1  0.4327850000000  0.5601990000000  0.4720550000000 1.0
C      1  0.3595620000000  0.4207180000000  0.4867270000000 1.0
C      1  0.4922820000000  0.4970680000000  0.5059070000000 1.0
C      1  0.4142380000000  0.5004940000000  0.5406240000000 1.0
C      1  0.3934230000000  0.4762260000000  0.4393980000000 1.0
C      1  0.4386560000000  0.5747340000000  0.4958010000000 1.0
C      1  0.3839290000000  0.4186730000000  0.4974260000000 1.0
C      1  0.4920690000000  0.5592240000000  0.5828510000000 1.0
C      1  0.3458850000000  0.4339010000000  0.4679370000000 1.0
C      1  0.5715430000000  0.5606900000000  0.4562670000000 1.0
C      1  0.5882960000000  0.4957130000000  0.5502790000000 1.0
C      1  0.4675110000000  0.5782300000000  0.5356570000000 1.0
C      1  0.4337580000000  0.5775280000000  0.4136910000000 1.0
C      1  0.5314360000000  0.5763750000000  0.5182590000000 1.0
C      1  0.4273190000000  0.4439670000000  0.4864300000000 1.0
C      1  0.4773040000000  0.6075980000000  0.4943260000000 1.0
C      1  0.4108220000000  0.5422780000000  0.4739590000000 1.0
C      1  0.4848310000000  0.5933210000000  0.5162480000000 1.0
C      1  0.5717520000000  0.5681530000000  0.4835080000000 1.0
C      1  0.5126130000000  0.5438430000000  0.5930530000000 1.0
C      1  0.5036880000000  0.4051640000000  0.5469830000000 1.0
C      1  0.5843400000000  0.4395800000000  0.4616040000000 1.0
C      1  0.5263000000000  0.5207970000000  0.5818790000000 1.0
C      1  0.5133370000000  0.4339350000000  0.4805810000000 1.0
C      1  0.5501920000000  0.4884460000000  0.5068700000000 1.0
C      1  0.4765090000000  0.5422650000000  0.4623900000000 1.0
C      1  0.5705030000000  0.4315940000000  0.5360840000000 1.0
C      1  0.5527070000000  0.5024210000000  0.4827390000000 1.0
C      1  0.6241830000000  0.4995620000000  0.4622720000000 1.0
C      1  0.3679060000000  0.4685890000000  0.4385670000000 1.0
C      1  0.3904160000000  0.4859000000000  0.5404060000000 1.0
C      1  0.4897660000000  0.4498970000000  0.5203720000000 1.0
C      1  0.4206410000000  0.5195250000000  0.5176160000000 1.0
C      1  0.4812780000000  0.4189470000000  0.5586010000000 1.0
C      1  0.3679010000000  0.4728360000000  0.5391870000000 1.0
C      1  0.5163130000000  0.4409710000000  0.4323740000000 1.0
C      1  0.5116860000000  0.5945600000000  0.5268250000000 1.0
C      1  0.5517800000000  0.4104390000000  0.5387430000000 1.0
C      1  0.4489730000000  0.5111500000000  0.5092940000000 1.0
C      1  0.4633430000000  0.5203950000000  0.5324580000000 1.0
C      1  0.5316530000000  0.4755320000000  0.5211330000000 1.0
C      1  0.4897080000000  0.4777720000000  0.4246260000000 1.0
C      1  0.5750660000000  0.5395180000000  0.5644940000000 1.0
C      1  0.6044400000000  0.4216410000000  0.4567950000000 1.0
C      1  0.4753170000000  0.4424290000000  0.5436470000000 1.0
C      1  0.5479180000000  0.4761840000000  0.5895130000000 1.0
C      1  0.4673530000000  0.4103100000000  0.5802740000000 1.0
C      1  0.4268040000000  0.4882740000000  0.5865010000000 1.0
C      1  0.4176270000000  0.4744220000000  0.4503060000000 1.0
C      1  0.4830920000000  0.5151040000000  0.4564050000000 1.0
C      1  0.5569580000000  0.5543280000000  0.5517580000000 1.0
C      1  0.5987290000000  0.4886700000000  0.5247940000000 1.0
C      1  0.5162770000000  0.5362610000000  0.4871700000000 1.0
C      1  0.6035900000000  0.5366510000000  0.5103650000000 1.0
C      1  0.4535160000000  0.5555490000000  0.4531820000000 1.0
C      1  0.5024390000000  0.5536230000000  0.4685730000000 1.0
C      1  0.5494190000000  0.5791820000000  0.4968100000000 1.0
C      1  0.4842520000000  0.5770140000000  0.5618280000000 1.0
C      1  0.5466240000000  0.5274720000000  0.4233300000000 1.0
C      1  0.5415660000000  0.4330840000000  0.4830380000000 1.0
C      1  0.4860190000000  0.4995780000000  0.5673270000000 1.0
C      1  0.5013530000000  0.4439160000000  0.4569870000000 1.0
C      1  0.5497360000000  0.5036600000000  0.5831040000000 1.0
C      1  0.5052020000000  0.5231220000000  0.5103290000000 1.0
C      1  0.3493490000000  0.4526080000000  0.4491780000000 1.0
C      1  0.4145440000000  0.5930640000000  0.4041350000000 1.0
C      1  0.4357510000000  0.4643960000000  0.4691850000000 1.0
C      1  0.5156200000000  0.5306840000000  0.5356010000000 1.0
C      1  0.5335210000000  0.4287710000000  0.5790780000000 1.0
C      1  0.6285600000000  0.4523700000000  0.5128060000000 1.0
C      1  0.4878870000000  0.4804320000000  0.5875790000000 1.0
END
