TITL C-74080-5790-433 -0.0252067053304583 125000 -190.877125515335 0 0 33 (C2v) n - 1
REM
REM in /home/nfs/bkarasulu/CARBON/AIRSS/Generating-Clusters/LCBOP/Higher-Symm/SD-CG/FIRE-CG
REM
REM
REM
REM
REM
REM ./C.cell (b20cbc046b6831c77cfcea5457e17084)
REM AIRSS Version 0.9.1 bugfix July 2018 build 013d7b7c2542+ Fri, 06 Jul 2018 19:26:36 +0100
REM compiler GCC version 9.2.1 20190827 (Red Hat 9.2.1-1)
REM options -cpp -mtune=generic -march=x86-64 -g -O0 -fpre-include=/usr/include/finclude/math-vector-fortran.h
REM seed 174473160 110794253 799292971 -2013883190 739963413 -490283290 -1369428528 1090720771 -1260345692 -1046907919 254114748 1636134101 1953888497 1037808256 1478901884 1266768394 -1544989866 -1858215482 -686700522 -1334484393 185226139 -1900356567 -931819149 1617019115 11455491 863148386 1764687007 -1734441002 909479792 1947720556 -1274874656 590109114 -347440771
REM
CELL 1.54180   50.00000   50.00000   50.00000   90.00000   90.00000   90.00000
LATT -1
SFAC C  
C      1  0.5691260000000  0.4659840000000  0.4358680000000 1.0
C      1  0.5198390000000  0.4659590000000  0.5933250000000 1.0
C      1  0.4107650000000  0.4659840000000  0.4695330000000 1.0
C      1  0.5691270000000  0.5349520000000  0.4358690000000 1.0
C      1  0.5198380000000  0.5349770000000  0.5933250000000 1.0
C      1  0.4107650000000  0.5349520000000  0.4695310000000 1.0
C      1  0.5868960000000  0.5249910000000  0.4185570000000 1.0
C      1  0.5249940000000  0.5249940000000  0.6175830000000 1.0
C      1  0.3874900000000  0.5249910000000  0.4609440000000 1.0
C      1  0.5868950000000  0.4759460000000  0.4185570000000 1.0
C      1  0.5249950000000  0.4759420000000  0.6175830000000 1.0
C      1  0.3874900000000  0.4759450000000  0.4609450000000 1.0
C      1  0.5504710000000  0.4714660000000  0.4540420000000 1.0
C      1  0.5144230000000  0.4714270000000  0.5678470000000 1.0
C      1  0.4351980000000  0.4714660000000  0.4785470000000 1.0
C      1  0.5504720000000  0.5294700000000  0.4540430000000 1.0
C      1  0.5144220000000  0.5295090000000  0.5678470000000 1.0
C      1  0.4351990000000  0.5294700000000  0.4785460000000 1.0
C      1  0.4801370000000  0.5280690000000  0.4951170000000 1.0
C      1  0.5161600000000  0.5280690000000  0.4874600000000 1.0
C      1  0.5044550000000  0.5279920000000  0.5209600000000 1.0
C      1  0.4801370000000  0.4728680000000  0.4951170000000 1.0
C      1  0.5161600000000  0.4728680000000  0.4874600000000 1.0
C      1  0.5044560000000  0.4729440000000  0.5209600000000 1.0
C      1  0.5333690000000  0.5148010000000  0.4707050000000 1.0
C      1  0.5094640000000  0.5148040000000  0.5445210000000 1.0
C      1  0.4576010000000  0.5148010000000  0.4868100000000 1.0
C      1  0.5333680000000  0.4861350000000  0.4707040000000 1.0
C      1  0.5094640000000  0.4861320000000  0.5445210000000 1.0
C      1  0.4576010000000  0.4861350000000  0.4868110000000 1.0
C      1  0.5946890000000  0.5004680000000  0.4109650000000 1.0
C      1  0.3772830000000  0.5004680000000  0.4571790000000 1.0
C      1  0.5272550000000  0.5004680000000  0.6282160000000 1.0
END
