TITL C-74083-3671-363 -0.00874978833005299 125000 -392.784221936354 0 0 67 (C1) n - 1
REM
REM in /home/nfs/bkarasulu/CARBON/AIRSS/Generating-Clusters/LCBOP/Higher-Symm/SD-CG/FIRE-CG
REM
REM
REM
REM
REM
REM ./C.cell (b20cbc046b6831c77cfcea5457e17084)
REM AIRSS Version 0.9.1 bugfix July 2018 build 013d7b7c2542+ Fri, 06 Jul 2018 19:26:36 +0100
REM compiler GCC version 9.2.1 20190827 (Red Hat 9.2.1-1)
REM options -cpp -mtune=generic -march=x86-64 -g -O0 -fpre-include=/usr/include/finclude/math-vector-fortran.h
REM seed 1713296455 -1326188364 -1148525911 -1461246825 -1928521823 -1100486774 -1882087558 -1694540240 249749711 -1967387088 -458985297 1452361214 -1375428545 -1332390098 -154300860 1755813934 -752861963 413905014 -2057184881 -198506842 891055132 953943794 -168034143 -1362247199 -1619724239 -1350135464 -1613044644 311212300 -525425853 -1830006425 -1998501889 -2077320793 1308710782
REM
CELL 1.54180   50.00000   50.00000   50.00000   90.00000   90.00000   90.00000
LATT -1
SFAC C  
C      1  0.5538010000000  0.4962960000000  0.5558980000000 1.0
C      1  0.5071200000000  0.5685680000000  0.5035960000000 1.0
C      1  0.5523990000000  0.5635300000000  0.5005680000000 1.0
C      1  0.4500100000000  0.4846590000000  0.5507640000000 1.0
C      1  0.5507450000000  0.4745420000000  0.4578710000000 1.0
C      1  0.4578040000000  0.5097250000000  0.4309430000000 1.0
C      1  0.4706410000000  0.4267610000000  0.5310800000000 1.0
C      1  0.5710650000000  0.4154610000000  0.5151510000000 1.0
C      1  0.4707790000000  0.5637790000000  0.4730630000000 1.0
C      1  0.4300240000000  0.4673220000000  0.5079580000000 1.0
C      1  0.5637400000000  0.4639030000000  0.5147950000000 1.0
C      1  0.4406960000000  0.6342010000000  0.5350100000000 1.0
C      1  0.4891420000000  0.5584040000000  0.4279680000000 1.0
C      1  0.5289360000000  0.5680860000000  0.4590830000000 1.0
C      1  0.5782930000000  0.5146320000000  0.4655180000000 1.0
C      1  0.5110920000000  0.4674610000000  0.4273380000000 1.0
C      1  0.5087450000000  0.4427670000000  0.5614880000000 1.0
C      1  0.5055670000000  0.5283010000000  0.5778140000000 1.0
C      1  0.4305940000000  0.3916920000000  0.5208630000000 1.0
C      1  0.5268630000000  0.4348100000000  0.5063610000000 1.0
C      1  0.4674870000000  0.5970690000000  0.5091980000000 1.0
C      1  0.4200550000000  0.4836550000000  0.4589780000000 1.0
C      1  0.5824180000000  0.5153410000000  0.5185870000000 1.0
C      1  0.4186370000000  0.5094760000000  0.5248000000000 1.0
C      1  0.4573160000000  0.4646970000000  0.5006080000000 1.0
C      1  0.4869060000000  0.5106320000000  0.4329060000000 1.0
C      1  0.5087290000000  0.4792310000000  0.4915080000000 1.0
C      1  0.5428340000000  0.5403410000000  0.5144920000000 1.0
C      1  0.4533010000000  0.5138310000000  0.4872550000000 1.0
C      1  0.5516180000000  0.4872650000000  0.5038350000000 1.0
C      1  0.5361270000000  0.4809000000000  0.4813760000000 1.0
C      1  0.4740380000000  0.4948720000000  0.5580580000000 1.0
C      1  0.5250840000000  0.4890980000000  0.5527860000000 1.0
C      1  0.4650660000000  0.5366050000000  0.4763760000000 1.0
C      1  0.5147990000000  0.5458610000000  0.5205020000000 1.0
C      1  0.4768650000000  0.4477420000000  0.5126790000000 1.0
C      1  0.4645660000000  0.4867900000000  0.4833700000000 1.0
C      1  0.5013190000000  0.5094350000000  0.5555570000000 1.0
C      1  0.5061900000000  0.4563670000000  0.5124710000000 1.0
C      1  0.5561750000000  0.5297490000000  0.4533430000000 1.0
C      1  0.4306590000000  0.5202930000000  0.5032190000000 1.0
C      1  0.5541720000000  0.5149270000000  0.5112840000000 1.0
C      1  0.5150930000000  0.4635920000000  0.5425690000000 1.0
C      1  0.4962710000000  0.4858370000000  0.4429580000000 1.0
C      1  0.5043440000000  0.5345040000000  0.4335680000000 1.0
C      1  0.5013810000000  0.5225020000000  0.5282050000000 1.0
C      1  0.5304060000000  0.5417310000000  0.4470570000000 1.0
C      1  0.4887980000000  0.4810140000000  0.4695670000000 1.0
C      1  0.5547280000000  0.4370360000000  0.5122280000000 1.0
C      1  0.4539940000000  0.6157890000000  0.5222110000000 1.0
C      1  0.5760430000000  0.4873850000000  0.4565160000000 1.0
C      1  0.4866820000000  0.4267210000000  0.5542680000000 1.0
C      1  0.4281240000000  0.4837700000000  0.5320950000000 1.0
C      1  0.5104690000000  0.5455930000000  0.5966650000000 1.0
C      1  0.4747500000000  0.5721530000000  0.4463910000000 1.0
C      1  0.5005890000000  0.4546950000000  0.4056850000000 1.0
C      1  0.4354480000000  0.4972890000000  0.4408950000000 1.0
C      1  0.5790410000000  0.5049170000000  0.5459910000000 1.0
C      1  0.4105150000000  0.3760300000000  0.5152810000000 1.0
C      1  0.5302210000000  0.5752470000000  0.4862400000000 1.0
C      1  0.5374070000000  0.4633090000000  0.4361640000000 1.0
C      1  0.4507800000000  0.4079490000000  0.5263500000000 1.0
C      1  0.4147500000000  0.4723220000000  0.4835380000000 1.0
C      1  0.5231940000000  0.4386240000000  0.5842310000000 1.0
C      1  0.4814300000000  0.5771740000000  0.4957230000000 1.0
C      1  0.5934750000000  0.5185120000000  0.4912370000000 1.0
C      1  0.5008200000000  0.5035030000000  0.5076890000000 1.0
END
