TITL C-74079-2735-74 -46455.8364887838 125000 -1059.37026887369 0 0 170 (C1) n - 1
REM
REM in /home/nfs/bkarasulu/CARBON/AIRSS/Generating-Clusters/LCBOP/Higher-Symm/SD-CG/FIRE-CG
REM
REM
REM
REM
REM
REM ./C.cell (b20cbc046b6831c77cfcea5457e17084)
REM AIRSS Version 0.9.1 bugfix July 2018 build 013d7b7c2542+ Fri, 06 Jul 2018 19:26:36 +0100
REM compiler GCC version 9.2.1 20190827 (Red Hat 9.2.1-1)
REM options -cpp -mtune=generic -march=x86-64 -g -O0 -fpre-include=/usr/include/finclude/math-vector-fortran.h
REM seed 577569395 1832888213 -512323796 -1004705167 -1631181102 -72967929 1535618866 1511390756 -1356584278 2063754921 -1167612252 -82674297 -1728957960 1343799393 1586458458 2104023699 -1811342871 1590011539 1827273870 1007619384 -695827551 -511863673 -1365450770 156921861 -16106568 -14395020 144902538 -1887805961 1411314263 1832647219 -1139112700 -61300542 1803784999
REM
CELL 1.54180   50.00000   50.00000   50.00000   90.00000   90.00000   90.00000
LATT -1
SFAC C  
C      1  0.4230620000000  0.3996350000000  0.4770270000000 1.0
C      1  0.5136410000000  0.3993670000000  0.5746860000000 1.0
C      1  0.5605140000000  0.3999620000000  0.4681410000000 1.0
C      1  0.4338400000000  0.5935430000000  0.5325170000000 1.0
C      1  0.5056550000000  0.5969890000000  0.4220750000000 1.0
C      1  0.5609240000000  0.5981460000000  0.5430290000000 1.0
C      1  0.4428580000000  0.5451030000000  0.4019970000000 1.0
C      1  0.4449790000000  0.5416310000000  0.5988540000000 1.0
C      1  0.6110080000000  0.5392570000000  0.4985540000000 1.0
C      1  0.4304610000000  0.4677110000000  0.6068470000000 1.0
C      1  0.4490230000000  0.4725620000000  0.3913860000000 1.0
C      1  0.6071920000000  0.4648430000000  0.4991860000000 1.0
C      1  0.4771980000000  0.4811800000000  0.4396260000000 1.0
C      1  0.4429900000000  0.4850540000000  0.5609280000000 1.0
C      1  0.5693500000000  0.4883370000000  0.5361250000000 1.0
C      1  0.4913430000000  0.5181980000000  0.5873610000000 1.0
C      1  0.4373680000000  0.5104100000000  0.4507460000000 1.0
C      1  0.5721740000000  0.5192770000000  0.4600470000000 1.0
C      1  0.5473060000000  0.4981210000000  0.6140250000000 1.0
C      1  0.5755480000000  0.5110140000000  0.3911780000000 1.0
C      1  0.3781020000000  0.4968330000000  0.4876880000000 1.0
C      1  0.5505220000000  0.5123230000000  0.3789190000000 1.0
C      1  0.5710470000000  0.5058670000000  0.6010190000000 1.0
C      1  0.3801180000000  0.5006080000000  0.5161250000000 1.0
C      1  0.4511740000000  0.6020920000000  0.4818110000000 1.0
C      1  0.5077440000000  0.6038840000000  0.5482500000000 1.0
C      1  0.5388610000000  0.6021060000000  0.4636070000000 1.0
C      1  0.4529550000000  0.4078010000000  0.5201560000000 1.0
C      1  0.5112330000000  0.3952260000000  0.4498080000000 1.0
C      1  0.5397100000000  0.3981900000000  0.5187960000000 1.0
C      1  0.4713470000000  0.4574670000000  0.3891880000000 1.0
C      1  0.4187440000000  0.4521700000000  0.5873250000000 1.0
C      1  0.5904400000000  0.4486560000000  0.5157050000000 1.0
C      1  0.4653220000000  0.5578270000000  0.5868810000000 1.0
C      1  0.4393770000000  0.5577050000000  0.4270340000000 1.0
C      1  0.5945200000000  0.5579220000000  0.4845920000000 1.0
C      1  0.4314800000000  0.5167740000000  0.6034420000000 1.0
C      1  0.6159280000000  0.5124930000000  0.5077990000000 1.0
C      1  0.4489690000000  0.5209720000000  0.3882990000000 1.0
C      1  0.4347250000000  0.4968890000000  0.3961040000000 1.0
C      1  0.6147590000000  0.4906010000000  0.4883480000000 1.0
C      1  0.4435570000000  0.4926790000000  0.6146020000000 1.0
C      1  0.5441590000000  0.4404060000000  0.4934730000000 1.0
C      1  0.4611470000000  0.4233820000000  0.4619860000000 1.0
C      1  0.4917160000000  0.4310760000000  0.5476080000000 1.0
C      1  0.5462400000000  0.5662150000000  0.5109510000000 1.0
C      1  0.4689230000000  0.5615490000000  0.5319860000000 1.0
C      1  0.4857110000000  0.5650550000000  0.4506600000000 1.0
C      1  0.5614770000000  0.5100480000000  0.5201500000000 1.0
C      1  0.4950780000000  0.5025180000000  0.4440830000000 1.0
C      1  0.4571130000000  0.5026220000000  0.5434690000000 1.0
C      1  0.5629590000000  0.4966340000000  0.4746570000000 1.0
C      1  0.4634210000000  0.4638440000000  0.5687310000000 1.0
C      1  0.4501630000000  0.4848820000000  0.4471550000000 1.0
C      1  0.5151170000000  0.4350770000000  0.4120640000000 1.0
C      1  0.4209210000000  0.4473070000000  0.5328680000000 1.0
C      1  0.5672200000000  0.4332600000000  0.5565570000000 1.0
C      1  0.5148600000000  0.5683420000000  0.5887170000000 1.0
C      1  0.4139650000000  0.5654070000000  0.4694850000000 1.0
C      1  0.5719350000000  0.5669980000000  0.4385030000000 1.0
C      1  0.4981900000000  0.5127030000000  0.3674050000000 1.0
C      1  0.4138840000000  0.4950160000000  0.5624470000000 1.0
C      1  0.5921630000000  0.4960050000000  0.5524090000000 1.0
C      1  0.4948690000000  0.5037700000000  0.6114250000000 1.0
C      1  0.4091880000000  0.5052540000000  0.4421280000000 1.0
C      1  0.5948450000000  0.5117020000000  0.4431440000000 1.0
C      1  0.4073100000000  0.4633910000000  0.4644480000000 1.0
C      1  0.5127440000000  0.4628630000000  0.5997760000000 1.0
C      1  0.5767660000000  0.4577830000000  0.4450870000000 1.0
C      1  0.4155960000000  0.5306790000000  0.5339460000000 1.0
C      1  0.5156170000000  0.5332850000000  0.4054930000000 1.0
C      1  0.5748930000000  0.5376060000000  0.5615260000000 1.0
C      1  0.4807570000000  0.4302020000000  0.4433960000000 1.0
C      1  0.4650270000000  0.4407660000000  0.5503800000000 1.0
C      1  0.5614460000000  0.4497090000000  0.5126170000000 1.0
C      1  0.4738170000000  0.5530660000000  0.5588990000000 1.0
C      1  0.4599810000000  0.5538100000000  0.4468180000000 1.0
C      1  0.5657760000000  0.5583670000000  0.4909570000000 1.0
C      1  0.5108220000000  0.3941690000000  0.5246690000000 1.0
C      1  0.5142950000000  0.3904460000000  0.4778400000000 1.0
C      1  0.4666630000000  0.3945960000000  0.4988130000000 1.0
C      1  0.5111140000000  0.6014920000000  0.4705860000000 1.0
C      1  0.5170030000000  0.6029410000000  0.5213150000000 1.0
C      1  0.4714090000000  0.5998900000000  0.5015740000000 1.0
C      1  0.5466120000000  0.5050120000000  0.4962560000000 1.0
C      1  0.5004600000000  0.5026310000000  0.4728890000000 1.0
C      1  0.4796460000000  0.4917910000000  0.5306180000000 1.0
C      1  0.5223250000000  0.5155290000000  0.4846140000000 1.0
C      1  0.5077090000000  0.4965160000000  0.5343030000000 1.0
C      1  0.4773000000000  0.5015730000000  0.4882440000000 1.0
C      1  0.5499900000000  0.4682180000000  0.5305850000000 1.0
C      1  0.4895220000000  0.4569490000000  0.4467170000000 1.0
C      1  0.4596310000000  0.4544820000000  0.5021760000000 1.0
C      1  0.5552460000000  0.5419430000000  0.4696730000000 1.0
C      1  0.4923490000000  0.5316400000000  0.5620410000000 1.0
C      1  0.4523160000000  0.5318030000000  0.4634150000000 1.0
C      1  0.5915260000000  0.5109080000000  0.4140080000000 1.0
C      1  0.3933950000000  0.4892900000000  0.4621910000000 1.0
C      1  0.5193810000000  0.4880870000000  0.6129790000000 1.0
C      1  0.5840280000000  0.5131510000000  0.5752670000000 1.0
C      1  0.3990860000000  0.5070270000000  0.5389330000000 1.0
C      1  0.5217970000000  0.5178270000000  0.3821070000000 1.0
C      1  0.4954060000000  0.5916140000000  0.4482240000000 1.0
C      1  0.4607860000000  0.5877580000000  0.5253230000000 1.0
C      1  0.5437530000000  0.5925670000000  0.5208440000000 1.0
C      1  0.5023540000000  0.4052580000000  0.5492890000000 1.0
C      1  0.4517680000000  0.3998940000000  0.4745950000000 1.0
C      1  0.5416970000000  0.3941350000000  0.4888200000000 1.0
C      1  0.5623990000000  0.5333900000000  0.5357150000000 1.0
C      1  0.5033630000000  0.5256020000000  0.4301030000000 1.0
C      1  0.4435560000000  0.5245300000000  0.5324650000000 1.0
C      1  0.5608490000000  0.4714770000000  0.4637610000000 1.0
C      1  0.4928080000000  0.4648230000000  0.5782090000000 1.0
C      1  0.4357280000000  0.4636790000000  0.4592010000000 1.0
C      1  0.5031710000000  0.4159270000000  0.4321100000000 1.0
C      1  0.4487660000000  0.4372700000000  0.5259790000000 1.0
C      1  0.5542200000000  0.4113360000000  0.5406390000000 1.0
C      1  0.5139410000000  0.5911040000000  0.5712340000000 1.0
C      1  0.4279880000000  0.5893180000000  0.4765920000000 1.0
C      1  0.5569150000000  0.5903290000000  0.4471510000000 1.0
C      1  0.5371840000000  0.5456240000000  0.5295800000000 1.0
C      1  0.5067920000000  0.5459920000000  0.4507450000000 1.0
C      1  0.4599720000000  0.5400140000000  0.5144760000000 1.0
C      1  0.5381650000000  0.4564820000000  0.4719740000000 1.0
C      1  0.5074800000000  0.4541870000000  0.5537500000000 1.0
C      1  0.4515620000000  0.4467290000000  0.4755540000000 1.0
C      1  0.4100550000000  0.5448870000000  0.4899790000000 1.0
C      1  0.5365230000000  0.5483870000000  0.5850590000000 1.0
C      1  0.5559800000000  0.5458190000000  0.4236880000000 1.0
C      1  0.4105920000000  0.4621270000000  0.5103870000000 1.0
C      1  0.5394150000000  0.4512280000000  0.4174950000000 1.0
C      1  0.5527540000000  0.4536570000000  0.5748680000000 1.0
C      1  0.5329010000000  0.4428570000000  0.5940000000000 1.0
C      1  0.5622260000000  0.4377690000000  0.4307760000000 1.0
C      1  0.4016220000000  0.4465430000000  0.4871990000000 1.0
C      1  0.5333120000000  0.5556970000000  0.4089770000000 1.0
C      1  0.5621950000000  0.5586080000000  0.5760030000000 1.0
C      1  0.4074330000000  0.5529140000000  0.5179590000000 1.0
C      1  0.5926650000000  0.4402220000000  0.5435420000000 1.0
C      1  0.4953590000000  0.4459780000000  0.3940080000000 1.0
C      1  0.4137060000000  0.4458650000000  0.5609620000000 1.0
C      1  0.5956090000000  0.5632730000000  0.4555540000000 1.0
C      1  0.4893710000000  0.5647230000000  0.6016790000000 1.0
C      1  0.4144190000000  0.5613520000000  0.4409410000000 1.0
C      1  0.5162170000000  0.5232670000000  0.5459160000000 1.0
C      1  0.5270570000000  0.5396710000000  0.4694480000000 1.0
C      1  0.4636570000000  0.5268940000000  0.4891230000000 1.0
C      1  0.5128280000000  0.4587690000000  0.4620300000000 1.0
C      1  0.5224230000000  0.4719840000000  0.5375520000000 1.0
C      1  0.4726910000000  0.4798600000000  0.5057490000000 1.0
C      1  0.5664260000000  0.5847770000000  0.5660050000000 1.0
C      1  0.5225620000000  0.5816680000000  0.4074010000000 1.0
C      1  0.4115630000000  0.5789070000000  0.5278700000000 1.0
C      1  0.5630100000000  0.4125120000000  0.4440790000000 1.0
C      1  0.5259230000000  0.4154420000000  0.5927260000000 1.0
C      1  0.4046460000000  0.4185010000000  0.4838680000000 1.0
C      1  0.6139600000000  0.5048520000000  0.5355690000000 1.0
C      1  0.4719470000000  0.5178790000000  0.3717710000000 1.0
C      1  0.4096170000000  0.5100720000000  0.5866200000000 1.0
C      1  0.6140420000000  0.4979270000000  0.4601920000000 1.0
C      1  0.4704730000000  0.4950790000000  0.6233460000000 1.0
C      1  0.4117460000000  0.4995890000000  0.4135950000000 1.0
C      1  0.5462450000000  0.4847780000000  0.5723370000000 1.0
C      1  0.5412900000000  0.4823520000000  0.4190500000000 1.0
C      1  0.4199120000000  0.4897340000000  0.5025360000000 1.0
C      1  0.5481580000000  0.5098110000000  0.4249750000000 1.0
C      1  0.5350990000000  0.5164250000000  0.5712720000000 1.0
C      1  0.4171730000000  0.5155560000000  0.4915090000000 1.0
C      1  0.5000150000000  0.6031130000000  0.4976000000000 1.0
C      1  0.4951050000000  0.3904900000000  0.5000020000000 1.0
END
