TITL C-74086-5274-62 8485.1341052967 125000 -1170.5184162548 0 0 191 (C1) n - 1
REM
REM in /home/nfs/bkarasulu/CARBON/AIRSS/Generating-Clusters/LCBOP/Higher-Symm/SD-CG/FIRE-CG
REM
REM
REM
REM
REM
REM ./C.cell (b20cbc046b6831c77cfcea5457e17084)
REM AIRSS Version 0.9.1 bugfix July 2018 build 013d7b7c2542+ Fri, 06 Jul 2018 19:26:36 +0100
REM compiler GCC version 9.2.1 20190827 (Red Hat 9.2.1-1)
REM options -cpp -mtune=generic -march=x86-64 -g -O0 -fpre-include=/usr/include/finclude/math-vector-fortran.h
REM seed 82811064 -1010065047 -1149793341 -1875080803 -76468380 595941336 1052976162 203722532 1445421336 -1288144057 -280219275 -1165856024 -1802957175 1822317668 -203648717 2069922552 55215963 216068278 -1851602511 -266606505 829172690 -2001613325 -858523781 167348814 -1790998933 -1425726477 622453430 -1004015056 1831540479 -1260647211 -223061915 -1233780835 1823154709
REM
CELL 1.54180   50.00000   50.00000   50.00000   90.00000   90.00000   90.00000
LATT -1
SFAC C  
C      1  0.5977540000000  0.5551960000000  0.5583610000000 1.0
C      1  0.5083810000000  0.5527900000000  0.3900650000000 1.0
C      1  0.4058300000000  0.5574070000000  0.5518570000000 1.0
C      1  0.5041750000000  0.5145940000000  0.4761680000000 1.0
C      1  0.4735630000000  0.5150180000000  0.5087160000000 1.0
C      1  0.5201350000000  0.5167160000000  0.5003120000000 1.0
C      1  0.4705870000000  0.5788860000000  0.5284420000000 1.0
C      1  0.5498860000000  0.5860470000000  0.5143440000000 1.0
C      1  0.4824840000000  0.5742690000000  0.4542910000000 1.0
C      1  0.5473000000000  0.4429180000000  0.4738090000000 1.0
C      1  0.4541310000000  0.4420060000000  0.4703960000000 1.0
C      1  0.4994570000000  0.4440450000000  0.5530900000000 1.0
C      1  0.4823530000000  0.5246820000000  0.5513290000000 1.0
C      1  0.5613420000000  0.5259840000000  0.4900860000000 1.0
C      1  0.4632240000000  0.5221800000000  0.4533130000000 1.0
C      1  0.4655310000000  0.6175390000000  0.4891450000000 1.0
C      1  0.5009320000000  0.6194680000000  0.5250850000000 1.0
C      1  0.5145810000000  0.6166380000000  0.4766820000000 1.0
C      1  0.4831850000000  0.3773170000000  0.4878020000000 1.0
C      1  0.5001350000000  0.3781100000000  0.5211610000000 1.0
C      1  0.5192520000000  0.3777590000000  0.4905030000000 1.0
C      1  0.4712420000000  0.5146730000000  0.6189970000000 1.0
C      1  0.6199310000000  0.5086380000000  0.4685920000000 1.0
C      1  0.4076670000000  0.5146980000000  0.4191050000000 1.0
C      1  0.6027090000000  0.4706360000000  0.4950760000000 1.0
C      1  0.4261670000000  0.4705190000000  0.4070960000000 1.0
C      1  0.4571930000000  0.4685260000000  0.6108430000000 1.0
C      1  0.5082140000000  0.4337530000000  0.5808660000000 1.0
C      1  0.5679740000000  0.4326690000000  0.4531500000000 1.0
C      1  0.4253910000000  0.4319620000000  0.4649700000000 1.0
C      1  0.5050080000000  0.5736670000000  0.4355580000000 1.0
C      1  0.4418910000000  0.5751010000000  0.5232390000000 1.0
C      1  0.5586490000000  0.5793120000000  0.5427380000000 1.0
C      1  0.4963670000000  0.5735700000000  0.4073790000000 1.0
C      1  0.4238660000000  0.5800270000000  0.5458730000000 1.0
C      1  0.5873580000000  0.5794060000000  0.5457380000000 1.0
C      1  0.4630760000000  0.3944000000000  0.4783650000000 1.0
C      1  0.5018370000000  0.3958930000000  0.5427490000000 1.0
C      1  0.5373530000000  0.3950360000000  0.4779100000000 1.0
C      1  0.5238210000000  0.4468410000000  0.5334990000000 1.0
C      1  0.5189960000000  0.4443650000000  0.4612330000000 1.0
C      1  0.4582580000000  0.4444570000000  0.5013140000000 1.0
C      1  0.4381720000000  0.3970690000000  0.4947490000000 1.0
C      1  0.5282200000000  0.3987880000000  0.5565270000000 1.0
C      1  0.5365110000000  0.3972000000000  0.4480710000000 1.0
C      1  0.4368420000000  0.5241790000000  0.5452150000000 1.0
C      1  0.5748590000000  0.5245570000000  0.5326460000000 1.0
C      1  0.4944550000000  0.5212750000000  0.4194330000000 1.0
C      1  0.4151280000000  0.5104130000000  0.5060550000000 1.0
C      1  0.5487840000000  0.5130680000000  0.5679180000000 1.0
C      1  0.5382370000000  0.5112440000000  0.4239180000000 1.0
C      1  0.4326750000000  0.4441530000000  0.4161070000000 1.0
C      1  0.4625950000000  0.4430590000000  0.5997670000000 1.0
C      1  0.6033160000000  0.4425410000000  0.4883990000000 1.0
C      1  0.4343000000000  0.5565230000000  0.5031530000000 1.0
C      1  0.5397890000000  0.5610510000000  0.5544970000000 1.0
C      1  0.5275850000000  0.5570460000000  0.4429640000000 1.0
C      1  0.6152050000000  0.4255740000000  0.4443230000000 1.0
C      1  0.3927990000000  0.4206480000000  0.4310260000000 1.0
C      1  0.4963900000000  0.4199210000000  0.6255920000000 1.0
C      1  0.5934090000000  0.4280880000000  0.5367790000000 1.0
C      1  0.4827030000000  0.4288860000000  0.4008450000000 1.0
C      1  0.4249490000000  0.4293810000000  0.5640100000000 1.0
C      1  0.5654420000000  0.4667010000000  0.5313350000000 1.0
C      1  0.4963680000000  0.4650320000000  0.4270920000000 1.0
C      1  0.4410920000000  0.4659410000000  0.5384820000000 1.0
C      1  0.6033830000000  0.4259830000000  0.5116010000000 1.0
C      1  0.4559180000000  0.4313220000000  0.4052570000000 1.0
C      1  0.4419950000000  0.4302660000000  0.5849740000000 1.0
C      1  0.4185960000000  0.4183530000000  0.4899600000000 1.0
C      1  0.5332280000000  0.4201630000000  0.5756610000000 1.0
C      1  0.5507010000000  0.4185990000000  0.4340310000000 1.0
C      1  0.6025890000000  0.5365500000000  0.5339720000000 1.0
C      1  0.4896940000000  0.5301750000000  0.3926740000000 1.0
C      1  0.4239150000000  0.5382070000000  0.5685490000000 1.0
C      1  0.6061080000000  0.5472680000000  0.5034540000000 1.0
C      1  0.3951870000000  0.5788530000000  0.4233080000000 1.0
C      1  0.4480370000000  0.5502290000000  0.5854610000000 1.0
C      1  0.5152110000000  0.4718000000000  0.4487860000000 1.0
C      1  0.4489650000000  0.4718020000000  0.5105170000000 1.0
C      1  0.5367700000000  0.4748350000000  0.5350150000000 1.0
C      1  0.4998670000000  0.5165310000000  0.5707060000000 1.0
C      1  0.5647930000000  0.5152960000000  0.4649780000000 1.0
C      1  0.4375970000000  0.5141670000000  0.4592220000000 1.0
C      1  0.4506060000000  0.4958290000000  0.6139150000000 1.0
C      1  0.6216250000000  0.4917180000000  0.4915310000000 1.0
C      1  0.4245870000000  0.4986570000000  0.4026490000000 1.0
C      1  0.3671230000000  0.4660050000000  0.4979500000000 1.0
C      1  0.5567770000000  0.4712070000000  0.6160820000000 1.0
C      1  0.5734640000000  0.4686060000000  0.3931080000000 1.0
C      1  0.4539620000000  0.4688800000000  0.4559780000000 1.0
C      1  0.4873950000000  0.4707000000000  0.5602330000000 1.0
C      1  0.5582950000000  0.4699600000000  0.4809830000000 1.0
C      1  0.4276020000000  0.4865870000000  0.4952720000000 1.0
C      1  0.5342110000000  0.4892590000000  0.5611930000000 1.0
C      1  0.5391000000000  0.4870510000000  0.4390400000000 1.0
C      1  0.4330530000000  0.5677260000000  0.4509690000000 1.0
C      1  0.4892680000000  0.5721450000000  0.5737670000000 1.0
C      1  0.5743780000000  0.5699610000000  0.4727910000000 1.0
C      1  0.5753820000000  0.4788260000000  0.5052550000000 1.0
C      1  0.4720050000000  0.4784930000000  0.4345630000000 1.0
C      1  0.4604070000000  0.4802290000000  0.5548310000000 1.0
C      1  0.4585870000000  0.5088250000000  0.5528660000000 1.0
C      1  0.5721080000000  0.5087000000000  0.5098590000000 1.0
C      1  0.4744870000000  0.5071110000000  0.4324380000000 1.0
C      1  0.4698380000000  0.5859720000000  0.5573960000000 1.0
C      1  0.5760090000000  0.5841510000000  0.4982920000000 1.0
C      1  0.4576110000000  0.5744600000000  0.4377330000000 1.0
C      1  0.4168850000000  0.4321890000000  0.4375120000000 1.0
C      1  0.4892160000000  0.4321710000000  0.6020980000000 1.0
C      1  0.5955360000000  0.4334310000000  0.4618160000000 1.0
C      1  0.4889060000000  0.5356420000000  0.6107640000000 1.0
C      1  0.6066650000000  0.5308350000000  0.4559300000000 1.0
C      1  0.3983940000000  0.5331990000000  0.4387810000000 1.0
C      1  0.4984270000000  0.4230390000000  0.4562990000000 1.0
C      1  0.4651240000000  0.4238040000000  0.5220960000000 1.0
C      1  0.5384510000000  0.4248840000000  0.5190130000000 1.0
C      1  0.4432010000000  0.6008280000000  0.4839260000000 1.0
C      1  0.5112730000000  0.6031880000000  0.5471490000000 1.0
C      1  0.5343830000000  0.6000150000000  0.4635840000000 1.0
C      1  0.6367550000000  0.4994480000000  0.5147930000000 1.0
C      1  0.4390950000000  0.5106280000000  0.3805610000000 1.0
C      1  0.4229670000000  0.5037080000000  0.6109380000000 1.0
C      1  0.5357920000000  0.4349680000000  0.4128280000000 1.0
C      1  0.4082010000000  0.4344710000000  0.5137310000000 1.0
C      1  0.5578760000000  0.4373590000000  0.5738830000000 1.0
C      1  0.5972010000000  0.5508400000000  0.4749560000000 1.0
C      1  0.4089990000000  0.5599620000000  0.4377020000000 1.0
C      1  0.4764310000000  0.5542120000000  0.5920540000000 1.0
C      1  0.4345240000000  0.4876500000000  0.4676350000000 1.0
C      1  0.5072680000000  0.4895250000000  0.5700750000000 1.0
C      1  0.5584210000000  0.4887700000000  0.4593080000000 1.0
C      1  0.5189760000000  0.5300550000000  0.4329430000000 1.0
C      1  0.4321010000000  0.5303420000000  0.5170920000000 1.0
C      1  0.5512800000000  0.5335810000000  0.5480410000000 1.0
C      1  0.4842770000000  0.5591910000000  0.4789100000000 1.0
C      1  0.4920950000000  0.5625300000000  0.5115820000000 1.0
C      1  0.5275510000000  0.5637580000000  0.5074470000000 1.0
C      1  0.4672090000000  0.5773930000000  0.4103780000000 1.0
C      1  0.4424410000000  0.5925060000000  0.5644750000000 1.0
C      1  0.5962410000000  0.5884300000000  0.5192000000000 1.0
C      1  0.5463480000000  0.4027110000000  0.5351500000000 1.0
C      1  0.5088490000000  0.4002850000000  0.4424580000000 1.0
C      1  0.4481120000000  0.4008220000000  0.5210940000000 1.0
C      1  0.5031200000000  0.4862260000000  0.4715850000000 1.0
C      1  0.4740600000000  0.4871120000000  0.5078580000000 1.0
C      1  0.5214430000000  0.4903600000000  0.5134630000000 1.0
C      1  0.3808950000000  0.5260600000000  0.4602150000000 1.0
C      1  0.5174310000000  0.5331350000000  0.6156520000000 1.0
C      1  0.5976160000000  0.5286530000000  0.4285990000000 1.0
C      1  0.5057900000000  0.4424260000000  0.4111470000000 1.0
C      1  0.4226540000000  0.4432340000000  0.5392710000000 1.0
C      1  0.5735560000000  0.4445750000000  0.5490110000000 1.0
C      1  0.4861210000000  0.4205220000000  0.5404970000000 1.0
C      1  0.5432540000000  0.4199380000000  0.4919300000000 1.0
C      1  0.4720910000000  0.4189320000000  0.4651740000000 1.0
C      1  0.5485140000000  0.4953290000000  0.6247040000000 1.0
C      1  0.5864630000000  0.4919010000000  0.3968430000000 1.0
C      1  0.3615130000000  0.4903730000000  0.4882330000000 1.0
C      1  0.5202410000000  0.6232310000000  0.5041600000000 1.0
C      1  0.4870520000000  0.6202160000000  0.4702530000000 1.0
C      1  0.4742590000000  0.6238800000000  0.5158490000000 1.0
C      1  0.6630290000000  0.4906910000000  0.5179780000000 1.0
C      1  0.4259910000000  0.5110280000000  0.3557250000000 1.0
C      1  0.4048560000000  0.4963760000000  0.6309750000000 1.0
C      1  0.5369590000000  0.5446120000000  0.3894640000000 1.0
C      1  0.3886980000000  0.5433900000000  0.5310980000000 1.0
C      1  0.5843460000000  0.5428850000000  0.5824520000000 1.0
C      1  0.4139750000000  0.5101010000000  0.3326180000000 1.0
C      1  0.3881780000000  0.4883810000000  0.6493360000000 1.0
C      1  0.6873640000000  0.4817860000000  0.5207370000000 1.0
C      1  0.5626280000000  0.4528870000000  0.5974090000000 1.0
C      1  0.5537780000000  0.4507260000000  0.3967690000000 1.0
C      1  0.3832440000000  0.4475450000000  0.5086330000000 1.0
C      1  0.3890310000000  0.5233750000000  0.5086230000000 1.0
C      1  0.5610330000000  0.5261090000000  0.5909820000000 1.0
C      1  0.5539070000000  0.5254020000000  0.4042080000000 1.0
C      1  0.4336080000000  0.5735900000000  0.4790060000000 1.0
C      1  0.5153780000000  0.5766680000000  0.5616560000000 1.0
C      1  0.5478410000000  0.5737020000000  0.4580510000000 1.0
C      1  0.5374790000000  0.5389030000000  0.4995020000000 1.0
C      1  0.4827020000000  0.5317490000000  0.4713420000000 1.0
C      1  0.4862200000000  0.5343840000000  0.5249710000000 1.0
C      1  0.6244670000000  0.5159440000000  0.5344590000000 1.0
C      1  0.4652640000000  0.5217900000000  0.3815410000000 1.0
C      1  0.4133630000000  0.5185460000000  0.5886540000000 1.0
C      1  0.5438750000000  0.5212160000000  0.6138530000000 1.0
C      1  0.5816580000000  0.5180820000000  0.4069710000000 1.0
C      1  0.3730930000000  0.5160930000000  0.4858670000000 1.0
C      1  0.4990710000000  0.4767760000000  0.4991320000000 1.0
C      1  0.5452900000000  0.6150940000000  0.5124080000000 1.0
END
