TITL C-74080-5790-340 -3163.28052933632 125000 -1132.68091701853 0 0 192 (C1) n - 1
REM
REM in /home/nfs/bkarasulu/CARBON/AIRSS/Generating-Clusters/LCBOP/Higher-Symm/SD-CG/FIRE-CG
REM
REM
REM
REM
REM
REM ./C.cell (b20cbc046b6831c77cfcea5457e17084)
REM AIRSS Version 0.9.1 bugfix July 2018 build 013d7b7c2542+ Fri, 06 Jul 2018 19:26:36 +0100
REM compiler GCC version 9.2.1 20190827 (Red Hat 9.2.1-1)
REM options -cpp -mtune=generic -march=x86-64 -g -O0 -fpre-include=/usr/include/finclude/math-vector-fortran.h
REM seed -1398679019 -1788026405 -587974399 -1758683204 534433344 -2064953602 -1602299133 1261743706 -426094940 -315481629 -861280199 1130699036 -806775274 1434428851 1203749613 -125907844 2027238930 377694765 -829221432 923964426 1398271205 562488684 -2090515226 1680580352 2013328215 750366538 1697795005 -1675036994 -201293330 673100614 642884169 -1568949291 -1105402080
REM
CELL 1.54180   50.00000   50.00000   50.00000   90.00000   90.00000   90.00000
LATT -1
SFAC C  
C      1  0.5733260000000  0.5926620000000  0.4471910000000 1.0
C      1  0.4479080000000  0.5722170000000  0.5908280000000 1.0
C      1  0.5857720000000  0.4532020000000  0.5653910000000 1.0
C      1  0.4277580000000  0.5910800000000  0.5523580000000 1.0
C      1  0.5657140000000  0.4141900000000  0.5474990000000 1.0
C      1  0.4303010000000  0.4121170000000  0.4499360000000 1.0
C      1  0.5530850000000  0.5732750000000  0.4091640000000 1.0
C      1  0.4515590000000  0.4307440000000  0.4124370000000 1.0
C      1  0.5470190000000  0.4351380000000  0.5855180000000 1.0
C      1  0.4073910000000  0.4457250000000  0.4238480000000 1.0
C      1  0.5834510000000  0.5479880000000  0.4353430000000 1.0
C      1  0.4091710000000  0.5522270000000  0.5721840000000 1.0
C      1  0.4527010000000  0.5862250000000  0.5659370000000 1.0
C      1  0.5922800000000  0.5726530000000  0.4472250000000 1.0
C      1  0.5718870000000  0.4487720000000  0.5903910000000 1.0
C      1  0.5483370000000  0.5850840000000  0.4351660000000 1.0
C      1  0.5518360000000  0.4098680000000  0.5723060000000 1.0
C      1  0.4436830000000  0.4069180000000  0.4258730000000 1.0
C      1  0.4138720000000  0.5661440000000  0.5474510000000 1.0
C      1  0.4115760000000  0.4347650000000  0.4497620000000 1.0
C      1  0.5906510000000  0.4281040000000  0.5521700000000 1.0
C      1  0.4298730000000  0.4486480000000  0.4081150000000 1.0
C      1  0.4342390000000  0.5473660000000  0.5857180000000 1.0
C      1  0.5717260000000  0.5530660000000  0.4093900000000 1.0
C      1  0.5456690000000  0.5724380000000  0.5280160000000 1.0
C      1  0.5276440000000  0.5485990000000  0.5687960000000 1.0
C      1  0.5630410000000  0.5221910000000  0.5417500000000 1.0
C      1  0.4513970000000  0.5702580000000  0.4724770000000 1.0
C      1  0.5410300000000  0.4366340000000  0.4790390000000 1.0
C      1  0.4605940000000  0.4361750000000  0.5195350000000 1.0
C      1  0.4723000000000  0.5477210000000  0.4311480000000 1.0
C      1  0.5203220000000  0.4581190000000  0.4366550000000 1.0
C      1  0.4794710000000  0.4576910000000  0.5620950000000 1.0
C      1  0.4302130000000  0.5274220000000  0.4522940000000 1.0
C      1  0.5629390000000  0.4791540000000  0.4597000000000 1.0
C      1  0.4313660000000  0.4720440000000  0.5466370000000 1.0
C      1  0.5214690000000  0.5628940000000  0.5416860000000 1.0
C      1  0.5736130000000  0.5474670000000  0.5298720000000 1.0
C      1  0.5483940000000  0.5277050000000  0.5687660000000 1.0
C      1  0.4794400000000  0.5630630000000  0.4597720000000 1.0
C      1  0.4714870000000  0.4306650000000  0.5474010000000 1.0
C      1  0.5275860000000  0.4297630000000  0.4517760000000 1.0
C      1  0.4370480000000  0.5411850000000  0.4794740000000 1.0
C      1  0.4364340000000  0.4608120000000  0.5185940000000 1.0
C      1  0.5700990000000  0.4511980000000  0.4723830000000 1.0
C      1  0.4586860000000  0.5202620000000  0.4376810000000 1.0
C      1  0.4596390000000  0.4810150000000  0.5602170000000 1.0
C      1  0.5478880000000  0.4718300000000  0.4306830000000 1.0
C      1  0.4997830000000  0.3950180000000  0.5238660000000 1.0
C      1  0.5218650000000  0.5000020000000  0.3976300000000 1.0
C      1  0.3959100000000  0.5223630000000  0.4995840000000 1.0
C      1  0.5003730000000  0.3960040000000  0.4779320000000 1.0
C      1  0.5006790000000  0.6045050000000  0.4775790000000 1.0
C      1  0.5000840000000  0.6041610000000  0.5222560000000 1.0
C      1  0.4784090000000  0.5007650000000  0.6020500000000 1.0
C      1  0.5241730000000  0.5007790000000  0.6039130000000 1.0
C      1  0.4773290000000  0.5000740000000  0.3967400000000 1.0
C      1  0.6041440000000  0.5222140000000  0.5002630000000 1.0
C      1  0.3954930000000  0.4777180000000  0.4989370000000 1.0
C      1  0.6045610000000  0.4762310000000  0.4996820000000 1.0
C      1  0.5224780000000  0.3956720000000  0.4998260000000 1.0
C      1  0.3952040000000  0.4995830000000  0.5234950000000 1.0
C      1  0.4996890000000  0.5216420000000  0.3981610000000 1.0
C      1  0.4778570000000  0.3951940000000  0.4994240000000 1.0
C      1  0.4760780000000  0.6048760000000  0.4996850000000 1.0
C      1  0.5220410000000  0.6044790000000  0.5001460000000 1.0
C      1  0.6041530000000  0.5009140000000  0.4776440000000 1.0
C      1  0.6039520000000  0.5002540000000  0.5222190000000 1.0
C      1  0.3963040000000  0.5003040000000  0.4775950000000 1.0
C      1  0.5001530000000  0.5230000000000  0.6034460000000 1.0
C      1  0.4993210000000  0.4757220000000  0.3959000000000 1.0
C      1  0.4998960000000  0.4784670000000  0.6021530000000 1.0
C      1  0.4147720000000  0.5000770000000  0.4542450000000 1.0
C      1  0.4550690000000  0.4142940000000  0.4988720000000 1.0
C      1  0.4987860000000  0.4522550000000  0.4142160000000 1.0
C      1  0.5853480000000  0.5000770000000  0.5455070000000 1.0
C      1  0.4147140000000  0.4993240000000  0.5458160000000 1.0
C      1  0.5852150000000  0.5007800000000  0.4545730000000 1.0
C      1  0.5461930000000  0.4137260000000  0.5001530000000 1.0
C      1  0.4530890000000  0.5861950000000  0.4997690000000 1.0
C      1  0.5449330000000  0.5856210000000  0.5012370000000 1.0
C      1  0.5000820000000  0.4549370000000  0.5840550000000 1.0
C      1  0.5013720000000  0.5469650000000  0.5856360000000 1.0
C      1  0.4998620000000  0.5453910000000  0.4160180000000 1.0
C      1  0.4537480000000  0.4990370000000  0.4147220000000 1.0
C      1  0.5002640000000  0.4140740000000  0.4541270000000 1.0
C      1  0.4143150000000  0.4545440000000  0.4981130000000 1.0
C      1  0.5468590000000  0.5014360000000  0.5851160000000 1.0
C      1  0.5451930000000  0.4996400000000  0.4159460000000 1.0
C      1  0.4549100000000  0.5005770000000  0.5840200000000 1.0
C      1  0.4992310000000  0.4146290000000  0.5461960000000 1.0
C      1  0.5008200000000  0.5856100000000  0.4543110000000 1.0
C      1  0.4998770000000  0.5856830000000  0.5458440000000 1.0
C      1  0.5859640000000  0.4531260000000  0.4997130000000 1.0
C      1  0.5856190000000  0.5455200000000  0.5016690000000 1.0
C      1  0.4137230000000  0.5463560000000  0.5001400000000 1.0
C      1  0.5737350000000  0.5938150000000  0.4967810000000 1.0
C      1  0.4995750000000  0.5758490000000  0.5945930000000 1.0
C      1  0.5951240000000  0.5021590000000  0.5742770000000 1.0
C      1  0.4240050000000  0.5949050000000  0.5017270000000 1.0
C      1  0.5751030000000  0.4045750000000  0.4981340000000 1.0
C      1  0.4262040000000  0.4062010000000  0.5033830000000 1.0
C      1  0.5018020000000  0.5741470000000  0.4058600000000 1.0
C      1  0.5017500000000  0.4232600000000  0.4053640000000 1.0
C      1  0.4982530000000  0.4263510000000  0.5945230000000 1.0
C      1  0.4054070000000  0.4977770000000  0.4253000000000 1.0
C      1  0.5938940000000  0.4993820000000  0.4254660000000 1.0
C      1  0.4062780000000  0.5006280000000  0.5750000000000 1.0
C      1  0.5025670000000  0.5952020000000  0.5746910000000 1.0
C      1  0.5934390000000  0.5743380000000  0.4966450000000 1.0
C      1  0.5757140000000  0.4993280000000  0.5940830000000 1.0
C      1  0.4988560000000  0.5942150000000  0.4251210000000 1.0
C      1  0.5011250000000  0.4062120000000  0.5754140000000 1.0
C      1  0.4981940000000  0.4040370000000  0.4253980000000 1.0
C      1  0.4045230000000  0.5752220000000  0.4979170000000 1.0
C      1  0.4065310000000  0.4257070000000  0.5032340000000 1.0
C      1  0.5947440000000  0.4241010000000  0.5018930000000 1.0
C      1  0.4249450000000  0.5008050000000  0.4055890000000 1.0
C      1  0.4264510000000  0.4975290000000  0.5940020000000 1.0
C      1  0.5738430000000  0.5025560000000  0.4063070000000 1.0
C      1  0.4468720000000  0.4268760000000  0.5909450000000 1.0
C      1  0.5907250000000  0.4479270000000  0.4278160000000 1.0
C      1  0.4339990000000  0.5858720000000  0.4524440000000 1.0
C      1  0.5521160000000  0.4278920000000  0.4090740000000 1.0
C      1  0.4530130000000  0.5652070000000  0.4144790000000 1.0
C      1  0.5518100000000  0.5702950000000  0.5911500000000 1.0
C      1  0.4164640000000  0.4520410000000  0.5647040000000 1.0
C      1  0.5932450000000  0.5538820000000  0.5756210000000 1.0
C      1  0.4142470000000  0.5468570000000  0.4343300000000 1.0
C      1  0.5688960000000  0.5872940000000  0.5506220000000 1.0
C      1  0.4266970000000  0.4073760000000  0.5529340000000 1.0
C      1  0.5722180000000  0.4089530000000  0.4475020000000 1.0
C      1  0.5859990000000  0.4338980000000  0.4524720000000 1.0
C      1  0.4281770000000  0.4470310000000  0.5906720000000 1.0
C      1  0.4479920000000  0.5903970000000  0.4277470000000 1.0
C      1  0.4077070000000  0.4273480000000  0.5528300000000 1.0
C      1  0.4091500000000  0.5718820000000  0.4475900000000 1.0
C      1  0.5883950000000  0.5652030000000  0.5499940000000 1.0
C      1  0.5656840000000  0.4527690000000  0.4142200000000 1.0
C      1  0.5706060000000  0.5508070000000  0.5914420000000 1.0
C      1  0.4282430000000  0.5514520000000  0.4094160000000 1.0
C      1  0.5567150000000  0.5925760000000  0.5753540000000 1.0
C      1  0.5472930000000  0.4138800000000  0.4339660000000 1.0
C      1  0.4516550000000  0.4150290000000  0.5649740000000 1.0
C      1  0.5633740000000  0.5392330000000  0.4813820000000 1.0
C      1  0.4723620000000  0.5703430000000  0.5481610000000 1.0
C      1  0.5414150000000  0.4801700000000  0.5623010000000 1.0
C      1  0.4296510000000  0.5486680000000  0.5275370000000 1.0
C      1  0.5628210000000  0.4588010000000  0.5203800000000 1.0
C      1  0.4265060000000  0.4525360000000  0.4698460000000 1.0
C      1  0.5284970000000  0.5694200000000  0.4527200000000 1.0
C      1  0.4784260000000  0.4367350000000  0.4579730000000 1.0
C      1  0.5203690000000  0.4371670000000  0.5403270000000 1.0
C      1  0.4522250000000  0.4731000000000  0.4314060000000 1.0
C      1  0.5403290000000  0.5190980000000  0.4397640000000 1.0
C      1  0.4519340000000  0.5282570000000  0.5692140000000 1.0
C      1  0.4793970000000  0.5418680000000  0.5631720000000 1.0
C      1  0.5393650000000  0.5637680000000  0.4805230000000 1.0
C      1  0.5698330000000  0.4727010000000  0.5474530000000 1.0
C      1  0.5205120000000  0.5424900000000  0.4379060000000 1.0
C      1  0.5276940000000  0.4526690000000  0.5689240000000 1.0
C      1  0.4711100000000  0.4493890000000  0.4294020000000 1.0
C      1  0.4587300000000  0.5634370000000  0.5208760000000 1.0
C      1  0.4541620000000  0.4274360000000  0.4721460000000 1.0
C      1  0.5482660000000  0.4297670000000  0.5274610000000 1.0
C      1  0.4370410000000  0.4779610000000  0.4581780000000 1.0
C      1  0.4368860000000  0.5208450000000  0.5403560000000 1.0
C      1  0.5684950000000  0.5280180000000  0.4534060000000 1.0
C      1  0.4578440000000  0.4794890000000  0.5028880000000 1.0
C      1  0.4935890000000  0.4580500000000  0.4739990000000 1.0
C      1  0.4766660000000  0.5041150000000  0.4568400000000 1.0
C      1  0.5438530000000  0.4756590000000  0.5034170000000 1.0
C      1  0.4560450000000  0.5244130000000  0.4965260000000 1.0
C      1  0.5419600000000  0.5205440000000  0.4970460000000 1.0
C      1  0.5060650000000  0.4561080000000  0.5199000000000 1.0
C      1  0.5059890000000  0.5418790000000  0.5256350000000 1.0
C      1  0.4938120000000  0.5440030000000  0.4799320000000 1.0
C      1  0.5232430000000  0.4960660000000  0.5431240000000 1.0
C      1  0.4777680000000  0.4989610000000  0.5395450000000 1.0
C      1  0.5220810000000  0.5010900000000  0.4602940000000 1.0
C      1  0.5049940000000  0.4770370000000  0.4553050000000 1.0
C      1  0.4796730000000  0.4572220000000  0.5035400000000 1.0
C      1  0.4578790000000  0.4920320000000  0.4754630000000 1.0
C      1  0.5006820000000  0.4785340000000  0.5372370000000 1.0
C      1  0.4992210000000  0.5216220000000  0.4626120000000 1.0
C      1  0.4946190000000  0.5229340000000  0.5444000000000 1.0
C      1  0.5234100000000  0.4558950000000  0.4954860000000 1.0
C      1  0.5201510000000  0.5428020000000  0.4963130000000 1.0
C      1  0.4764410000000  0.5442040000000  0.5044320000000 1.0
C      1  0.5421100000000  0.5081030000000  0.5245120000000 1.0
C      1  0.5434850000000  0.4943270000000  0.4799470000000 1.0
C      1  0.4562700000000  0.5056960000000  0.5200110000000 1.0
END
