TITL C-74085-4933-46 -0.0813443169000249 125000 -513.718407831757 0 0 85 (C1) n - 1
REM
REM in /home/nfs/bkarasulu/CARBON/AIRSS/Generating-Clusters/LCBOP/Higher-Symm/SD-CG/FIRE-CG
REM
REM
REM
REM
REM
REM ./C.cell (b20cbc046b6831c77cfcea5457e17084)
REM AIRSS Version 0.9.1 bugfix July 2018 build 013d7b7c2542+ Fri, 06 Jul 2018 19:26:36 +0100
REM compiler GCC version 9.2.1 20190827 (Red Hat 9.2.1-1)
REM options -cpp -mtune=generic -march=x86-64 -g -O0 -fpre-include=/usr/include/finclude/math-vector-fortran.h
REM seed 1764272096 -488947811 160354038 -1640626162 1628998296 -1137660507 2075639438 -741324366 -1107931760 -640262847 -1294425275 401869663 -794680423 545507016 -1878304163 -191161799 1098159075 1559696074 970962251 232965273 -1471198437 883755294 1208241273 613446399 -2070441117 933377227 1437098492 617244602 1189458507 773565307 1439751869 -733993863 1222386025
REM
CELL 1.54180   50.00000   50.00000   50.00000   90.00000   90.00000   90.00000
LATT -1
SFAC C  
C      1  0.4627880000000  0.4555430000000  0.5802460000000 1.0
C      1  0.4707640000000  0.4317310000000  0.4645890000000 1.0
C      1  0.4538740000000  0.5123900000000  0.4276010000000 1.0
C      1  0.4491050000000  0.5523840000000  0.4957420000000 1.0
C      1  0.4628660000000  0.5279480000000  0.5694820000000 1.0
C      1  0.4424530000000  0.4932850000000  0.5453050000000 1.0
C      1  0.4471180000000  0.4661500000000  0.5348800000000 1.0
C      1  0.4479660000000  0.4734880000000  0.4833260000000 1.0
C      1  0.4380870000000  0.5003370000000  0.4772250000000 1.0
C      1  0.4368780000000  0.5141120000000  0.5244870000000 1.0
C      1  0.5026820000000  0.5678770000000  0.4415100000000 1.0
C      1  0.5082020000000  0.5784240000000  0.5357900000000 1.0
C      1  0.5299230000000  0.4987550000000  0.5834270000000 1.0
C      1  0.5437730000000  0.4197750000000  0.4878350000000 1.0
C      1  0.5250930000000  0.4806140000000  0.4164410000000 1.0
C      1  0.5473910000000  0.4579390000000  0.5200590000000 1.0
C      1  0.5603490000000  0.4853580000000  0.4527560000000 1.0
C      1  0.5474070000000  0.5449020000000  0.4468250000000 1.0
C      1  0.5428750000000  0.5641690000000  0.5034670000000 1.0
C      1  0.5543060000000  0.5213040000000  0.5434380000000 1.0
C      1  0.4571650000000  0.5182540000000  0.4578180000000 1.0
C      1  0.4587830000000  0.5359080000000  0.5200930000000 1.0
C      1  0.4676400000000  0.4989440000000  0.5632740000000 1.0
C      1  0.4587920000000  0.4467980000000  0.5530330000000 1.0
C      1  0.4634360000000  0.4593260000000  0.4639930000000 1.0
C      1  0.4691100000000  0.5467630000000  0.5480730000000 1.0
C      1  0.4799440000000  0.4787440000000  0.5833560000000 1.0
C      1  0.4934680000000  0.4169670000000  0.4684780000000 1.0
C      1  0.4732980000000  0.5003020000000  0.4115280000000 1.0
C      1  0.4594560000000  0.5479810000000  0.4684120000000 1.0
C      1  0.5492320000000  0.4953560000000  0.4268890000000 1.0
C      1  0.5305710000000  0.5690390000000  0.4525070000000 1.0
C      1  0.5363970000000  0.5694250000000  0.5315350000000 1.0
C      1  0.5497020000000  0.4969300000000  0.5600270000000 1.0
C      1  0.5565520000000  0.4466920000000  0.4936330000000 1.0
C      1  0.4850190000000  0.5054210000000  0.4607060000000 1.0
C      1  0.4828780000000  0.5206140000000  0.5054120000000 1.0
C      1  0.4895180000000  0.4965360000000  0.5421870000000 1.0
C      1  0.4815430000000  0.4326620000000  0.5436390000000 1.0
C      1  0.4856230000000  0.4771660000000  0.4599290000000 1.0
C      1  0.5541470000000  0.4604140000000  0.4662240000000 1.0
C      1  0.5442410000000  0.5253990000000  0.4241970000000 1.0
C      1  0.5287490000000  0.5764110000000  0.4807790000000 1.0
C      1  0.5426820000000  0.5476360000000  0.5505480000000 1.0
C      1  0.5480650000000  0.4695030000000  0.5483170000000 1.0
C      1  0.5097450000000  0.5177620000000  0.4555910000000 1.0
C      1  0.5040910000000  0.5382810000000  0.4990140000000 1.0
C      1  0.5088670000000  0.5160250000000  0.5460790000000 1.0
C      1  0.5073090000000  0.4434520000000  0.5421520000000 1.0
C      1  0.5081970000000  0.4680370000000  0.4734580000000 1.0
C      1  0.5227260000000  0.4575560000000  0.5626320000000 1.0
C      1  0.5265320000000  0.4504350000000  0.4570810000000 1.0
C      1  0.5131070000000  0.5246390000000  0.4236750000000 1.0
C      1  0.4991620000000  0.5686960000000  0.4885600000000 1.0
C      1  0.5157150000000  0.5402730000000  0.5637280000000 1.0
C      1  0.5223370000000  0.4548160000000  0.4280240000000 1.0
C      1  0.5007440000000  0.5508690000000  0.4190510000000 1.0
C      1  0.4939610000000  0.5859440000000  0.5123430000000 1.0
C      1  0.5212690000000  0.5256320000000  0.5890130000000 1.0
C      1  0.5523870000000  0.3961900000000  0.4982840000000 1.0
C      1  0.5616930000000  0.5061750000000  0.4716470000000 1.0
C      1  0.5381930000000  0.5254280000000  0.4696760000000 1.0
C      1  0.5348750000000  0.5343930000000  0.4985470000000 1.0
C      1  0.5548000000000  0.5184300000000  0.5151570000000 1.0
C      1  0.5182840000000  0.4539700000000  0.5180220000000 1.0
C      1  0.5101100000000  0.4764560000000  0.5819510000000 1.0
C      1  0.5213500000000  0.4230950000000  0.4693910000000 1.0
C      1  0.5022340000000  0.4989700000000  0.4115190000000 1.0
C      1  0.4828510000000  0.5647950000000  0.4629790000000 1.0
C      1  0.4947040000000  0.5598930000000  0.5532980000000 1.0
C      1  0.3174030000000  0.5319080000000  0.4906820000000 1.0
C      1  0.2919840000000  0.5372850000000  0.4885410000000 1.0
C      1  0.5979300000000  0.4954660000000  0.5044880000000 1.0
C      1  0.5731320000000  0.5055660000000  0.4976870000000 1.0
C      1  0.3949160000000  0.5155430000000  0.4972190000000 1.0
C      1  0.5059730000000  0.4725980000000  0.5012730000000 1.0
C      1  0.4595170000000  0.4725440000000  0.5096100000000 1.0
C      1  0.6201670000000  0.4832370000000  0.5120600000000 1.0
C      1  0.6419110000000  0.4702570000000  0.5198600000000 1.0
C      1  0.6849380000000  0.4443280000000  0.5353760000000 1.0
C      1  0.4221280000000  0.5103040000000  0.4994380000000 1.0
C      1  0.3690870000000  0.5209770000000  0.4950360000000 1.0
C      1  0.6636030000000  0.4571860000000  0.5276820000000 1.0
C      1  0.3432490000000  0.5264410000000  0.4928600000000 1.0
C      1  0.4847240000000  0.4907750000000  0.5134350000000 1.0
END
