TITL C-74080-5790-289 1323382.39238742 125000 -891.314874021305 0 0 149 (C1) n - 1
REM
REM in /home/nfs/bkarasulu/CARBON/AIRSS/Generating-Clusters/LCBOP/Higher-Symm/SD-CG/FIRE-CG
REM
REM
REM
REM
REM
REM ./C.cell (b20cbc046b6831c77cfcea5457e17084)
REM AIRSS Version 0.9.1 bugfix July 2018 build 013d7b7c2542+ Fri, 06 Jul 2018 19:26:36 +0100
REM compiler GCC version 9.2.1 20190827 (Red Hat 9.2.1-1)
REM options -cpp -mtune=generic -march=x86-64 -g -O0 -fpre-include=/usr/include/finclude/math-vector-fortran.h
REM seed -2095074478 -484343408 -1406263443 1218807384 -717302939 -91062500 -645772806 910909840 -1787114956 -647428800 -638641666 367731822 -1524145532 -200656718 -1513867170 -413058189 877908131 -262368134 -1154580141 1727368984 -966657135 265812627 1228167341 1408751279 -1057968808 1048168855 -1154969449 1893891215 -1986524133 676708667 1316285591 1807215838 -119038131
REM
CELL 1.54180   50.00000   50.00000   50.00000   90.00000   90.00000   90.00000
LATT -1
SFAC C  
C      1  0.5780360000000  0.5411880000000  0.5455770000000 1.0
C      1  0.5800310000000  0.5184250000000  0.4420510000000 1.0
C      1  0.5786330000000  0.4409900000000  0.5171270000000 1.0
C      1  0.4219080000000  0.5413710000000  0.4558090000000 1.0
C      1  0.4272630000000  0.5128960000000  0.5566350000000 1.0
C      1  0.4157890000000  0.4314280000000  0.4906080000000 1.0
C      1  0.5495860000000  0.6004840000000  0.5806720000000 1.0
C      1  0.5226000000000  0.5439360000000  0.3969390000000 1.0
C      1  0.5233770000000  0.3865000000000  0.5246460000000 1.0
C      1  0.4540370000000  0.6034510000000  0.4192350000000 1.0
C      1  0.4811530000000  0.5393840000000  0.5984390000000 1.0
C      1  0.4607100000000  0.3824070000000  0.4547710000000 1.0
C      1  0.5972000000000  0.5586460000000  0.4768320000000 1.0
C      1  0.6023380000000  0.4519900000000  0.4666340000000 1.0
C      1  0.5987960000000  0.4938360000000  0.5650420000000 1.0
C      1  0.4105700000000  0.5580930000000  0.5279450000000 1.0
C      1  0.4126670000000  0.4428770000000  0.5406330000000 1.0
C      1  0.3953190000000  0.4927740000000  0.4525060000000 1.0
C      1  0.4579970000000  0.5942520000000  0.4683010000000 1.0
C      1  0.4610150000000  0.4274290000000  0.4324790000000 1.0
C      1  0.4734350000000  0.4871900000000  0.5944980000000 1.0
C      1  0.5439480000000  0.5931790000000  0.5315280000000 1.0
C      1  0.5243730000000  0.4187980000000  0.5654060000000 1.0
C      1  0.5311860000000  0.4918430000000  0.3986440000000 1.0
C      1  0.5199940000000  0.3833900000000  0.4982570000000 1.0
C      1  0.5272080000000  0.5929050000000  0.5935670000000 1.0
C      1  0.5161020000000  0.5680790000000  0.4070130000000 1.0
C      1  0.4822050000000  0.3748200000000  0.4687700000000 1.0
C      1  0.4765050000000  0.5965730000000  0.4061670000000 1.0
C      1  0.4878200000000  0.5641790000000  0.5903430000000 1.0
C      1  0.5307790000000  0.5730410000000  0.5170810000000 1.0
C      1  0.5309910000000  0.4801170000000  0.4246050000000 1.0
C      1  0.5242660000000  0.4461590000000  0.5583970000000 1.0
C      1  0.4703470000000  0.5732600000000  0.4820930000000 1.0
C      1  0.4744930000000  0.4748210000000  0.5689170000000 1.0
C      1  0.4773790000000  0.4488890000000  0.4405680000000 1.0
C      1  0.5318340000000  0.4515780000000  0.4659620000000 1.0
C      1  0.5241430000000  0.4959780000000  0.5574820000000 1.0
C      1  0.5255770000000  0.5495220000000  0.4742150000000 1.0
C      1  0.4781910000000  0.4488700000000  0.5273610000000 1.0
C      1  0.4804890000000  0.4986550000000  0.4391930000000 1.0
C      1  0.4765060000000  0.5466680000000  0.5222450000000 1.0
C      1  0.5245300000000  0.3970650000000  0.5492960000000 1.0
C      1  0.5546120000000  0.6020230000000  0.5543660000000 1.0
C      1  0.5275450000000  0.5179230000000  0.3916580000000 1.0
C      1  0.4530870000000  0.4028430000000  0.4393100000000 1.0
C      1  0.4482660000000  0.6039220000000  0.4454020000000 1.0
C      1  0.4762790000000  0.5131270000000  0.6021230000000 1.0
C      1  0.5494570000000  0.5034820000000  0.5454120000000 1.0
C      1  0.5500410000000  0.5338880000000  0.4752160000000 1.0
C      1  0.5576680000000  0.4577010000000  0.4757610000000 1.0
C      1  0.4576780000000  0.5039610000000  0.4548160000000 1.0
C      1  0.4520910000000  0.5313060000000  0.5193380000000 1.0
C      1  0.4524190000000  0.4544520000000  0.5124350000000 1.0
C      1  0.3998520000000  0.5232270000000  0.5025670000000 1.0
C      1  0.3885040000000  0.4984020000000  0.4998660000000 1.0
C      1  0.3987220000000  0.4794810000000  0.5167780000000 1.0
C      1  0.5959220000000  0.5181900000000  0.4949300000000 1.0
C      1  0.5911940000000  0.4860440000000  0.5230650000000 1.0
C      1  0.5944030000000  0.4943310000000  0.4818010000000 1.0
C      1  0.5611450000000  0.4773570000000  0.6054570000000 1.0
C      1  0.5632760000000  0.6043220000000  0.4700360000000 1.0
C      1  0.5632550000000  0.4287470000000  0.4086710000000 1.0
C      1  0.4571510000000  0.4893760000000  0.3855740000000 1.0
C      1  0.4404150000000  0.6029300000000  0.5322790000000 1.0
C      1  0.4637790000000  0.4015530000000  0.5544250000000 1.0
C      1  0.4945990000000  0.6050850000000  0.5611930000000 1.0
C      1  0.4948380000000  0.4585180000000  0.3548840000000 1.0
C      1  0.4358630000000  0.4166500000000  0.6060780000000 1.0
C      1  0.5096160000000  0.6075250000000  0.4384640000000 1.0
C      1  0.5176550000000  0.4847230000000  0.6434710000000 1.0
C      1  0.5217150000000  0.3926750000000  0.4490420000000 1.0
C      1  0.5016480000000  0.4444660000000  0.6230290000000 1.0
C      1  0.5035270000000  0.6271990000000  0.4866730000000 1.0
C      1  0.5033520000000  0.4073050000000  0.4048430000000 1.0
C      1  0.4912680000000  0.4253000000000  0.3890920000000 1.0
C      1  0.4988550000000  0.6263260000000  0.5134410000000 1.0
C      1  0.4813090000000  0.4296240000000  0.6148640000000 1.0
C      1  0.4370790000000  0.5235510000000  0.4958880000000 1.0
C      1  0.4505480000000  0.4831590000000  0.4725860000000 1.0
C      1  0.4367210000000  0.4815930000000  0.5187390000000 1.0
C      1  0.5606090000000  0.5252750000000  0.5016430000000 1.0
C      1  0.5609290000000  0.4840010000000  0.5257870000000 1.0
C      1  0.5641970000000  0.4869530000000  0.4754300000000 1.0
C      1  0.4743780000000  0.4488180000000  0.5565800000000 1.0
C      1  0.4730530000000  0.5725430000000  0.5104200000000 1.0
C      1  0.4795380000000  0.4731570000000  0.4250260000000 1.0
C      1  0.5320560000000  0.4538950000000  0.4366590000000 1.0
C      1  0.5290500000000  0.5738640000000  0.4886510000000 1.0
C      1  0.5256070000000  0.4710780000000  0.5730780000000 1.0
C      1  0.4187030000000  0.4607920000000  0.5633930000000 1.0
C      1  0.4164870000000  0.5706740000000  0.5014800000000 1.0
C      1  0.4060450000000  0.4660910000000  0.4510290000000 1.0
C      1  0.5967430000000  0.4657300000000  0.4403170000000 1.0
C      1  0.5900740000000  0.5713970000000  0.5024010000000 1.0
C      1  0.5938950000000  0.4638100000000  0.5652690000000 1.0
C      1  0.5819900000000  0.5178920000000  0.5635710000000 1.0
C      1  0.5829840000000  0.5451580000000  0.4550460000000 1.0
C      1  0.5808040000000  0.4425910000000  0.4861460000000 1.0
C      1  0.4061940000000  0.5189440000000  0.4454700000000 1.0
C      1  0.4265790000000  0.5399980000000  0.5442140000000 1.0
C      1  0.4289050000000  0.4354120000000  0.5163350000000 1.0
C      1  0.5929340000000  0.4929290000000  0.4334320000000 1.0
C      1  0.5932160000000  0.4446940000000  0.5437210000000 1.0
C      1  0.5895810000000  0.5619410000000  0.5286090000000 1.0
C      1  0.4172270000000  0.4881480000000  0.5686840000000 1.0
C      1  0.4097410000000  0.4444240000000  0.4673310000000 1.0
C      1  0.4140070000000  0.5628850000000  0.4746760000000 1.0
C      1  0.4664020000000  0.4245550000000  0.5691770000000 1.0
C      1  0.4656900000000  0.5950870000000  0.5257130000000 1.0
C      1  0.4747540000000  0.4715760000000  0.3969070000000 1.0
C      1  0.5402330000000  0.4302470000000  0.4232580000000 1.0
C      1  0.5374920000000  0.5969390000000  0.4747630000000 1.0
C      1  0.5348200000000  0.4718350000000  0.6000950000000 1.0
C      1  0.5537080000000  0.5090680000000  0.4567650000000 1.0
C      1  0.5535750000000  0.4554930000000  0.5233540000000 1.0
C      1  0.5522130000000  0.5316060000000  0.5305210000000 1.0
C      1  0.4493800000000  0.5012180000000  0.5376590000000 1.0
C      1  0.4611660000000  0.4590200000000  0.4830390000000 1.0
C      1  0.4488250000000  0.5313310000000  0.4668080000000 1.0
C      1  0.6115810000000  0.4951500000000  0.5388550000000 1.0
C      1  0.6141210000000  0.5375090000000  0.4868590000000 1.0
C      1  0.6143750000000  0.4742810000000  0.4806790000000 1.0
C      1  0.3772320000000  0.4939160000000  0.4745850000000 1.0
C      1  0.3884100000000  0.5416390000000  0.5200660000000 1.0
C      1  0.3901480000000  0.4564690000000  0.5288360000000 1.0
C      1  0.5003140000000  0.5093170000000  0.5467250000000 1.0
C      1  0.5010470000000  0.5381170000000  0.4629670000000 1.0
C      1  0.5079330000000  0.4484870000000  0.4828290000000 1.0
C      1  0.5036430000000  0.5135790000000  0.4475000000000 1.0
C      1  0.5009880000000  0.5352370000000  0.5334150000000 1.0
C      1  0.5044720000000  0.4482590000000  0.5127090000000 1.0
C      1  0.5267960000000  0.5476620000000  0.5297190000000 1.0
C      1  0.5288420000000  0.5014010000000  0.4435460000000 1.0
C      1  0.5273490000000  0.4491090000000  0.5299700000000 1.0
C      1  0.4742180000000  0.5483360000000  0.4685970000000 1.0
C      1  0.4755370000000  0.4955570000000  0.5492500000000 1.0
C      1  0.4830940000000  0.4493660000000  0.4685950000000 1.0
C      1  0.4873670000000  0.6110950000000  0.5345740000000 1.0
C      1  0.4868780000000  0.4516520000000  0.3802440000000 1.0
C      1  0.4607440000000  0.4234730000000  0.5970330000000 1.0
C      1  0.5161720000000  0.6131280000000  0.4653840000000 1.0
C      1  0.5178940000000  0.4671310000000  0.6224740000000 1.0
C      1  0.5225960000000  0.4079460000000  0.4253760000000 1.0
C      1  0.5090640000000  0.3826520000000  0.4723010000000 1.0
C      1  0.5023410000000  0.5910960000000  0.4163160000000 1.0
C      1  0.5015810000000  0.5877580000000  0.5827190000000 1.0
C      1  0.4385320000000  0.4952900000000  0.4938940000000 1.0
C      1  0.5517250000000  0.4963900000000  0.5008710000000 1.0
END
