TITL C-74083-3671-138 -1.1521184748587e-07 125000 -969.46574812333 0 0 154 (C1) n - 1
REM
REM in /home/nfs/bkarasulu/CARBON/AIRSS/Generating-Clusters/LCBOP/Higher-Symm/SD-CG/FIRE-CG
REM
REM
REM
REM
REM
REM ./C.cell (b20cbc046b6831c77cfcea5457e17084)
REM AIRSS Version 0.9.1 bugfix July 2018 build 013d7b7c2542+ Fri, 06 Jul 2018 19:26:36 +0100
REM compiler GCC version 9.2.1 20190827 (Red Hat 9.2.1-1)
REM options -cpp -mtune=generic -march=x86-64 -g -O0 -fpre-include=/usr/include/finclude/math-vector-fortran.h
REM seed -1238963820 2066055021 -1546157776 1228965307 -552888338 771637747 -74789428 655130141 1309231067 -1949641913 -1007613918 39858689 2143926080 1716975213 -1246854776 -1741616645 316386757 -495209171 1896987617 1317576991 1016614359 1234566952 -1329105642 -211569084 1706439025 2146776552 519547636 513518380 1496179903 -2032254451 1005364284 -1066434719 -408110610
REM
CELL 1.54180   50.00000   50.00000   50.00000   90.00000   90.00000   90.00000
LATT -1
SFAC C  
C      1  0.4442910000000  0.4720500000000  0.5087540000000 1.0
C      1  0.4473820000000  0.5025890000000  0.4731590000000 1.0
C      1  0.4508040000000  0.5185630000000  0.5180470000000 1.0
C      1  0.5587950000000  0.5233720000000  0.5131200000000 1.0
C      1  0.5426420000000  0.4940370000000  0.4810790000000 1.0
C      1  0.5510460000000  0.4945660000000  0.5105290000000 1.0
C      1  0.5484540000000  0.5618740000000  0.5877630000000 1.0
C      1  0.5486070000000  0.4016890000000  0.5072820000000 1.0
C      1  0.5465840000000  0.5414130000000  0.4047650000000 1.0
C      1  0.4561520000000  0.4403080000000  0.5840900000000 1.0
C      1  0.4568570000000  0.6054220000000  0.5110800000000 1.0
C      1  0.4544060000000  0.4555190000000  0.4012970000000 1.0
C      1  0.4300170000000  0.4390040000000  0.5713830000000 1.0
C      1  0.4291860000000  0.4668190000000  0.4104200000000 1.0
C      1  0.4321810000000  0.5911480000000  0.5164350000000 1.0
C      1  0.5740100000000  0.5609050000000  0.5736250000000 1.0
C      1  0.5696370000000  0.5297450000000  0.4178160000000 1.0
C      1  0.5719480000000  0.4190470000000  0.5114730000000 1.0
C      1  0.5406980000000  0.4855990000000  0.6048430000000 1.0
C      1  0.5400210000000  0.4178970000000  0.4330740000000 1.0
C      1  0.5412540000000  0.5927400000000  0.4622970000000 1.0
C      1  0.4635360000000  0.5161870000000  0.6003150000000 1.0
C      1  0.4623300000000  0.5791450000000  0.4370280000000 1.0
C      1  0.4617200000000  0.4048480000000  0.4610670000000 1.0
C      1  0.5449900000000  0.4033630000000  0.4574120000000 1.0
C      1  0.5446700000000  0.5779320000000  0.4380660000000 1.0
C      1  0.5450760000000  0.5143050000000  0.6049890000000 1.0
C      1  0.4589900000000  0.5924430000000  0.4624380000000 1.0
C      1  0.4575730000000  0.4198690000000  0.4367890000000 1.0
C      1  0.4617970000000  0.4903520000000  0.5868060000000 1.0
C      1  0.4972950000000  0.4815700000000  0.3890760000000 1.0
C      1  0.5002320000000  0.6037800000000  0.5394010000000 1.0
C      1  0.4992610000000  0.4170560000000  0.5676610000000 1.0
C      1  0.5035870000000  0.5175520000000  0.3895970000000 1.0
C      1  0.5062350000000  0.3997500000000  0.5366960000000 1.0
C      1  0.5057320000000  0.5857470000000  0.5708190000000 1.0
C      1  0.5321810000000  0.5770600000000  0.5688700000000 1.0
C      1  0.5315520000000  0.4094590000000  0.5294180000000 1.0
C      1  0.5295940000000  0.5182960000000  0.3998200000000 1.0
C      1  0.4722990000000  0.4239920000000  0.5658180000000 1.0
C      1  0.4735850000000  0.5975090000000  0.5337980000000 1.0
C      1  0.4705960000000  0.4795580000000  0.3969880000000 1.0
C      1  0.4623700000000  0.3916280000000  0.5076360000000 1.0
C      1  0.4608060000000  0.5465950000000  0.4009250000000 1.0
C      1  0.4619160000000  0.5630330000000  0.5890840000000 1.0
C      1  0.5429730000000  0.6070410000000  0.5084340000000 1.0
C      1  0.5404660000000  0.4538740000000  0.4007100000000 1.0
C      1  0.5413930000000  0.4390840000000  0.5897820000000 1.0
C      1  0.5917260000000  0.5125800000000  0.5456690000000 1.0
C      1  0.5870370000000  0.4670320000000  0.4866580000000 1.0
C      1  0.6087410000000  0.5352210000000  0.4870580000000 1.0
C      1  0.4105680000000  0.4863590000000  0.5415930000000 1.0
C      1  0.3934450000000  0.5320870000000  0.4713790000000 1.0
C      1  0.3911450000000  0.4593550000000  0.4854950000000 1.0
C      1  0.5648490000000  0.4450990000000  0.5272610000000 1.0
C      1  0.5618030000000  0.5047560000000  0.4335900000000 1.0
C      1  0.5699720000000  0.5604490000000  0.5430340000000 1.0
C      1  0.4380440000000  0.5643010000000  0.5295890000000 1.0
C      1  0.4342020000000  0.4919420000000  0.4271260000000 1.0
C      1  0.4328540000000  0.4382050000000  0.5408440000000 1.0
C      1  0.4890080000000  0.5425940000000  0.3968640000000 1.0
C      1  0.4903510000000  0.5675420000000  0.5886560000000 1.0
C      1  0.4908910000000  0.3913510000000  0.5123840000000 1.0
C      1  0.5122620000000  0.4570420000000  0.3966420000000 1.0
C      1  0.5134130000000  0.4355130000000  0.5859120000000 1.0
C      1  0.5148810000000  0.6090130000000  0.5139750000000 1.0
C      1  0.4286120000000  0.4659490000000  0.5312180000000 1.0
C      1  0.4364300000000  0.4832020000000  0.4555270000000 1.0
C      1  0.4407900000000  0.5435960000000  0.5087480000000 1.0
C      1  0.5747780000000  0.5325900000000  0.5340980000000 1.0
C      1  0.5574350000000  0.5112170000000  0.4622300000000 1.0
C      1  0.5699940000000  0.4699310000000  0.5104200000000 1.0
C      1  0.4975190000000  0.4342430000000  0.4095500000000 1.0
C      1  0.4996310000000  0.6081490000000  0.4880680000000 1.0
C      1  0.4985910000000  0.4582660000000  0.5985030000000 1.0
C      1  0.5041470000000  0.5644520000000  0.4109520000000 1.0
C      1  0.5052990000000  0.3914450000000  0.4859620000000 1.0
C      1  0.5048940000000  0.5447760000000  0.6023940000000 1.0
C      1  0.5394070000000  0.5673570000000  0.5425980000000 1.0
C      1  0.5345110000000  0.4382950000000  0.5324540000000 1.0
C      1  0.5331490000000  0.5007920000000  0.4226080000000 1.0
C      1  0.4636550000000  0.4319820000000  0.5394110000000 1.0
C      1  0.4678940000000  0.5693510000000  0.5377610000000 1.0
C      1  0.4635210000000  0.4975690000000  0.4183870000000 1.0
C      1  0.4354710000000  0.4570030000000  0.4668090000000 1.0
C      1  0.4391780000000  0.5463640000000  0.4804540000000 1.0
C      1  0.4517140000000  0.4965380000000  0.5609780000000 1.0
C      1  0.5631920000000  0.5377220000000  0.4713560000000 1.0
C      1  0.5460610000000  0.4477370000000  0.4740670000000 1.0
C      1  0.5473000000000  0.5016900000000  0.5577960000000 1.0
C      1  0.4127970000000  0.4420750000000  0.4775940000000 1.0
C      1  0.4162570000000  0.5465950000000  0.4626030000000 1.0
C      1  0.4234480000000  0.5045370000000  0.5601910000000 1.0
C      1  0.5869660000000  0.5523800000000  0.4793780000000 1.0
C      1  0.5733100000000  0.4521240000000  0.4660170000000 1.0
C      1  0.5754730000000  0.4956740000000  0.5621750000000 1.0
C      1  0.4241930000000  0.5439280000000  0.4345330000000 1.0
C      1  0.4255170000000  0.5326710000000  0.5702180000000 1.0
C      1  0.4223130000000  0.4184680000000  0.4932220000000 1.0
C      1  0.5742570000000  0.4550230000000  0.4374410000000 1.0
C      1  0.5760880000000  0.4690470000000  0.5726150000000 1.0
C      1  0.5798380000000  0.5772240000000  0.4939940000000 1.0
C      1  0.3837650000000  0.5087420000000  0.4806010000000 1.0
C      1  0.3882370000000  0.4895850000000  0.5246340000000 1.0
C      1  0.3850760000000  0.4852990000000  0.4965030000000 1.0
C      1  0.6082290000000  0.4856770000000  0.4854930000000 1.0
C      1  0.6136670000000  0.5075520000000  0.5283380000000 1.0
C      1  0.6139820000000  0.5098300000000  0.4995600000000 1.0
C      1  0.5292640000000  0.4700310000000  0.4735550000000 1.0
C      1  0.5459580000000  0.5400220000000  0.4939880000000 1.0
C      1  0.5336230000000  0.4933900000000  0.5347110000000 1.0
C      1  0.4578800000000  0.5284390000000  0.4678440000000 1.0
C      1  0.4545750000000  0.4550010000000  0.4883330000000 1.0
C      1  0.4656400000000  0.5110340000000  0.5411500000000 1.0
C      1  0.4193750000000  0.5176510000000  0.4236840000000 1.0
C      1  0.4211970000000  0.5542130000000  0.5519410000000 1.0
C      1  0.4182440000000  0.4201200000000  0.5218230000000 1.0
C      1  0.5792180000000  0.4814690000000  0.4288160000000 1.0
C      1  0.5796930000000  0.4486190000000  0.5531080000000 1.0
C      1  0.5846400000000  0.5769960000000  0.5225180000000 1.0
C      1  0.4464740000000  0.4031080000000  0.4857830000000 1.0
C      1  0.4466620000000  0.5586950000000  0.4233440000000 1.0
C      1  0.4474390000000  0.5380110000000  0.5895660000000 1.0
C      1  0.5569870000000  0.5938500000000  0.4865130000000 1.0
C      1  0.5544770000000  0.4403070000000  0.4220530000000 1.0
C      1  0.5557400000000  0.4639260000000  0.5924610000000 1.0
C      1  0.4880830000000  0.5262080000000  0.5463260000000 1.0
C      1  0.4785600000000  0.4432700000000  0.4948240000000 1.0
C      1  0.4802530000000  0.5288360000000  0.4518780000000 1.0
C      1  0.5102390000000  0.4791750000000  0.5351830000000 1.0
C      1  0.5223040000000  0.5522810000000  0.5003130000000 1.0
C      1  0.5091990000000  0.4727550000000  0.4549090000000 1.0
C      1  0.4848470000000  0.4408670000000  0.5220180000000 1.0
C      1  0.4850490000000  0.5078850000000  0.4340120000000 1.0
C      1  0.4912500000000  0.5524070000000  0.5374680000000 1.0
C      1  0.5168530000000  0.5589690000000  0.5268020000000 1.0
C      1  0.5091700000000  0.4933610000000  0.4362020000000 1.0
C      1  0.5094680000000  0.4519370000000  0.5307810000000 1.0
C      1  0.5340370000000  0.5407270000000  0.6007410000000 1.0
C      1  0.5342340000000  0.3961640000000  0.4830880000000 1.0
C      1  0.5328220000000  0.5635230000000  0.4162250000000 1.0
C      1  0.4705680000000  0.4634960000000  0.5929860000000 1.0
C      1  0.4707030000000  0.6042540000000  0.4860800000000 1.0
C      1  0.4686640000000  0.4345260000000  0.4145220000000 1.0
C      1  0.4884650000000  0.3930800000000  0.4620050000000 1.0
C      1  0.4886440000000  0.5842180000000  0.4256580000000 1.0
C      1  0.4886670000000  0.5225060000000  0.6124160000000 1.0
C      1  0.5151010000000  0.6053710000000  0.4636300000000 1.0
C      1  0.5132530000000  0.4136900000000  0.4229220000000 1.0
C      1  0.5136380000000  0.4787950000000  0.6123310000000 1.0
C      1  0.5019610000000  0.6057140000000  0.4385030000000 1.0
C      1  0.5003250000000  0.3922730000000  0.4362460000000 1.0
C      1  0.5003190000000  0.5001780000000  0.6252700000000 1.0
C      1  0.4460680000000  0.4979700000000  0.5005270000000 1.0
END
