TITL C-74083-3671-32 -2.93595890208124e-07 125000 -779.214098059163 0 0 125 (D5) n - 1
REM
REM in /home/nfs/bkarasulu/CARBON/AIRSS/Generating-Clusters/LCBOP/Higher-Symm/SD-CG/FIRE-CG
REM
REM
REM
REM
REM
REM ./C.cell (b20cbc046b6831c77cfcea5457e17084)
REM AIRSS Version 0.9.1 bugfix July 2018 build 013d7b7c2542+ Fri, 06 Jul 2018 19:26:36 +0100
REM compiler GCC version 9.2.1 20190827 (Red Hat 9.2.1-1)
REM options -cpp -mtune=generic -march=x86-64 -g -O0 -fpre-include=/usr/include/finclude/math-vector-fortran.h
REM seed -1366602829 439041263 -385057369 -800465818 1764128394 1384602544 -137607642 -406887511 797825114 2099307377 103807970 680002412 1597758620 998642443 179130059 584819818 458678036 -1105718464 1144594629 922481425 -1846906689 -1672984204 -940545415 -208849711 -1055402036 -1196271947 -467041135 231432279 -1230550703 -1954358058 -685144141 417125407 1248013225
REM
CELL 1.54180   50.00000   50.00000   50.00000   90.00000   90.00000   90.00000
LATT -1
SFAC C  
C      1  0.5595710000000  0.5748310000000  0.5416420000000 1.0
C      1  0.5895770000000  0.4664690000000  0.5416420000000 1.0
C      1  0.4957910000000  0.4044450000000  0.5416430000000 1.0
C      1  0.4078220000000  0.4744750000000  0.5416440000000 1.0
C      1  0.4472400000000  0.5797790000000  0.5416430000000 1.0
C      1  0.5595690000000  0.4251680000000  0.4582130000000 1.0
C      1  0.5895770000000  0.5335290000000  0.4582130000000 1.0
C      1  0.4957930000000  0.5955550000000  0.4582140000000 1.0
C      1  0.4078220000000  0.5255270000000  0.4582150000000 1.0
C      1  0.4472370000000  0.4202220000000  0.4582140000000 1.0
C      1  0.5263290000000  0.4944040000000  0.5256920000000 1.0
C      1  0.5028140000000  0.4732310000000  0.5256920000000 1.0
C      1  0.4754110000000  0.4890520000000  0.5256920000000 1.0
C      1  0.4819890000000  0.5200030000000  0.5256920000000 1.0
C      1  0.5134580000000  0.5233110000000  0.5256920000000 1.0
C      1  0.5263280000000  0.5055950000000  0.4741640000000 1.0
C      1  0.5028140000000  0.5267690000000  0.4741650000000 1.0
C      1  0.4754100000000  0.5109490000000  0.4741650000000 1.0
C      1  0.4819880000000  0.4799980000000  0.4741650000000 1.0
C      1  0.5134570000000  0.4766890000000  0.4741640000000 1.0
C      1  0.4271800000000  0.5868130000000  0.5229290000000 1.0
C      1  0.5600620000000  0.5960830000000  0.5229280000000 1.0
C      1  0.6099410000000  0.4725690000000  0.5229270000000 1.0
C      1  0.5078860000000  0.3869640000000  0.5229280000000 1.0
C      1  0.3949330000000  0.4575700000000  0.5229290000000 1.0
C      1  0.4271770000000  0.4131890000000  0.4769290000000 1.0
C      1  0.5600590000000  0.4039150000000  0.4769280000000 1.0
C      1  0.6099410000000  0.5274280000000  0.4769280000000 1.0
C      1  0.5078880000000  0.6130360000000  0.4769290000000 1.0
C      1  0.3949340000000  0.5424320000000  0.4769300000000 1.0
C      1  0.5840140000000  0.5346780000000  0.5183100000000 1.0
C      1  0.5589420000000  0.4308140000000  0.5183100000000 1.0
C      1  0.4524140000000  0.4225630000000  0.5183110000000 1.0
C      1  0.4116480000000  0.5213270000000  0.5183120000000 1.0
C      1  0.4929820000000  0.5906180000000  0.5183110000000 1.0
C      1  0.5840130000000  0.4653200000000  0.4815450000000 1.0
C      1  0.5589440000000  0.5691850000000  0.4815450000000 1.0
C      1  0.4524160000000  0.5774380000000  0.4815470000000 1.0
C      1  0.4116470000000  0.4786750000000  0.4815470000000 1.0
C      1  0.4929790000000  0.4093820000000  0.4815460000000 1.0
C      1  0.4495950000000  0.5533900000000  0.5519390000000 1.0
C      1  0.5352020000000  0.5644370000000  0.5519390000000 1.0
C      1  0.5721620000000  0.4864340000000  0.5519380000000 1.0
C      1  0.5093980000000  0.4271780000000  0.5519390000000 1.0
C      1  0.4336470000000  0.4685600000000  0.5519390000000 1.0
C      1  0.4495930000000  0.4466110000000  0.4479180000000 1.0
C      1  0.5351990000000  0.4355620000000  0.4479180000000 1.0
C      1  0.5721610000000  0.5135640000000  0.4479170000000 1.0
C      1  0.5093980000000  0.5728210000000  0.4479180000000 1.0
C      1  0.4336470000000  0.5314420000000  0.4479190000000 1.0
C      1  0.4376800000000  0.5329960000000  0.5680240000000 1.0
C      1  0.5121240000000  0.5694660000000  0.5680230000000 1.0
C      1  0.5698140000000  0.5099360000000  0.5680220000000 1.0
C      1  0.5310240000000  0.4366740000000  0.5680230000000 1.0
C      1  0.4493610000000  0.4509260000000  0.5680240000000 1.0
C      1  0.4376780000000  0.4670050000000  0.4318340000000 1.0
C      1  0.5121210000000  0.4305330000000  0.4318330000000 1.0
C      1  0.5698120000000  0.4900620000000  0.4318330000000 1.0
C      1  0.5310240000000  0.5633250000000  0.4318340000000 1.0
C      1  0.4493610000000  0.5490750000000  0.4318340000000 1.0
C      1  0.5226710000000  0.4894880000000  0.4125170000000 1.0
C      1  0.4970070000000  0.4751890000000  0.4125180000000 1.0
C      1  0.4754780000000  0.4951790000000  0.4125180000000 1.0
C      1  0.4878360000000  0.5218310000000  0.4125180000000 1.0
C      1  0.5170030000000  0.5183140000000  0.4125170000000 1.0
C      1  0.5226730000000  0.5105120000000  0.5873390000000 1.0
C      1  0.4970100000000  0.5248110000000  0.5873390000000 1.0
C      1  0.4754800000000  0.5048220000000  0.5873400000000 1.0
C      1  0.4878370000000  0.4781690000000  0.5873390000000 1.0
C      1  0.5170040000000  0.4816860000000  0.5873390000000 1.0
C      1  0.6077220000000  0.5294990000000  0.5038850000000 1.0
C      1  0.5613430000000  0.4066650000000  0.5038850000000 1.0
C      1  0.4301900000000  0.4128170000000  0.5038860000000 1.0
C      1  0.3955120000000  0.5394530000000  0.5038870000000 1.0
C      1  0.5052330000000  0.6115660000000  0.5038860000000 1.0
C      1  0.6077220000000  0.4704990000000  0.4959700000000 1.0
C      1  0.5613450000000  0.5933330000000  0.4959710000000 1.0
C      1  0.4301920000000  0.5871840000000  0.4959720000000 1.0
C      1  0.3955110000000  0.4605500000000  0.4959720000000 1.0
C      1  0.5052310000000  0.3884340000000  0.4959710000000 1.0
C      1  0.5431860000000  0.4791940000000  0.4295720000000 1.0
C      1  0.4935570000000  0.4524980000000  0.4295720000000 1.0
C      1  0.4528310000000  0.4914480000000  0.4295730000000 1.0
C      1  0.4772900000000  0.5422170000000  0.4295730000000 1.0
C      1  0.5331330000000  0.5346440000000  0.4295720000000 1.0
C      1  0.5431880000000  0.5208050000000  0.5702840000000 1.0
C      1  0.4935590000000  0.5475030000000  0.5702850000000 1.0
C      1  0.4528320000000  0.5085530000000  0.5702850000000 1.0
C      1  0.4772910000000  0.4577830000000  0.5702850000000 1.0
C      1  0.5331330000000  0.4653560000000  0.5702840000000 1.0
C      1  0.5775640000000  0.4404800000000  0.5376250000000 1.0
C      1  0.4673620000000  0.4078400000000  0.5376260000000 1.0
C      1  0.4022650000000  0.5025620000000  0.5376270000000 1.0
C      1  0.4722350000000  0.5937440000000  0.5376260000000 1.0
C      1  0.5805760000000  0.5553740000000  0.5376250000000 1.0
C      1  0.5775640000000  0.5595190000000  0.4622300000000 1.0
C      1  0.4673630000000  0.5921610000000  0.4622320000000 1.0
C      1  0.4022640000000  0.4974400000000  0.4622320000000 1.0
C      1  0.4722320000000  0.4062570000000  0.4622310000000 1.0
C      1  0.5805740000000  0.4446240000000  0.4622300000000 1.0
C      1  0.4947980000000  0.4518210000000  0.5477490000000 1.0
C      1  0.4525720000000  0.4900600000000  0.5477500000000 1.0
C      1  0.4758910000000  0.5420360000000  0.5477500000000 1.0
C      1  0.5325290000000  0.5359190000000  0.5477490000000 1.0
C      1  0.5442140000000  0.4801640000000  0.5477490000000 1.0
C      1  0.4947980000000  0.5481790000000  0.4521070000000 1.0
C      1  0.4525710000000  0.5099410000000  0.4521080000000 1.0
C      1  0.4758890000000  0.4579650000000  0.4521070000000 1.0
C      1  0.5325270000000  0.4640800000000  0.4521070000000 1.0
C      1  0.5442130000000  0.5198350000000  0.4521070000000 1.0
C      1  0.4932090000000  0.4347510000000  0.4949660000000 1.0
C      1  0.4358460000000  0.4862950000000  0.4949660000000 1.0
C      1  0.4671410000000  0.5567790000000  0.4949660000000 1.0
C      1  0.5438460000000  0.5487960000000  0.4949650000000 1.0
C      1  0.5599570000000  0.4733790000000  0.4949650000000 1.0
C      1  0.4932110000000  0.5652490000000  0.5048910000000 1.0
C      1  0.4358460000000  0.5137060000000  0.5048920000000 1.0
C      1  0.4671400000000  0.4432220000000  0.5048910000000 1.0
C      1  0.5438450000000  0.4512030000000  0.5048910000000 1.0
C      1  0.5599580000000  0.5266200000000  0.5048910000000 1.0
C      1  0.4628300000000  0.5270060000000  0.4999290000000 1.0
C      1  0.4628290000000  0.4729950000000  0.4999290000000 1.0
C      1  0.5141980000000  0.5436960000000  0.4999280000000 1.0
C      1  0.5141970000000  0.4563030000000  0.4999280000000 1.0
C      1  0.5459450000000  0.4999990000000  0.4999280000000 1.0
END
