TITL C-74086-5274-352 0.181624180540793 125000 -798.615955123841 0 0 134 (C1) n - 1
REM
REM in /home/nfs/bkarasulu/CARBON/AIRSS/Generating-Clusters/LCBOP/Higher-Symm/SD-CG/FIRE-CG
REM
REM
REM
REM
REM
REM ./C.cell (b20cbc046b6831c77cfcea5457e17084)
REM AIRSS Version 0.9.1 bugfix July 2018 build 013d7b7c2542+ Fri, 06 Jul 2018 19:26:36 +0100
REM compiler GCC version 9.2.1 20190827 (Red Hat 9.2.1-1)
REM options -cpp -mtune=generic -march=x86-64 -g -O0 -fpre-include=/usr/include/finclude/math-vector-fortran.h
REM seed 704598331 -1763254530 570126729 889001972 -1211702814 1455466916 -213670384 664566783 1572048486 446450715 516075348 -1050263502 350378983 -616158432 529342122 1017015188 -1907526182 -688328119 1783244093 700475859 -1156024863 928386782 -1592578944 -814496639 -717305460 -1883472389 -695379537 -1619791326 1558680545 1096191840 896835381 1947135019 1526019076
REM
CELL 1.54180   50.00000   50.00000   50.00000   90.00000   90.00000   90.00000
LATT -1
SFAC C  
C      1  0.4980370000000  0.5366270000000  0.5916710000000 1.0
C      1  0.5005520000000  0.5959530000000  0.5102770000000 1.0
C      1  0.4954260000000  0.5613230000000  0.4177640000000 1.0
C      1  0.5037400000000  0.4629710000000  0.4086700000000 1.0
C      1  0.4997480000000  0.4058600000000  0.4907780000000 1.0
C      1  0.5025040000000  0.4364440000000  0.5829550000000 1.0
C      1  0.5754550000000  0.4291180000000  0.5404320000000 1.0
C      1  0.4226310000000  0.4990420000000  0.5814560000000 1.0
C      1  0.5732010000000  0.5672410000000  0.5387760000000 1.0
C      1  0.4235270000000  0.5686680000000  0.4616600000000 1.0
C      1  0.5778300000000  0.5033670000000  0.4183280000000 1.0
C      1  0.4269410000000  0.4314080000000  0.4603530000000 1.0
C      1  0.5535130000000  0.4291370000000  0.5591780000000 1.0
C      1  0.4458020000000  0.5154810000000  0.5867210000000 1.0
C      1  0.5523560000000  0.5821130000000  0.5265760000000 1.0
C      1  0.4445610000000  0.5652430000000  0.4423940000000 1.0
C      1  0.5559130000000  0.4850960000000  0.4134600000000 1.0
C      1  0.4475410000000  0.4167660000000  0.4732120000000 1.0
C      1  0.5446360000000  0.5809250000000  0.4983350000000 1.0
C      1  0.4537740000000  0.5396410000000  0.4305930000000 1.0
C      1  0.5465050000000  0.4630690000000  0.4310380000000 1.0
C      1  0.4538520000000  0.4171210000000  0.5019040000000 1.0
C      1  0.5451720000000  0.4538640000000  0.5721710000000 1.0
C      1  0.4553310000000  0.5374230000000  0.5694660000000 1.0
C      1  0.5100210000000  0.4895760000000  0.5853440000000 1.0
C      1  0.4930290000000  0.5614250000000  0.5447090000000 1.0
C      1  0.5072850000000  0.5735470000000  0.4634190000000 1.0
C      1  0.4942230000000  0.5094940000000  0.4180740000000 1.0
C      1  0.5074340000000  0.4408610000000  0.4564690000000 1.0
C      1  0.4889860000000  0.4227990000000  0.5379900000000 1.0
C      1  0.4672520000000  0.4787620000000  0.4442320000000 1.0
C      1  0.5301940000000  0.4481510000000  0.5018520000000 1.0
C      1  0.4629290000000  0.4627720000000  0.5605070000000 1.0
C      1  0.5316230000000  0.5258840000000  0.5546450000000 1.0
C      1  0.4696550000000  0.5611780000000  0.5001720000000 1.0
C      1  0.5341350000000  0.5355760000000  0.4424460000000 1.0
C      1  0.4822740000000  0.4504920000000  0.5419650000000 1.0
C      1  0.5116200000000  0.5047120000000  0.5597580000000 1.0
C      1  0.4918110000000  0.5489940000000  0.5174020000000 1.0
C      1  0.5099180000000  0.5444460000000  0.4591910000000 1.0
C      1  0.4930220000000  0.4929600000000  0.4429750000000 1.0
C      1  0.5079750000000  0.4550520000000  0.4822320000000 1.0
C      1  0.5055550000000  0.4168430000000  0.5611330000000 1.0
C      1  0.4939130000000  0.5088170000000  0.6009120000000 1.0
C      1  0.5048960000000  0.5874950000000  0.5380570000000 1.0
C      1  0.4918690000000  0.5807570000000  0.4394750000000 1.0
C      1  0.5080980000000  0.4908060000000  0.4003730000000 1.0
C      1  0.4957870000000  0.4149040000000  0.4633700000000 1.0
C      1  0.5321630000000  0.5914350000000  0.5445660000000 1.0
C      1  0.4641630000000  0.5862940000000  0.4421650000000 1.0
C      1  0.5357710000000  0.4948090000000  0.3953090000000 1.0
C      1  0.4690930000000  0.4095280000000  0.4558490000000 1.0
C      1  0.5328210000000  0.4095950000000  0.5576200000000 1.0
C      1  0.4658690000000  0.5046670000000  0.6044160000000 1.0
C      1  0.3978110000000  0.4683620000000  0.5465770000000 1.0
C      1  0.5980580000000  0.5247210000000  0.5506850000000 1.0
C      1  0.4022110000000  0.5536200000000  0.5066710000000 1.0
C      1  0.6022390000000  0.5341830000000  0.4532730000000 1.0
C      1  0.4045970000000  0.4756770000000  0.4475730000000 1.0
C      1  0.6000010000000  0.4432250000000  0.4932620000000 1.0
C      1  0.4811380000000  0.5264860000000  0.4711460000000 1.0
C      1  0.5217280000000  0.4967420000000  0.4634620000000 1.0
C      1  0.4855890000000  0.4736960000000  0.4963650000000 1.0
C      1  0.4974190000000  0.4722690000000  0.5258930000000 1.0
C      1  0.4899060000000  0.4968260000000  0.5423820000000 1.0
C      1  0.5156010000000  0.5306070000000  0.5090150000000 1.0
C      1  0.4210590000000  0.5704120000000  0.4903660000000 1.0
C      1  0.5825920000000  0.5296000000000  0.4301950000000 1.0
C      1  0.4243890000000  0.4539400000000  0.4431840000000 1.0
C      1  0.5779720000000  0.4322190000000  0.5119810000000 1.0
C      1  0.4159800000000  0.4734550000000  0.5696710000000 1.0
C      1  0.5774200000000  0.5444790000000  0.5551620000000 1.0
C      1  0.6061670000000  0.4650840000000  0.4751200000000 1.0
C      1  0.3961670000000  0.4677700000000  0.5185650000000 1.0
C      1  0.6023430000000  0.5001070000000  0.5393980000000 1.0
C      1  0.3993020000000  0.5295950000000  0.5211560000000 1.0
C      1  0.6047220000000  0.5312630000000  0.4817300000000 1.0
C      1  0.4015580000000  0.5008220000000  0.4596330000000 1.0
C      1  0.4810880000000  0.5361770000000  0.4185470000000 1.0
C      1  0.5186140000000  0.4526140000000  0.4311580000000 1.0
C      1  0.4812970000000  0.4117480000000  0.5120110000000 1.0
C      1  0.5188440000000  0.4603210000000  0.5841510000000 1.0
C      1  0.4830710000000  0.5476820000000  0.5694610000000 1.0
C      1  0.5170470000000  0.5858570000000  0.4887170000000 1.0
C      1  0.5734730000000  0.4766030000000  0.5010270000000 1.0
C      1  0.4370680000000  0.4884460000000  0.5325630000000 1.0
C      1  0.5599660000000  0.5132480000000  0.5201200000000 1.0
C      1  0.4374440000000  0.5288930000000  0.4931140000000 1.0
C      1  0.5671160000000  0.5127630000000  0.4672450000000 1.0
C      1  0.4357470000000  0.4813030000000  0.4802700000000 1.0
C      1  0.5698240000000  0.4920190000000  0.5833070000000 1.0
C      1  0.4345040000000  0.5756670000000  0.5493860000000 1.0
C      1  0.5680150000000  0.5851210000000  0.4559780000000 1.0
C      1  0.4328300000000  0.5019510000000  0.4090450000000 1.0
C      1  0.5632880000000  0.4245260000000  0.4538370000000 1.0
C      1  0.4271520000000  0.4184890000000  0.5426880000000 1.0
C      1  0.5923060000000  0.4827810000000  0.5206580000000 1.0
C      1  0.4121560000000  0.5064000000000  0.5304090000000 1.0
C      1  0.5899710000000  0.5236250000000  0.5049170000000 1.0
C      1  0.4145080000000  0.5190340000000  0.4765580000000 1.0
C      1  0.5952680000000  0.4902700000000  0.4660010000000 1.0
C      1  0.4090610000000  0.4743850000000  0.4945480000000 1.0
C      1  0.4462120000000  0.5794980000000  0.5039130000000 1.0
C      1  0.5582160000000  0.5472240000000  0.4290570000000 1.0
C      1  0.4487270000000  0.4618220000000  0.4276450000000 1.0
C      1  0.5516110000000  0.4282250000000  0.4992420000000 1.0
C      1  0.4378800000000  0.4540370000000  0.5719890000000 1.0
C      1  0.5545630000000  0.5344220000000  0.5705880000000 1.0
C      1  0.4416010000000  0.5919490000000  0.5289210000000 1.0
C      1  0.5632390000000  0.5750100000000  0.4312830000000 1.0
C      1  0.4409990000000  0.4762680000000  0.4040500000000 1.0
C      1  0.5537210000000  0.4120890000000  0.4759690000000 1.0
C      1  0.4303810000000  0.4271200000000  0.5680960000000 1.0
C      1  0.5625900000000  0.5168110000000  0.5910900000000 1.0
C      1  0.5429430000000  0.5096110000000  0.4521830000000 1.0
C      1  0.4564570000000  0.4681720000000  0.4954540000000 1.0
C      1  0.5280470000000  0.4677600000000  0.5237110000000 1.0
C      1  0.4617300000000  0.4908610000000  0.5489950000000 1.0
C      1  0.5375710000000  0.5291050000000  0.5266360000000 1.0
C      1  0.4606370000000  0.5412920000000  0.4813420000000 1.0
C      1  0.5611130000000  0.4528980000000  0.4529320000000 1.0
C      1  0.4376130000000  0.4319930000000  0.5202920000000 1.0
C      1  0.5583540000000  0.4767950000000  0.5625980000000 1.0
C      1  0.4403460000000  0.5479050000000  0.5480380000000 1.0
C      1  0.5618160000000  0.5698050000000  0.4790080000000 1.0
C      1  0.4397950000000  0.5149460000000  0.4339620000000 1.0
C      1  0.4419320000000  0.4607070000000  0.5193270000000 1.0
C      1  0.5494060000000  0.4838280000000  0.5361690000000 1.0
C      1  0.4422690000000  0.5356350000000  0.5221050000000 1.0
C      1  0.5629670000000  0.5415230000000  0.4765150000000 1.0
C      1  0.4465200000000  0.4957520000000  0.4566720000000 1.0
C      1  0.5612810000000  0.4666220000000  0.4783930000000 1.0
C      1  0.5152080000000  0.5075110000000  0.4900240000000 1.0
C      1  0.4866890000000  0.5034330000000  0.4880310000000 1.0
END
