TITL C-74084-3399-322 -1.50470751331863e-07 125000 -174.627801501823 0 0 32 (C2) n - 1
REM
REM in /home/nfs/bkarasulu/CARBON/AIRSS/Generating-Clusters/LCBOP/Higher-Symm/SD-CG/FIRE-CG
REM
REM
REM
REM
REM
REM ./C.cell (b20cbc046b6831c77cfcea5457e17084)
REM AIRSS Version 0.9.1 bugfix July 2018 build 013d7b7c2542+ Fri, 06 Jul 2018 19:26:36 +0100
REM compiler GCC version 9.2.1 20190827 (Red Hat 9.2.1-1)
REM options -cpp -mtune=generic -march=x86-64 -g -O0 -fpre-include=/usr/include/finclude/math-vector-fortran.h
REM seed -1639411391 -26234318 -1019559093 -1858448656 888662318 -1072629479 728108078 -2119470918 -445039764 -175857781 -778544387 -806095010 481529026 -1289393068 -470857412 -933933498 -811989780 212366731 -1807268778 -809487305 -1972370667 -137165327 423869214 -2132161657 788575592 932146953 -889401429 225224138 1802804068 -1817701494 382803466 746761554 1970790680
REM
CELL 1.54180   50.00000   50.00000   50.00000   90.00000   90.00000   90.00000
LATT -1
SFAC C  
C      1  0.4674730000000  0.4788780000000  0.4962500000000 1.0
C      1  0.5325240000000  0.4788740000000  0.5037530000000 1.0
C      1  0.4903430000000  0.4505070000000  0.4628590000000 1.0
C      1  0.5096500000000  0.4505110000000  0.5371480000000 1.0
C      1  0.5167700000000  0.5109740000000  0.4505230000000 1.0
C      1  0.4832310000000  0.5109830000000  0.5494750000000 1.0
C      1  0.5254800000000  0.5502180000000  0.5144400000000 1.0
C      1  0.4745270000000  0.5502190000000  0.4855530000000 1.0
C      1  0.4890990000000  0.5014070000000  0.4568050000000 1.0
C      1  0.5109010000000  0.5014110000000  0.5431950000000 1.0
C      1  0.4527510000000  0.4958870000000  0.5161820000000 1.0
C      1  0.5472490000000  0.4958790000000  0.4838190000000 1.0
C      1  0.5256450000000  0.5435670000000  0.4859900000000 1.0
C      1  0.4743610000000  0.5435720000000  0.5140040000000 1.0
C      1  0.5235490000000  0.4734080000000  0.5486720000000 1.0
C      1  0.4764480000000  0.4734050000000  0.4513320000000 1.0
C      1  0.4525900000000  0.4754430000000  0.4693400000000 1.0
C      1  0.5474070000000  0.4754420000000  0.5306630000000 1.0
C      1  0.4900190000000  0.4998780000000  0.4892510000000 1.0
C      1  0.5099810000000  0.4998790000000  0.5107490000000 1.0
C      1  0.4577650000000  0.5400920000000  0.4654430000000 1.0
C      1  0.5422400000000  0.5400910000000  0.5345510000000 1.0
C      1  0.5345550000000  0.5190930000000  0.4717670000000 1.0
C      1  0.4654470000000  0.5191010000000  0.5282300000000 1.0
C      1  0.5013330000000  0.5559770000000  0.4756940000000 1.0
C      1  0.4986740000000  0.5559800000000  0.5242980000000 1.0
C      1  0.5118230000000  0.4530850000000  0.5077700000000 1.0
C      1  0.4881710000000  0.4530850000000  0.4922360000000 1.0
C      1  0.4675090000000  0.5209900000000  0.4488490000000 1.0
C      1  0.5324930000000  0.5209920000000  0.5511480000000 1.0
C      1  0.4971790000000  0.4305900000000  0.5507420000000 1.0
C      1  0.5028120000000  0.4305830000000  0.4492670000000 1.0
END
