TITL C-74080-5790-158 0.00306169448857133 125000 -726.162748860964 0 0 118 (C1) n - 1
REM
REM in /home/nfs/bkarasulu/CARBON/AIRSS/Generating-Clusters/LCBOP/Higher-Symm/SD-CG/FIRE-CG
REM
REM
REM
REM
REM
REM ./C.cell (b20cbc046b6831c77cfcea5457e17084)
REM AIRSS Version 0.9.1 bugfix July 2018 build 013d7b7c2542+ Fri, 06 Jul 2018 19:26:36 +0100
REM compiler GCC version 9.2.1 20190827 (Red Hat 9.2.1-1)
REM options -cpp -mtune=generic -march=x86-64 -g -O0 -fpre-include=/usr/include/finclude/math-vector-fortran.h
REM seed -1553953440 -1575243263 -1639490936 -1033001048 -2092620598 -568414191 -673119362 -1568190214 528057550 1463883876 359140433 -889151469 -932359682 1317878399 633933604 -1414076236 878574592 847718956 -1098950129 -1721725431 -520259158 407624159 -59974444 1226862479 -1155459618 -1088424166 1029606604 809859079 -1312487501 -269515609 922237755 -1903298120 1507688262
REM
CELL 1.54180   50.00000   50.00000   50.00000   90.00000   90.00000   90.00000
LATT -1
SFAC C  
C      1  0.4911060000000  0.4889210000000  0.4530660000000 1.0
C      1  0.4905970000000  0.4534410000000  0.5109920000000 1.0
C      1  0.4905830000000  0.5111730000000  0.5464790000000 1.0
C      1  0.4909740000000  0.5468020000000  0.4887290000000 1.0
C      1  0.5083560000000  0.4886920000000  0.5466590000000 1.0
C      1  0.5086380000000  0.4534960000000  0.4887150000000 1.0
C      1  0.5090240000000  0.5113040000000  0.4533110000000 1.0
C      1  0.5087640000000  0.5467790000000  0.5111780000000 1.0
C      1  0.5419110000000  0.4083700000000  0.4990660000000 1.0
C      1  0.5417850000000  0.4989070000000  0.5918970000000 1.0
C      1  0.5417570000000  0.5922530000000  0.5008590000000 1.0
C      1  0.5419680000000  0.5012960000000  0.4079530000000 1.0
C      1  0.4576280000000  0.4081210000000  0.5010590000000 1.0
C      1  0.4577130000000  0.4990410000000  0.4077620000000 1.0
C      1  0.4576240000000  0.5920300000000  0.4991820000000 1.0
C      1  0.4575410000000  0.5013610000000  0.5918570000000 1.0
C      1  0.4525330000000  0.5213270000000  0.4946400000000 1.0
C      1  0.4528740000000  0.4960730000000  0.4784900000000 1.0
C      1  0.4524740000000  0.4788450000000  0.5030220000000 1.0
C      1  0.4521040000000  0.5044630000000  0.5212030000000 1.0
C      1  0.5474410000000  0.5216580000000  0.5054060000000 1.0
C      1  0.5466270000000  0.4954830000000  0.5211680000000 1.0
C      1  0.5465830000000  0.4791910000000  0.4966210000000 1.0
C      1  0.5473630000000  0.5039380000000  0.4786250000000 1.0
C      1  0.5554170000000  0.5029640000000  0.4327830000000 1.0
C      1  0.5551640000000  0.4333270000000  0.4975200000000 1.0
C      1  0.5550280000000  0.4969900000000  0.5669670000000 1.0
C      1  0.5551660000000  0.5674130000000  0.5024900000000 1.0
C      1  0.4441270000000  0.5031260000000  0.5670130000000 1.0
C      1  0.4441750000000  0.4329570000000  0.5027600000000 1.0
C      1  0.4444520000000  0.4973500000000  0.4326970000000 1.0
C      1  0.4444320000000  0.5670560000000  0.4977450000000 1.0
C      1  0.4686310000000  0.5507600000000  0.5882280000000 1.0
C      1  0.4683820000000  0.5881520000000  0.4496610000000 1.0
C      1  0.4687670000000  0.4496450000000  0.4116690000000 1.0
C      1  0.4685580000000  0.4119760000000  0.5504710000000 1.0
C      1  0.5309030000000  0.5507090000000  0.4117330000000 1.0
C      1  0.5309390000000  0.5883280000000  0.5503170000000 1.0
C      1  0.5307070000000  0.4495240000000  0.5883790000000 1.0
C      1  0.5310650000000  0.4121320000000  0.4495900000000 1.0
C      1  0.5329980000000  0.5706260000000  0.4296710000000 1.0
C      1  0.5332820000000  0.4300640000000  0.4296760000000 1.0
C      1  0.5329840000000  0.4296740000000  0.5703930000000 1.0
C      1  0.5331430000000  0.5702550000000  0.5701110000000 1.0
C      1  0.4664750000000  0.5707030000000  0.5703390000000 1.0
C      1  0.4662580000000  0.4299980000000  0.5702960000000 1.0
C      1  0.4665370000000  0.4298420000000  0.4297310000000 1.0
C      1  0.4663080000000  0.5701940000000  0.4297480000000 1.0
C      1  0.5264800000000  0.4027340000000  0.5235790000000 1.0
C      1  0.5264620000000  0.5235550000000  0.5972890000000 1.0
C      1  0.5262760000000  0.5977490000000  0.4763620000000 1.0
C      1  0.5266070000000  0.4767070000000  0.4024410000000 1.0
C      1  0.4730950000000  0.4027330000000  0.4764890000000 1.0
C      1  0.4731030000000  0.5236410000000  0.4023500000000 1.0
C      1  0.4730820000000  0.5977570000000  0.5236280000000 1.0
C      1  0.4728660000000  0.4767460000000  0.5973720000000 1.0
C      1  0.5253840000000  0.4752010000000  0.5987710000000 1.0
C      1  0.5255440000000  0.5989600000000  0.5247390000000 1.0
C      1  0.5256120000000  0.5250670000000  0.4012370000000 1.0
C      1  0.5256510000000  0.4016420000000  0.4752140000000 1.0
C      1  0.4740900000000  0.4752570000000  0.4010750000000 1.0
C      1  0.4737720000000  0.5987510000000  0.4752510000000 1.0
C      1  0.4739430000000  0.5250890000000  0.5986110000000 1.0
C      1  0.4739630000000  0.4014360000000  0.5248620000000 1.0
C      1  0.4994670000000  0.3944010000000  0.4850110000000 1.0
C      1  0.4992320000000  0.4851650000000  0.6058340000000 1.0
C      1  0.4993560000000  0.6061840000000  0.5149760000000 1.0
C      1  0.4994760000000  0.5151730000000  0.3940010000000 1.0
C      1  0.5001560000000  0.3943300000000  0.5150200000000 1.0
C      1  0.5002620000000  0.4851680000000  0.3939790000000 1.0
C      1  0.4999520000000  0.6061060000000  0.4849680000000 1.0
C      1  0.5000880000000  0.5151660000000  0.6057540000000 1.0
C      1  0.3985290000000  0.5804410000000  0.5049630000000 1.0
C      1  0.3982180000000  0.5026910000000  0.4192840000000 1.0
C      1  0.3978940000000  0.4192090000000  0.4987030000000 1.0
C      1  0.3979020000000  0.4987830000000  0.5806140000000 1.0
C      1  0.6012690000000  0.5811120000000  0.4966010000000 1.0
C      1  0.6012690000000  0.5015640000000  0.5803560000000 1.0
C      1  0.6012540000000  0.4198860000000  0.5032870000000 1.0
C      1  0.6015840000000  0.4977230000000  0.4190260000000 1.0
C      1  0.5927890000000  0.5337780000000  0.5000100000000 1.0
C      1  0.5929960000000  0.5003290000000  0.4663970000000 1.0
C      1  0.5923290000000  0.4668810000000  0.5008300000000 1.0
C      1  0.5923220000000  0.4991230000000  0.5333610000000 1.0
C      1  0.4072180000000  0.5335020000000  0.5011150000000 1.0
C      1  0.4067940000000  0.5012410000000  0.5335820000000 1.0
C      1  0.4066240000000  0.4665960000000  0.5003110000000 1.0
C      1  0.4069590000000  0.4999990000000  0.4666020000000 1.0
C      1  0.5366480000000  0.4541990000000  0.4933020000000 1.0
C      1  0.5364500000000  0.4928210000000  0.5461370000000 1.0
C      1  0.5368740000000  0.5464250000000  0.5071060000000 1.0
C      1  0.5370860000000  0.5069900000000  0.4538550000000 1.0
C      1  0.4625820000000  0.4540070000000  0.5064760000000 1.0
C      1  0.4630300000000  0.4932170000000  0.4535310000000 1.0
C      1  0.4628680000000  0.5462500000000  0.4928540000000 1.0
C      1  0.4625040000000  0.5070270000000  0.5459600000000 1.0
C      1  0.5829590000000  0.4992270000000  0.5600190000000 1.0
C      1  0.5830840000000  0.5607700000000  0.4997070000000 1.0
C      1  0.5833500000000  0.5003380000000  0.4393890000000 1.0
C      1  0.5830130000000  0.4402290000000  0.5005490000000 1.0
C      1  0.4165610000000  0.5000090000000  0.4395540000000 1.0
C      1  0.4166350000000  0.5601250000000  0.5012650000000 1.0
C      1  0.4161550000000  0.5010470000000  0.5602310000000 1.0
C      1  0.4162140000000  0.4395730000000  0.5005870000000 1.0
C      1  0.4673480000000  0.4135980000000  0.4511350000000 1.0
C      1  0.4670600000000  0.4514000000000  0.5865370000000 1.0
C      1  0.4673870000000  0.5870320000000  0.5490270000000 1.0
C      1  0.4672950000000  0.5489310000000  0.4133310000000 1.0
C      1  0.5322040000000  0.4134610000000  0.5489800000000 1.0
C      1  0.5323970000000  0.4513790000000  0.4133270000000 1.0
C      1  0.5320280000000  0.5869500000000  0.4509960000000 1.0
C      1  0.5322870000000  0.5488610000000  0.5863630000000 1.0
C      1  0.4993460000000  0.4644600000000  0.5354150000000 1.0
C      1  0.4999270000000  0.4646190000000  0.4643240000000 1.0
C      1  0.5000640000000  0.5355690000000  0.4645150000000 1.0
C      1  0.4996770000000  0.5354240000000  0.5353430000000 1.0
C      1  0.4053110000000  0.4988930000000  0.4989820000000 1.0
C      1  0.5942110000000  0.5014200000000  0.4987160000000 1.0
END
