TITL C-74084-3399-350 -0.133135740574487 125000 -732.022116706634 0 0 125 (C1) n - 1
REM
REM in /home/nfs/bkarasulu/CARBON/AIRSS/Generating-Clusters/LCBOP/Higher-Symm/SD-CG/FIRE-CG
REM
REM
REM
REM
REM
REM ./C.cell (b20cbc046b6831c77cfcea5457e17084)
REM AIRSS Version 0.9.1 bugfix July 2018 build 013d7b7c2542+ Fri, 06 Jul 2018 19:26:36 +0100
REM compiler GCC version 9.2.1 20190827 (Red Hat 9.2.1-1)
REM options -cpp -mtune=generic -march=x86-64 -g -O0 -fpre-include=/usr/include/finclude/math-vector-fortran.h
REM seed -1592611391 1598054617 1486293438 1492619776 522087074 621280079 -1594009423 -2093755625 805973722 -2050541856 1589697867 2039665337 530056071 -1706818445 1375421781 910095935 1673609932 -1239843465 1339702531 -189337060 -900703838 1448964989 1601727437 -545755028 -1374771443 -708214684 -854453545 722764304 873613369 1011086530 -591311088 1008890516 -126615898
REM
CELL 1.54180   50.00000   50.00000   50.00000   90.00000   90.00000   90.00000
LATT -1
SFAC C  
C      1  0.5127710000000  0.5648770000000  0.4172950000000 1.0
C      1  0.5682860000000  0.4199590000000  0.5025390000000 1.0
C      1  0.4066530000000  0.5220260000000  0.5648450000000 1.0
C      1  0.4886490000000  0.5628280000000  0.5829420000000 1.0
C      1  0.5050880000000  0.4392060000000  0.4136160000000 1.0
C      1  0.4986280000000  0.4318230000000  0.5873920000000 1.0
C      1  0.4364320000000  0.4139880000000  0.4973060000000 1.0
C      1  0.4425690000000  0.5806850000000  0.4943380000000 1.0
C      1  0.5583190000000  0.5786690000000  0.5053280000000 1.0
C      1  0.5821760000000  0.5015000000000  0.4360030000000 1.0
C      1  0.5766710000000  0.4948910000000  0.5645410000000 1.0
C      1  0.4236650000000  0.4902000000000  0.4360820000000 1.0
C      1  0.5217690000000  0.4806350000000  0.5904370000000 1.0
C      1  0.4865980000000  0.5910160000000  0.5222090000000 1.0
C      1  0.5779350000000  0.5291360000000  0.4820410000000 1.0
C      1  0.4755950000000  0.4859580000000  0.4037270000000 1.0
C      1  0.4700560000000  0.5130240000000  0.5986410000000 1.0
C      1  0.5291770000000  0.5164370000000  0.4007520000000 1.0
C      1  0.5148260000000  0.5913950000000  0.4771900000000 1.0
C      1  0.5207150000000  0.4068630000000  0.5246950000000 1.0
C      1  0.4856830000000  0.4132910000000  0.4745900000000 1.0
C      1  0.4205150000000  0.5286390000000  0.5186020000000 1.0
C      1  0.4067470000000  0.4695650000000  0.4842610000000 1.0
C      1  0.5973490000000  0.4746370000000  0.5167060000000 1.0
C      1  0.4466900000000  0.4725550000000  0.5707810000000 1.0
C      1  0.4820500000000  0.5733470000000  0.4380090000000 1.0
C      1  0.5740910000000  0.4453820000000  0.4766370000000 1.0
C      1  0.5624220000000  0.4804210000000  0.4271910000000 1.0
C      1  0.5561620000000  0.5175800000000  0.5701940000000 1.0
C      1  0.4432350000000  0.5198190000000  0.4289420000000 1.0
C      1  0.5181530000000  0.5701140000000  0.5617210000000 1.0
C      1  0.5240780000000  0.4361310000000  0.4372940000000 1.0
C      1  0.4771550000000  0.4220330000000  0.5625080000000 1.0
C      1  0.4262280000000  0.4372350000000  0.5247310000000 1.0
C      1  0.4350630000000  0.5586150000000  0.4760420000000 1.0
C      1  0.5640200000000  0.5564250000000  0.5242720000000 1.0
C      1  0.4857350000000  0.5307010000000  0.4165910000000 1.0
C      1  0.5311370000000  0.4286150000000  0.4816740000000 1.0
C      1  0.4447700000000  0.4942140000000  0.5520050000000 1.0
C      1  0.5123540000000  0.5263980000000  0.5799460000000 1.0
C      1  0.4728210000000  0.4541800000000  0.4387510000000 1.0
C      1  0.4962830000000  0.4599890000000  0.5542590000000 1.0
C      1  0.4688420000000  0.4349010000000  0.5177420000000 1.0
C      1  0.4785450000000  0.5539470000000  0.4910490000000 1.0
C      1  0.5216650000000  0.5527790000000  0.5070350000000 1.0
C      1  0.5436010000000  0.5197120000000  0.4471910000000 1.0
C      1  0.5682700000000  0.5086190000000  0.5232490000000 1.0
C      1  0.4270390000000  0.5116160000000  0.4751580000000 1.0
C      1  0.5388720000000  0.5736450000000  0.4231720000000 1.0
C      1  0.5823020000000  0.4208580000000  0.5265370000000 1.0
C      1  0.4055630000000  0.5434840000000  0.5807940000000 1.0
C      1  0.4654710000000  0.5774100000000  0.5775180000000 1.0
C      1  0.4843950000000  0.4187450000000  0.4071380000000 1.0
C      1  0.5231170000000  0.4189260000000  0.5933880000000 1.0
C      1  0.4230540000000  0.4136990000000  0.4728050000000 1.0
C      1  0.4277020000000  0.5898820000000  0.5165720000000 1.0
C      1  0.5746320000000  0.5842360000000  0.4826560000000 1.0
C      1  0.5909340000000  0.5228170000000  0.4182110000000 1.0
C      1  0.5738220000000  0.4691980000000  0.5772100000000 1.0
C      1  0.4275970000000  0.4642360000000  0.4236160000000 1.0
C      1  0.5110550000000  0.4629010000000  0.5311250000000 1.0
C      1  0.4787070000000  0.5372930000000  0.5141340000000 1.0
C      1  0.5225520000000  0.5023450000000  0.4544040000000 1.0
C      1  0.4768570000000  0.4653810000000  0.4627600000000 1.0
C      1  0.5083290000000  0.5290690000000  0.5514140000000 1.0
C      1  0.4901530000000  0.5315010000000  0.4454130000000 1.0
C      1  0.5205400000000  0.5362260000000  0.4840110000000 1.0
C      1  0.5321700000000  0.4568070000000  0.4893370000000 1.0
C      1  0.4651790000000  0.4623220000000  0.5076010000000 1.0
C      1  0.4715100000000  0.5018410000000  0.5439550000000 1.0
C      1  0.4527210000000  0.5006010000000  0.4780550000000 1.0
C      1  0.5456320000000  0.4931220000000  0.5197750000000 1.0
C      1  0.5659240000000  0.5689040000000  0.4314010000000 1.0
C      1  0.5808450000000  0.4282330000000  0.5522150000000 1.0
C      1  0.4186660000000  0.5667240000000  0.5827400000000 1.0
C      1  0.4388010000000  0.5804200000000  0.5685390000000 1.0
C      1  0.4568140000000  0.4224170000000  0.4106230000000 1.0
C      1  0.5486520000000  0.4268350000000  0.5884810000000 1.0
C      1  0.4236820000000  0.4213130000000  0.4470090000000 1.0
C      1  0.4314010000000  0.5908030000000  0.5432650000000 1.0
C      1  0.5748740000000  0.5804320000000  0.4558970000000 1.0
C      1  0.5821590000000  0.5488510000000  0.4186160000000 1.0
C      1  0.5684860000000  0.4413040000000  0.5740530000000 1.0
C      1  0.4345680000000  0.4356410000000  0.4247840000000 1.0
C      1  0.5003790000000  0.5029790000000  0.5453780000000 1.0
C      1  0.4957680000000  0.5447690000000  0.4699310000000 1.0
C      1  0.5420350000000  0.4840050000000  0.4929740000000 1.0
C      1  0.4949870000000  0.5045150000000  0.4500430000000 1.0
C      1  0.5230280000000  0.4883800000000  0.5353200000000 1.0
C      1  0.4725810000000  0.4925440000000  0.4605500000000 1.0
C      1  0.5040440000000  0.5435540000000  0.5276310000000 1.0
C      1  0.4861840000000  0.4608740000000  0.4877730000000 1.0
C      1  0.5082440000000  0.4576950000000  0.5041960000000 1.0
C      1  0.4564110000000  0.4904170000000  0.5042290000000 1.0
C      1  0.4659100000000  0.5132040000000  0.5188320000000 1.0
C      1  0.5239360000000  0.5060110000000  0.4834600000000 1.0
C      1  0.5729030000000  0.5326780000000  0.5100590000000 1.0
C      1  0.5325550000000  0.5073000000000  0.5853980000000 1.0
C      1  0.5056580000000  0.5873930000000  0.5419850000000 1.0
C      1  0.4235400000000  0.5351330000000  0.4900460000000 1.0
C      1  0.4118830000000  0.4566770000000  0.5084860000000 1.0
C      1  0.5905500000000  0.4635550000000  0.4921260000000 1.0
C      1  0.4652160000000  0.5121440000000  0.4107350000000 1.0
C      1  0.4585150000000  0.4875850000000  0.5940810000000 1.0
C      1  0.5430510000000  0.4933610000000  0.4081900000000 1.0
C      1  0.4951230000000  0.5894760000000  0.4577740000000 1.0
C      1  0.4984500000000  0.4089980000000  0.5415010000000 1.0
C      1  0.5116380000000  0.4223660000000  0.4616680000000 1.0
C      1  0.4708640000000  0.5802970000000  0.5000800000000 1.0
C      1  0.5701310000000  0.5169800000000  0.4577900000000 1.0
C      1  0.5036370000000  0.4598160000000  0.5815150000000 1.0
C      1  0.5301910000000  0.5792690000000  0.4987880000000 1.0
C      1  0.5403890000000  0.4127320000000  0.5033240000000 1.0
C      1  0.4651740000000  0.4150930000000  0.4968990000000 1.0
C      1  0.4231760000000  0.5129420000000  0.5436840000000 1.0
C      1  0.4124200000000  0.4899090000000  0.4636430000000 1.0
C      1  0.5877980000000  0.4934390000000  0.5371930000000 1.0
C      1  0.4872230000000  0.4626020000000  0.4156290000000 1.0
C      1  0.4887190000000  0.5352760000000  0.5927340000000 1.0
C      1  0.5103470000000  0.5385610000000  0.4051940000000 1.0
C      1  0.4517200000000  0.5523030000000  0.4449090000000 1.0
C      1  0.5480770000000  0.5499010000000  0.5550120000000 1.0
C      1  0.5550490000000  0.4522490000000  0.4461580000000 1.0
C      1  0.4472790000000  0.4409520000000  0.5548470000000 1.0
C      1  0.4996420000000  0.4995300000000  0.4977550000000 1.0
END
