TITL C-74083-3671-258 -90134.9944787613 125000 -822.326074489996 0 0 136 (C1) n - 1
REM
REM in /home/nfs/bkarasulu/CARBON/AIRSS/Generating-Clusters/LCBOP/Higher-Symm/SD-CG/FIRE-CG
REM
REM
REM
REM
REM
REM ./C.cell (b20cbc046b6831c77cfcea5457e17084)
REM AIRSS Version 0.9.1 bugfix July 2018 build 013d7b7c2542+ Fri, 06 Jul 2018 19:26:36 +0100
REM compiler GCC version 9.2.1 20190827 (Red Hat 9.2.1-1)
REM options -cpp -mtune=generic -march=x86-64 -g -O0 -fpre-include=/usr/include/finclude/math-vector-fortran.h
REM seed -73687303 -24235901 -385077505 -903372064 -419723021 468881504 1131465382 -335822782 -501778363 406261053 231596542 140387795 186980046 981941683 1307638993 -1471478593 2114294991 -486625352 -293917499 152469161 -1837505922 311645962 -1015830366 -380542722 837327161 688633367 744352177 -995341373 2017534811 -1041456257 -358736469 1224479879 1542154141
REM
CELL 1.54180   50.00000   50.00000   50.00000   90.00000   90.00000   90.00000
LATT -1
SFAC C  
C      1  0.5296220000000  0.4772680000000  0.4823390000000 1.0
C      1  0.5302830000000  0.4753180000000  0.5153720000000 1.0
C      1  0.5327170000000  0.5045360000000  0.5278460000000 1.0
C      1  0.5394160000000  0.5426470000000  0.4714280000000 1.0
C      1  0.4671780000000  0.4902110000000  0.4777130000000 1.0
C      1  0.4664670000000  0.4772370000000  0.5138990000000 1.0
C      1  0.4664870000000  0.5061710000000  0.5275230000000 1.0
C      1  0.4692990000000  0.5227840000000  0.4734410000000 1.0
C      1  0.4384850000000  0.5147960000000  0.5287550000000 1.0
C      1  0.4395890000000  0.5300690000000  0.4815210000000 1.0
C      1  0.4361420000000  0.4856740000000  0.4709250000000 1.0
C      1  0.4354370000000  0.4714600000000  0.5159240000000 1.0
C      1  0.5616510000000  0.5107920000000  0.5276600000000 1.0
C      1  0.5614320000000  0.5274820000000  0.4802880000000 1.0
C      1  0.5573070000000  0.4793380000000  0.4741570000000 1.0
C      1  0.5617740000000  0.4661360000000  0.5183730000000 1.0
C      1  0.4616320000000  0.4951750000000  0.6488620000000 1.0
C      1  0.4273450000000  0.6279130000000  0.5080720000000 1.0
C      1  0.4578570000000  0.5078260000000  0.3476360000000 1.0
C      1  0.4266690000000  0.3608940000000  0.5134610000000 1.0
C      1  0.5714920000000  0.5109510000000  0.6434570000000 1.0
C      1  0.5337160000000  0.6554340000000  0.5187010000000 1.0
C      1  0.5698830000000  0.5000520000000  0.3648340000000 1.0
C      1  0.5409780000000  0.3495820000000  0.5065050000000 1.0
C      1  0.4607300000000  0.6569150000000  0.5354370000000 1.0
C      1  0.5054410000000  0.5189620000000  0.3297640000000 1.0
C      1  0.4674020000000  0.3303360000000  0.5025030000000 1.0
C      1  0.5069340000000  0.4874270000000  0.6733090000000 1.0
C      1  0.4862910000000  0.6635680000000  0.5381650000000 1.0
C      1  0.5315950000000  0.5175750000000  0.3341540000000 1.0
C      1  0.4938000000000  0.3279380000000  0.5009230000000 1.0
C      1  0.5331920000000  0.4912930000000  0.6723970000000 1.0
C      1  0.5281630000000  0.5420440000000  0.5633400000000 1.0
C      1  0.5314590000000  0.5858790000000  0.4496700000000 1.0
C      1  0.5262550000000  0.4566820000000  0.4352880000000 1.0
C      1  0.5268550000000  0.4323600000000  0.5447600000000 1.0
C      1  0.4740200000000  0.5400270000000  0.5633190000000 1.0
C      1  0.4662990000000  0.5630710000000  0.4422980000000 1.0
C      1  0.4710150000000  0.4639070000000  0.4306980000000 1.0
C      1  0.4682850000000  0.4343420000000  0.5466780000000 1.0
C      1  0.4867790000000  0.5893790000000  0.5416490000000 1.0
C      1  0.4902500000000  0.5658570000000  0.3999890000000 1.0
C      1  0.4759760000000  0.4157380000000  0.4350950000000 1.0
C      1  0.4905860000000  0.4417520000000  0.6038740000000 1.0
C      1  0.5138540000000  0.5904480000000  0.5424620000000 1.0
C      1  0.5157830000000  0.5703430000000  0.3885710000000 1.0
C      1  0.4980530000000  0.4000330000000  0.4440240000000 1.0
C      1  0.5142800000000  0.4293440000000  0.5936410000000 1.0
C      1  0.5327710000000  0.5193480000000  0.4215250000000 1.0
C      1  0.5004230000000  0.4373070000000  0.5031100000000 1.0
C      1  0.5351230000000  0.4849030000000  0.5859490000000 1.0
C      1  0.5173940000000  0.5440560000000  0.4890830000000 1.0
C      1  0.5077530000000  0.5094770000000  0.4228420000000 1.0
C      1  0.4737890000000  0.4443910000000  0.4990740000000 1.0
C      1  0.5118990000000  0.4891900000000  0.5731610000000 1.0
C      1  0.4890990000000  0.5393470000000  0.4893330000000 1.0
C      1  0.4881260000000  0.4750190000000  0.5674940000000 1.0
C      1  0.4782720000000  0.5492020000000  0.5143280000000 1.0
C      1  0.4830130000000  0.5228160000000  0.4215270000000 1.0
C      1  0.4648730000000  0.4422900000000  0.4736840000000 1.0
C      1  0.5476530000000  0.4647480000000  0.5985940000000 1.0
C      1  0.5255070000000  0.5507280000000  0.5159850000000 1.0
C      1  0.5422850000000  0.5459570000000  0.4225620000000 1.0
C      1  0.5139330000000  0.4327020000000  0.4782770000000 1.0
C      1  0.6002270000000  0.4993670000000  0.4767970000000 1.0
C      1  0.6010970000000  0.4732280000000  0.4907380000000 1.0
C      1  0.6038770000000  0.4889560000000  0.5237510000000 1.0
C      1  0.6018500000000  0.5165140000000  0.5022870000000 1.0
C      1  0.3960140000000  0.5108830000000  0.4784500000000 1.0
C      1  0.3944900000000  0.4768270000000  0.4920770000000 1.0
C      1  0.3953280000000  0.4978720000000  0.5211590000000 1.0
C      1  0.3976150000000  0.5233330000000  0.5053090000000 1.0
C      1  0.4437880000000  0.3417320000000  0.5067230000000 1.0
C      1  0.4817550000000  0.4888860000000  0.6650030000000 1.0
C      1  0.4399830000000  0.6443320000000  0.5246640000000 1.0
C      1  0.4795080000000  0.5153230000000  0.3341880000000 1.0
C      1  0.5194680000000  0.3346240000000  0.5021600000000 1.0
C      1  0.5561250000000  0.4997710000000  0.6620200000000 1.0
C      1  0.5121560000000  0.6630700000000  0.5321860000000 1.0
C      1  0.5542410000000  0.5109810000000  0.3463580000000 1.0
C      1  0.4267090000000  0.5319210000000  0.5080330000000 1.0
C      1  0.4219350000000  0.5109550000000  0.4666080000000 1.0
C      1  0.4217510000000  0.4693080000000  0.4901710000000 1.0
C      1  0.4210020000000  0.4914750000000  0.5321790000000 1.0
C      1  0.5744710000000  0.5268600000000  0.5069670000000 1.0
C      1  0.5720160000000  0.5035290000000  0.4676210000000 1.0
C      1  0.5744540000000  0.4626500000000  0.4919650000000 1.0
C      1  0.5773570000000  0.4864990000000  0.5328800000000 1.0
C      1  0.4713230000000  0.5343780000000  0.4449570000000 1.0
C      1  0.4804830000000  0.4681430000000  0.4599330000000 1.0
C      1  0.4838840000000  0.4615940000000  0.5404790000000 1.0
C      1  0.4845550000000  0.5285810000000  0.5368930000000 1.0
C      1  0.5403970000000  0.5587450000000  0.4480780000000 1.0
C      1  0.5125470000000  0.4604860000000  0.4630640000000 1.0
C      1  0.5121100000000  0.4525400000000  0.5267050000000 1.0
C      1  0.5167910000000  0.5288590000000  0.5369820000000 1.0
C      1  0.5147110000000  0.4085950000000  0.4637450000000 1.0
C      1  0.5389920000000  0.4394950000000  0.6026590000000 1.0
C      1  0.5303830000000  0.5770080000000  0.5252010000000 1.0
C      1  0.5391860000000  0.5614530000000  0.3990070000000 1.0
C      1  0.4576090000000  0.4218100000000  0.4560880000000 1.0
C      1  0.4774810000000  0.4615420000000  0.5904610000000 1.0
C      1  0.4725270000000  0.5756250000000  0.5224900000000 1.0
C      1  0.4797590000000  0.5393670000000  0.3982670000000 1.0
C      1  0.5487150000000  0.4176240000000  0.5352470000000 1.0
C      1  0.5521910000000  0.5355180000000  0.5757690000000 1.0
C      1  0.5459740000000  0.6054200000000  0.4631900000000 1.0
C      1  0.5518960000000  0.4643730000000  0.4273940000000 1.0
C      1  0.4419940000000  0.4273890000000  0.5409000000000 1.0
C      1  0.4564470000000  0.5268170000000  0.5804530000000 1.0
C      1  0.4449930000000  0.5764710000000  0.4542210000000 1.0
C      1  0.4524190000000  0.4779790000000  0.4156190000000 1.0
C      1  0.4865380000000  0.5637360000000  0.5708920000000 1.0
C      1  0.4852270000000  0.5774180000000  0.4260230000000 1.0
C      1  0.4829910000000  0.4395390000000  0.4202270000000 1.0
C      1  0.4851220000000  0.4147060000000  0.5583920000000 1.0
C      1  0.5134420000000  0.5641470000000  0.5718910000000 1.0
C      1  0.5060430000000  0.5913710000000  0.4387570000000 1.0
C      1  0.5104220000000  0.4435380000000  0.4155120000000 1.0
C      1  0.5114450000000  0.4212170000000  0.5663880000000 1.0
C      1  0.5474090000000  0.6418840000000  0.5004340000000 1.0
C      1  0.5754450000000  0.4867640000000  0.3871600000000 1.0
C      1  0.5548650000000  0.3709360000000  0.5140470000000 1.0
C      1  0.5761470000000  0.5220860000000  0.6197880000000 1.0
C      1  0.4243460000000  0.6099530000000  0.4887640000000 1.0
C      1  0.4445980000000  0.4982610000000  0.3685870000000 1.0
C      1  0.4195770000000  0.3849300000000  0.5223040000000 1.0
C      1  0.4497400000000  0.5047370000000  0.6271320000000 1.0
C      1  0.4479860000000  0.5156010000000  0.6029680000000 1.0
C      1  0.4307590000000  0.5924260000000  0.4699070000000 1.0
C      1  0.4426810000000  0.4882190000000  0.3931180000000 1.0
C      1  0.4248160000000  0.4090650000000  0.5321400000000 1.0
C      1  0.5691320000000  0.5305700000000  0.5956090000000 1.0
C      1  0.5514660000000  0.6244520000000  0.4808340000000 1.0
C      1  0.5691560000000  0.4739960000000  0.4096060000000 1.0
C      1  0.5580010000000  0.3952980000000  0.5241920000000 1.0
END
