TITL C-74080-5790-192 3627.7114020131 125000 -1156.72631481827 0 0 187 (C1) n - 1
REM
REM in /home/nfs/bkarasulu/CARBON/AIRSS/Generating-Clusters/LCBOP/Higher-Symm/SD-CG/FIRE-CG
REM
REM
REM
REM
REM
REM ./C.cell (b20cbc046b6831c77cfcea5457e17084)
REM AIRSS Version 0.9.1 bugfix July 2018 build 013d7b7c2542+ Fri, 06 Jul 2018 19:26:36 +0100
REM compiler GCC version 9.2.1 20190827 (Red Hat 9.2.1-1)
REM options -cpp -mtune=generic -march=x86-64 -g -O0 -fpre-include=/usr/include/finclude/math-vector-fortran.h
REM seed 1273572687 -127494829 -1877831824 -302138699 1811325843 -189182573 1931853079 -77370538 -1319939825 -1807760645 101547116 -468504679 -237592739 -2046562533 -1087795528 -601350511 1765499793 -2068179107 971493873 632475355 -1711925168 -1526831077 2057306532 -2091042451 1786039119 1201960951 1135764067 -1620643986 -518576565 -1338338959 144322339 -7235129 -271869531
REM
CELL 1.54180   50.00000   50.00000   50.00000   90.00000   90.00000   90.00000
LATT -1
SFAC C  
C      1  0.4362770000000  0.4344210000000  0.4735720000000 1.0
C      1  0.4736530000000  0.5838630000000  0.4725850000000 1.0
C      1  0.5835770000000  0.4854930000000  0.4745920000000 1.0
C      1  0.4370150000000  0.4346850000000  0.5263080000000 1.0
C      1  0.4738280000000  0.5839560000000  0.5267230000000 1.0
C      1  0.5857810000000  0.4848050000000  0.5274750000000 1.0
C      1  0.5624510000000  0.4354110000000  0.4741520000000 1.0
C      1  0.5280330000000  0.5865980000000  0.4732440000000 1.0
C      1  0.4138620000000  0.4840850000000  0.4731450000000 1.0
C      1  0.5634240000000  0.4346750000000  0.5268960000000 1.0
C      1  0.5285920000000  0.5877290000000  0.5275010000000 1.0
C      1  0.4147160000000  0.4844600000000  0.5260700000000 1.0
C      1  0.4476900000000  0.4431540000000  0.5536690000000 1.0
C      1  0.4780550000000  0.5717560000000  0.5547350000000 1.0
C      1  0.5741870000000  0.4856050000000  0.5560210000000 1.0
C      1  0.4455480000000  0.4422910000000  0.4456490000000 1.0
C      1  0.4776530000000  0.5723540000000  0.4441340000000 1.0
C      1  0.5709950000000  0.4877500000000  0.4467820000000 1.0
C      1  0.5530220000000  0.4426300000000  0.5545830000000 1.0
C      1  0.5230910000000  0.5755500000000  0.5553560000000 1.0
C      1  0.4266060000000  0.4859780000000  0.5542300000000 1.0
C      1  0.5518650000000  0.4440570000000  0.4470580000000 1.0
C      1  0.5235460000000  0.5732000000000  0.4458440000000 1.0
C      1  0.4255570000000  0.4847820000000  0.4447460000000 1.0
C      1  0.4879430000000  0.5416020000000  0.5494150000000 1.0
C      1  0.5496700000000  0.5010030000000  0.5520700000000 1.0
C      1  0.4740650000000  0.4528960000000  0.5461190000000 1.0
C      1  0.4855410000000  0.5416510000000  0.4484750000000 1.0
C      1  0.5470300000000  0.5034910000000  0.4518150000000 1.0
C      1  0.4731130000000  0.4517840000000  0.4509910000000 1.0
C      1  0.5171630000000  0.5476700000000  0.5463120000000 1.0
C      1  0.4510150000000  0.5008030000000  0.5491830000000 1.0
C      1  0.5264380000000  0.4521400000000  0.5472680000000 1.0
C      1  0.5148000000000  0.5461120000000  0.4549510000000 1.0
C      1  0.4508760000000  0.4983380000000  0.4494880000000 1.0
C      1  0.5256760000000  0.4539880000000  0.4547460000000 1.0
C      1  0.4276960000000  0.4766340000000  0.4161930000000 1.0
C      1  0.5160200000000  0.5729820000000  0.4168720000000 1.0
C      1  0.5554150000000  0.4508650000000  0.4187460000000 1.0
C      1  0.4297940000000  0.4773810000000  0.5823790000000 1.0
C      1  0.5156580000000  0.5737600000000  0.5840680000000 1.0
C      1  0.5558760000000  0.4501550000000  0.5831090000000 1.0
C      1  0.5698510000000  0.4779640000000  0.4189550000000 1.0
C      1  0.4848390000000  0.5747240000000  0.4153060000000 1.0
C      1  0.4413800000000  0.4487050000000  0.4172210000000 1.0
C      1  0.5713930000000  0.4769900000000  0.5843490000000 1.0
C      1  0.4845230000000  0.5743000000000  0.5838490000000 1.0
C      1  0.4448870000000  0.4506330000000  0.5821070000000 1.0
C      1  0.5250840000000  0.5366510000000  0.4809920000000 1.0
C      1  0.5131270000000  0.4383700000000  0.4748960000000 1.0
C      1  0.4507900000000  0.5142380000000  0.4722550000000 1.0
C      1  0.5365970000000  0.5402660000000  0.5278520000000 1.0
C      1  0.5142480000000  0.4376930000000  0.5259560000000 1.0
C      1  0.4519450000000  0.5150250000000  0.5251260000000 1.0
C      1  0.4706530000000  0.5355680000000  0.4743110000000 1.0
C      1  0.4852090000000  0.4383110000000  0.4732320000000 1.0
C      1  0.5460500000000  0.5163500000000  0.4771540000000 1.0
C      1  0.4736330000000  0.5353470000000  0.5225080000000 1.0
C      1  0.4862990000000  0.4379420000000  0.5251670000000 1.0
C      1  0.5508740000000  0.5171080000000  0.5296050000000 1.0
C      1  0.5777360000000  0.5140510000000  0.5167130000000 1.0
C      1  0.4633920000000  0.4204510000000  0.5145940000000 1.0
C      1  0.4550760000000  0.5616010000000  0.5149450000000 1.0
C      1  0.5753680000000  0.5142270000000  0.4866940000000 1.0
C      1  0.4629610000000  0.4204340000000  0.4844240000000 1.0
C      1  0.4543980000000  0.5615010000000  0.4837370000000 1.0
C      1  0.4236080000000  0.5130900000000  0.5142380000000 1.0
C      1  0.5369520000000  0.4203070000000  0.5153210000000 1.0
C      1  0.5491500000000  0.5654620000000  0.5163620000000 1.0
C      1  0.4230440000000  0.5129100000000  0.4842280000000 1.0
C      1  0.5363190000000  0.4206590000000  0.4852450000000 1.0
C      1  0.5470770000000  0.5647950000000  0.4864040000000 1.0
C      1  0.5963100000000  0.5278630000000  0.4421900000000 1.0
C      1  0.4722340000000  0.3975950000000  0.4405850000000 1.0
C      1  0.4294860000000  0.5708180000000  0.4399160000000 1.0
C      1  0.5983930000000  0.5288150000000  0.5602740000000 1.0
C      1  0.4731260000000  0.3985320000000  0.5583830000000 1.0
C      1  0.4301920000000  0.5704190000000  0.5591460000000 1.0
C      1  0.4032620000000  0.5285150000000  0.4402670000000 1.0
C      1  0.5266490000000  0.3985740000000  0.4413930000000 1.0
C      1  0.5703760000000  0.5700900000000  0.4410420000000 1.0
C      1  0.4039670000000  0.5282570000000  0.5588040000000 1.0
C      1  0.5274800000000  0.3981200000000  0.5589650000000 1.0
C      1  0.5724190000000  0.5712860000000  0.5608910000000 1.0
C      1  0.4868260000000  0.4587460000000  0.4034950000000 1.0
C      1  0.4708120000000  0.5309810000000  0.3990600000000 1.0
C      1  0.5493250000000  0.5113000000000  0.3861310000000 1.0
C      1  0.4864390000000  0.4494180000000  0.6137780000000 1.0
C      1  0.4719190000000  0.5305370000000  0.5990670000000 1.0
C      1  0.5495040000000  0.5120120000000  0.6152460000000 1.0
C      1  0.5123620000000  0.4541930000000  0.3920070000000 1.0
C      1  0.5291360000000  0.5283580000000  0.3972040000000 1.0
C      1  0.4531410000000  0.5116300000000  0.3876360000000 1.0
C      1  0.5137570000000  0.4491800000000  0.6141880000000 1.0
C      1  0.5293360000000  0.5285900000000  0.6032900000000 1.0
C      1  0.4546870000000  0.5111620000000  0.6108580000000 1.0
C      1  0.5309920000000  0.4363920000000  0.5950720000000 1.0
C      1  0.4309120000000  0.5043320000000  0.5963050000000 1.0
C      1  0.5371640000000  0.5553180000000  0.5951340000000 1.0
C      1  0.5308010000000  0.4373160000000  0.4064010000000 1.0
C      1  0.4296800000000  0.5041920000000  0.4027160000000 1.0
C      1  0.5372250000000  0.5549510000000  0.4052360000000 1.0
C      1  0.4694750000000  0.4368460000000  0.5942830000000 1.0
C      1  0.5715060000000  0.5043350000000  0.5982840000000 1.0
C      1  0.4628990000000  0.5574840000000  0.5954450000000 1.0
C      1  0.4673520000000  0.4368790000000  0.4058430000000 1.0
C      1  0.5708000000000  0.5041050000000  0.4037510000000 1.0
C      1  0.4625560000000  0.5582680000000  0.4032740000000 1.0
C      1  0.4839710000000  0.4139680000000  0.4192080000000 1.0
C      1  0.4355560000000  0.5553440000000  0.4163340000000 1.0
C      1  0.5799190000000  0.5285710000000  0.4185500000000 1.0
C      1  0.4850100000000  0.4154000000000  0.5789630000000 1.0
C      1  0.4359980000000  0.5550840000000  0.5828030000000 1.0
C      1  0.5807030000000  0.5289570000000  0.5831540000000 1.0
C      1  0.5149150000000  0.4148880000000  0.4201780000000 1.0
C      1  0.5639200000000  0.5537580000000  0.4181960000000 1.0
C      1  0.4201750000000  0.5293200000000  0.4168440000000 1.0
C      1  0.5154730000000  0.4151330000000  0.5793690000000 1.0
C      1  0.5644390000000  0.5543020000000  0.5829690000000 1.0
C      1  0.4207000000000  0.5291530000000  0.5823850000000 1.0
C      1  0.4119080000000  0.5843330000000  0.4861430000000 1.0
C      1  0.6169790000000  0.5398730000000  0.4867410000000 1.0
C      1  0.4679020000000  0.3717970000000  0.4860820000000 1.0
C      1  0.4123180000000  0.5842200000000  0.5133050000000 1.0
C      1  0.6185040000000  0.5399690000000  0.5139010000000 1.0
C      1  0.4680810000000  0.3718660000000  0.5133040000000 1.0
C      1  0.5908110000000  0.5848390000000  0.4863180000000 1.0
C      1  0.3833750000000  0.5404280000000  0.4861120000000 1.0
C      1  0.5317090000000  0.3720800000000  0.4863990000000 1.0
C      1  0.5924260000000  0.5855710000000  0.5136090000000 1.0
C      1  0.3837310000000  0.5404510000000  0.5133530000000 1.0
C      1  0.5320460000000  0.3717910000000  0.5136340000000 1.0
C      1  0.4727250000000  0.4966660000000  0.4329930000000 1.0
C      1  0.5134810000000  0.5155640000000  0.4168940000000 1.0
C      1  0.5133040000000  0.4743220000000  0.4410920000000 1.0
C      1  0.4740860000000  0.4975630000000  0.5634070000000 1.0
C      1  0.5144100000000  0.5149530000000  0.5835150000000 1.0
C      1  0.5140140000000  0.4728400000000  0.5604120000000 1.0
C      1  0.5253570000000  0.4985290000000  0.4357400000000 1.0
C      1  0.4854010000000  0.5218540000000  0.4238180000000 1.0
C      1  0.4861880000000  0.4708760000000  0.4314850000000 1.0
C      1  0.5272030000000  0.4961070000000  0.5671400000000 1.0
C      1  0.4869810000000  0.5217490000000  0.5743860000000 1.0
C      1  0.4867430000000  0.4735260000000  0.5593300000000 1.0
C      1  0.4082340000000  0.5364040000000  0.4694730000000 1.0
C      1  0.5747110000000  0.5640060000000  0.4707650000000 1.0
C      1  0.5323030000000  0.3948050000000  0.4693970000000 1.0
C      1  0.4088630000000  0.5362990000000  0.5295450000000 1.0
C      1  0.5775110000000  0.5656470000000  0.5309390000000 1.0
C      1  0.5330850000000  0.3942570000000  0.5309490000000 1.0
C      1  0.5912740000000  0.5365490000000  0.4711990000000 1.0
C      1  0.4259180000000  0.5632460000000  0.4693900000000 1.0
C      1  0.4669400000000  0.3943130000000  0.4687870000000 1.0
C      1  0.5938080000000  0.5373720000000  0.5310210000000 1.0
C      1  0.4266560000000  0.5629440000000  0.5296880000000 1.0
C      1  0.4674090000000  0.3945120000000  0.5304070000000 1.0
C      1  0.3872440000000  0.4754330000000  0.4852670000000 1.0
C      1  0.5307000000000  0.6147840000000  0.4848140000000 1.0
C      1  0.5874900000000  0.4216300000000  0.4850110000000 1.0
C      1  0.3876950000000  0.4756760000000  0.5148680000000 1.0
C      1  0.5308450000000  0.6154110000000  0.5148070000000 1.0
C      1  0.5880730000000  0.4211500000000  0.5146490000000 1.0
C      1  0.6110640000000  0.4768140000000  0.4851520000000 1.0
C      1  0.4681860000000  0.6117600000000  0.4844990000000 1.0
C      1  0.4117590000000  0.4204510000000  0.4855460000000 1.0
C      1  0.6121980000000  0.4762030000000  0.5147770000000 1.0
C      1  0.4683400000000  0.6117940000000  0.5146010000000 1.0
C      1  0.4121400000000  0.4206340000000  0.5152260000000 1.0
C      1  0.3759600000000  0.4523110000000  0.4727600000000 1.0
C      1  0.5122330000000  0.6331900000000  0.4724440000000 1.0
C      1  0.6115460000000  0.4292090000000  0.4715410000000 1.0
C      1  0.3767090000000  0.4528660000000  0.5281720000000 1.0
C      1  0.5121250000000  0.6339650000000  0.5265510000000 1.0
C      1  0.6127690000000  0.4282510000000  0.5271750000000 1.0
C      1  0.6221350000000  0.4543000000000  0.4714240000000 1.0
C      1  0.4848930000000  0.6319420000000  0.4723420000000 1.0
C      1  0.3870980000000  0.4274570000000  0.4728430000000 1.0
C      1  0.6238440000000  0.4531510000000  0.5269870000000 1.0
C      1  0.4848200000000  0.6322220000000  0.5266200000000 1.0
C      1  0.3878420000000  0.4279880000000  0.5284080000000 1.0
C      1  0.5012860000000  0.5794710000000  0.5140880000000 1.0
C      1  0.5009520000000  0.5794340000000  0.4858480000000 1.0
C      1  0.4328610000000  0.4626190000000  0.5137850000000 1.0
C      1  0.5670190000000  0.4630460000000  0.5150650000000 1.0
C      1  0.4324890000000  0.4624010000000  0.4856620000000 1.0
C      1  0.5661190000000  0.4634250000000  0.4869830000000 1.0
C      1  0.4928210000000  0.5317640000000  0.4967670000000 1.0
END
