TITL C-74082-2733-165 -1.43362675212073e-06 125000 -777.869216582543 0 0 125 (C1) n - 1
REM
REM in /home/nfs/bkarasulu/CARBON/AIRSS/Generating-Clusters/LCBOP/Higher-Symm/SD-CG/FIRE-CG
REM
REM
REM
REM
REM
REM ./C.cell (b20cbc046b6831c77cfcea5457e17084)
REM AIRSS Version 0.9.1 bugfix July 2018 build 013d7b7c2542+ Fri, 06 Jul 2018 19:26:36 +0100
REM compiler GCC version 9.2.1 20190827 (Red Hat 9.2.1-1)
REM options -cpp -mtune=generic -march=x86-64 -g -O0 -fpre-include=/usr/include/finclude/math-vector-fortran.h
REM seed -580277937 -743414091 -1903548727 -1445981739 1208453711 -1739215188 -184564593 -1571770884 -977698272 -1608996006 1567574412 -537759620 -653451357 -487944920 -964085476 1349736756 -1675969073 132664399 -1654672604 53221202 -1021492639 241854108 -1595154471 -2038522812 -1424115039 233850652 -1010952092 362267900 831676770 -1767620048 1730106113 -249963510 -934996956
REM
CELL 1.54180   50.00000   50.00000   50.00000   90.00000   90.00000   90.00000
LATT -1
SFAC C  
C      1  0.5269160000000  0.5263760000000  0.5933340000000 1.0
C      1  0.5835760000000  0.5247670000000  0.5232780000000 1.0
C      1  0.5188320000000  0.5668660000000  0.5200360000000 1.0
C      1  0.5199430000000  0.4810970000000  0.4312170000000 1.0
C      1  0.4785290000000  0.4755300000000  0.5867130000000 1.0
C      1  0.4732220000000  0.5248750000000  0.4026110000000 1.0
C      1  0.5922470000000  0.4745040000000  0.4740920000000 1.0
C      1  0.4166170000000  0.4770740000000  0.5240310000000 1.0
C      1  0.4124820000000  0.5286020000000  0.4772480000000 1.0
C      1  0.5252620000000  0.4099190000000  0.4751640000000 1.0
C      1  0.4756080000000  0.4167560000000  0.5245430000000 1.0
C      1  0.4755260000000  0.5944490000000  0.4724620000000 1.0
C      1  0.4431560000000  0.4855710000000  0.5258600000000 1.0
C      1  0.5265660000000  0.4380390000000  0.4742460000000 1.0
C      1  0.4570340000000  0.5271290000000  0.4257060000000 1.0
C      1  0.4393610000000  0.5361210000000  0.4815330000000 1.0
C      1  0.5559760000000  0.5200240000000  0.5211290000000 1.0
C      1  0.5643320000000  0.4728510000000  0.4699790000000 1.0
C      1  0.5154910000000  0.5437730000000  0.5044730000000 1.0
C      1  0.4736440000000  0.5707910000000  0.4570920000000 1.0
C      1  0.4748700000000  0.4440810000000  0.5185620000000 1.0
C      1  0.4862340000000  0.4756210000000  0.5598150000000 1.0
C      1  0.5036840000000  0.4845470000000  0.4538440000000 1.0
C      1  0.5293870000000  0.5287290000000  0.5653230000000 1.0
C      1  0.4253720000000  0.5301060000000  0.5496390000000 1.0
C      1  0.5466240000000  0.4284410000000  0.5318360000000 1.0
C      1  0.5345790000000  0.5474880000000  0.4287140000000 1.0
C      1  0.4281440000000  0.4675660000000  0.4528600000000 1.0
C      1  0.5732070000000  0.4699170000000  0.5469690000000 1.0
C      1  0.5762230000000  0.5324010000000  0.4534860000000 1.0
C      1  0.5492340000000  0.5732930000000  0.4705870000000 1.0
C      1  0.4524270000000  0.5704790000000  0.5337490000000 1.0
C      1  0.4532720000000  0.4256930000000  0.4689140000000 1.0
C      1  0.5323610000000  0.4537110000000  0.5745000000000 1.0
C      1  0.4699480000000  0.4514630000000  0.4269060000000 1.0
C      1  0.4677810000000  0.5455700000000  0.5753610000000 1.0
C      1  0.5429920000000  0.5041620000000  0.5037290000000 1.0
C      1  0.5042960000000  0.5380920000000  0.4808390000000 1.0
C      1  0.5158090000000  0.5136830000000  0.5477200000000 1.0
C      1  0.5460950000000  0.4877370000000  0.4829760000000 1.0
C      1  0.4627670000000  0.5006410000000  0.5124090000000 1.0
C      1  0.4568580000000  0.5237160000000  0.4978880000000 1.0
C      1  0.5116360000000  0.4552130000000  0.4884150000000 1.0
C      1  0.4912550000000  0.4630440000000  0.5055780000000 1.0
C      1  0.4884080000000  0.5487920000000  0.4621440000000 1.0
C      1  0.4801150000000  0.4962570000000  0.4587380000000 1.0
C      1  0.4987540000000  0.4927430000000  0.5411910000000 1.0
C      1  0.4617220000000  0.5124060000000  0.4478620000000 1.0
C      1  0.5160690000000  0.4094590000000  0.5619540000000 1.0
C      1  0.5624360000000  0.5139650000000  0.4107970000000 1.0
C      1  0.4073840000000  0.5612160000000  0.5189910000000 1.0
C      1  0.5184360000000  0.5915860000000  0.4398510000000 1.0
C      1  0.4858540000000  0.5884350000000  0.5616200000000 1.0
C      1  0.4847820000000  0.4068930000000  0.4397630000000 1.0
C      1  0.5622710000000  0.4850030000000  0.5920680000000 1.0
C      1  0.4398830000000  0.4818820000000  0.4079160000000 1.0
C      1  0.4390050000000  0.5128840000000  0.5931100000000 1.0
C      1  0.4093460000000  0.4391710000000  0.4849690000000 1.0
C      1  0.5908190000000  0.4396190000000  0.5154580000000 1.0
C      1  0.5941490000000  0.5617860000000  0.4854110000000 1.0
C      1  0.4998530000000  0.4025830000000  0.4863570000000 1.0
C      1  0.4870280000000  0.4993200000000  0.4027890000000 1.0
C      1  0.4057400000000  0.4858920000000  0.4990350000000 1.0
C      1  0.4984360000000  0.5860800000000  0.5144400000000 1.0
C      1  0.5008540000000  0.5951990000000  0.4865650000000 1.0
C      1  0.5003020000000  0.4055810000000  0.5156160000000 1.0
C      1  0.4863650000000  0.5006130000000  0.5979680000000 1.0
C      1  0.5149880000000  0.5017440000000  0.4120920000000 1.0
C      1  0.5159220000000  0.5005550000000  0.5996360000000 1.0
C      1  0.4032220000000  0.5153020000000  0.5010910000000 1.0
C      1  0.5964660000000  0.5151060000000  0.4996120000000 1.0
C      1  0.5977100000000  0.4857410000000  0.5000610000000 1.0
C      1  0.5970240000000  0.5266370000000  0.5476170000000 1.0
C      1  0.5431290000000  0.5765830000000  0.5299270000000 1.0
C      1  0.5215250000000  0.5493710000000  0.6083410000000 1.0
C      1  0.6084040000000  0.4789500000000  0.4516120000000 1.0
C      1  0.4015820000000  0.4740280000000  0.5474490000000 1.0
C      1  0.4011760000000  0.5238920000000  0.4521880000000 1.0
C      1  0.5487390000000  0.3952250000000  0.4788790000000 1.0
C      1  0.4519900000000  0.4018200000000  0.5257270000000 1.0
C      1  0.4521910000000  0.6064960000000  0.4820720000000 1.0
C      1  0.5292710000000  0.4565970000000  0.4214340000000 1.0
C      1  0.4773520000000  0.4517940000000  0.6013790000000 1.0
C      1  0.4838860000000  0.5481770000000  0.3913160000000 1.0
C      1  0.4303060000000  0.4201840000000  0.4855210000000 1.0
C      1  0.4884500000000  0.4295840000000  0.4231810000000 1.0
C      1  0.4216850000000  0.4835000000000  0.4297650000000 1.0
C      1  0.4297080000000  0.5787040000000  0.5182960000000 1.0
C      1  0.5707490000000  0.5773760000000  0.4894190000000 1.0
C      1  0.5695120000000  0.4211090000000  0.5159830000000 1.0
C      1  0.4841300000000  0.5684570000000  0.5816140000000 1.0
C      1  0.5189100000000  0.5702590000000  0.4210540000000 1.0
C      1  0.5164820000000  0.4303960000000  0.5809860000000 1.0
C      1  0.4200900000000  0.5125690000000  0.5719850000000 1.0
C      1  0.5824170000000  0.5157900000000  0.4307940000000 1.0
C      1  0.5797730000000  0.4862270000000  0.5698800000000 1.0
C      1  0.4040740000000  0.5050760000000  0.4332790000000 1.0
C      1  0.4325960000000  0.4023320000000  0.5070750000000 1.0
C      1  0.5143770000000  0.4354470000000  0.4141360000000 1.0
C      1  0.4025650000000  0.4908730000000  0.5684640000000 1.0
C      1  0.6036020000000  0.4974180000000  0.4325750000000 1.0
C      1  0.5970140000000  0.5081450000000  0.5670780000000 1.0
C      1  0.4332330000000  0.5992700000000  0.4996120000000 1.0
C      1  0.5642280000000  0.5850670000000  0.5156170000000 1.0
C      1  0.5676160000000  0.4001940000000  0.4973860000000 1.0
C      1  0.5022620000000  0.5673910000000  0.6030020000000 1.0
C      1  0.5010050000000  0.5670830000000  0.3997060000000 1.0
C      1  0.4959150000000  0.4323440000000  0.6000250000000 1.0
C      1  0.5928020000000  0.5342390000000  0.4774000000000 1.0
C      1  0.4774040000000  0.5852670000000  0.5345390000000 1.0
C      1  0.5343360000000  0.4780350000000  0.5915340000000 1.0
C      1  0.5896890000000  0.4674710000000  0.5224710000000 1.0
C      1  0.4117210000000  0.4667170000000  0.4772380000000 1.0
C      1  0.4084980000000  0.5329100000000  0.5252480000000 1.0
C      1  0.4773590000000  0.4086920000000  0.4675280000000 1.0
C      1  0.5226000000000  0.4117660000000  0.5341750000000 1.0
C      1  0.5245220000000  0.5896190000000  0.4681990000000 1.0
C      1  0.5353410000000  0.5226070000000  0.4136480000000 1.0
C      1  0.4663530000000  0.5215400000000  0.5918650000000 1.0
C      1  0.4683520000000  0.4758310000000  0.4095240000000 1.0
C      1  0.5530500000000  0.5507750000000  0.4513410000000 1.0
C      1  0.4489200000000  0.5481000000000  0.5525230000000 1.0
C      1  0.5499840000000  0.4514650000000  0.5504080000000 1.0
C      1  0.4508590000000  0.4486050000000  0.4499050000000 1.0
C      1  0.4883190000000  0.4893300000000  0.5153640000000 1.0
END
