TITL C-74086-5274-126 -157.491406750477 125000 -570.618737191381 0 0 91 (C1) n - 1
REM
REM in /home/nfs/bkarasulu/CARBON/AIRSS/Generating-Clusters/LCBOP/Higher-Symm/SD-CG/FIRE-CG
REM
REM
REM
REM
REM
REM ./C.cell (b20cbc046b6831c77cfcea5457e17084)
REM AIRSS Version 0.9.1 bugfix July 2018 build 013d7b7c2542+ Fri, 06 Jul 2018 19:26:36 +0100
REM compiler GCC version 9.2.1 20190827 (Red Hat 9.2.1-1)
REM options -cpp -mtune=generic -march=x86-64 -g -O0 -fpre-include=/usr/include/finclude/math-vector-fortran.h
REM seed -1410135011 623035303 395647436 1330084817 -1357293599 -1897347068 -227015344 214769746 -21127133 -279348297 1210917576 1564678658 922690839 -959165027 1665952905 422647298 -1213965492 253367429 2636537 1324458467 1794470793 -687591306 -1356108769 1305623213 35772387 -1857610547 -1847426923 1734994164 -517800901 965542209 -1913662645 -1437815822 -1518397103
REM
CELL 1.54180   50.00000   50.00000   50.00000   90.00000   90.00000   90.00000
LATT -1
SFAC C  
C      1  0.5924030000000  0.5096550000000  0.5386650000000 1.0
C      1  0.4630060000000  0.4965280000000  0.5898260000000 1.0
C      1  0.4090270000000  0.5067690000000  0.4631020000000 1.0
C      1  0.5337340000000  0.4950360000000  0.4109320000000 1.0
C      1  0.4176670000000  0.5012110000000  0.5313980000000 1.0
C      1  0.5305210000000  0.4934060000000  0.5774570000000 1.0
C      1  0.5906000000000  0.5044940000000  0.4689430000000 1.0
C      1  0.4671340000000  0.4937370000000  0.4206340000000 1.0
C      1  0.6022780000000  0.4991960000000  0.5136920000000 1.0
C      1  0.4888450000000  0.4833560000000  0.5931520000000 1.0
C      1  0.4009890000000  0.4962510000000  0.4887190000000 1.0
C      1  0.5086570000000  0.4821090000000  0.4049560000000 1.0
C      1  0.4070550000000  0.5160580000000  0.5091700000000 1.0
C      1  0.5092510000000  0.5041590000000  0.5929210000000 1.0
C      1  0.5977330000000  0.5185710000000  0.4929040000000 1.0
C      1  0.4882080000000  0.5031820000000  0.4034600000000 1.0
C      1  0.4344020000000  0.5491550000000  0.4473410000000 1.0
C      1  0.5445960000000  0.5423090000000  0.4308280000000 1.0
C      1  0.5634430000000  0.5495460000000  0.5509700000000 1.0
C      1  0.4522360000000  0.5460420000000  0.5703000000000 1.0
C      1  0.5678260000000  0.4583140000000  0.4612780000000 1.0
C      1  0.4484760000000  0.4514550000000  0.4360670000000 1.0
C      1  0.4288360000000  0.4535810000000  0.5431900000000 1.0
C      1  0.5513680000000  0.4528510000000  0.5633470000000 1.0
C      1  0.5547620000000  0.4473320000000  0.5072180000000 1.0
C      1  0.4875360000000  0.4405990000000  0.5310770000000 1.0
C      1  0.4525750000000  0.4475870000000  0.4932600000000 1.0
C      1  0.4997400000000  0.4443870000000  0.4684620000000 1.0
C      1  0.4690510000000  0.5559090000000  0.5005120000000 1.0
C      1  0.4980060000000  0.5482860000000  0.5414500000000 1.0
C      1  0.5326060000000  0.5503130000000  0.5021760000000 1.0
C      1  0.5020840000000  0.5486720000000  0.4510270000000 1.0
C      1  0.4744530000000  0.4855020000000  0.4771400000000 1.0
C      1  0.5241250000000  0.4822740000000  0.4799990000000 1.0
C      1  0.5224060000000  0.4774220000000  0.5240160000000 1.0
C      1  0.4721040000000  0.4812190000000  0.5239890000000 1.0
C      1  0.5158360000000  0.5284750000000  0.4629430000000 1.0
C      1  0.4743360000000  0.5309640000000  0.4864260000000 1.0
C      1  0.4860910000000  0.5231670000000  0.5336710000000 1.0
C      1  0.5327440000000  0.5209180000000  0.5070590000000 1.0
C      1  0.5294670000000  0.5242760000000  0.4141270000000 1.0
C      1  0.5810070000000  0.5366330000000  0.5326470000000 1.0
C      1  0.4678230000000  0.5264440000000  0.5853680000000 1.0
C      1  0.4198510000000  0.5345330000000  0.4675240000000 1.0
C      1  0.4704660000000  0.4650390000000  0.4252360000000 1.0
C      1  0.4157870000000  0.4722990000000  0.5264610000000 1.0
C      1  0.5274960000000  0.4643900000000  0.5735270000000 1.0
C      1  0.5858410000000  0.4759930000000  0.4750630000000 1.0
C      1  0.5803270000000  0.5221850000000  0.4503300000000 1.0
C      1  0.5386630000000  0.5100380000000  0.5563010000000 1.0
C      1  0.4402470000000  0.5134820000000  0.5420760000000 1.0
C      1  0.4598810000000  0.5123360000000  0.4405900000000 1.0
C      1  0.4149600000000  0.4852750000000  0.4456530000000 1.0
C      1  0.4451070000000  0.4760640000000  0.5818500000000 1.0
C      1  0.5852670000000  0.4886660000000  0.5563830000000 1.0
C      1  0.5510810000000  0.4765090000000  0.4224060000000 1.0
C      1  0.4663510000000  0.5035630000000  0.5392630000000 1.0
C      1  0.4671340000000  0.5105240000000  0.4677160000000 1.0
C      1  0.5276580000000  0.5099540000000  0.4807660000000 1.0
C      1  0.5327040000000  0.5033260000000  0.5296060000000 1.0
C      1  0.5351840000000  0.4662210000000  0.5011420000000 1.0
C      1  0.4987830000000  0.4728140000000  0.4728500000000 1.0
C      1  0.4608130000000  0.4749830000000  0.4992140000000 1.0
C      1  0.4968180000000  0.4676700000000  0.5277680000000 1.0
C      1  0.5778860000000  0.4563540000000  0.5208600000000 1.0
C      1  0.4772560000000  0.4438380000000  0.5597040000000 1.0
C      1  0.4264770000000  0.4525960000000  0.4808540000000 1.0
C      1  0.5161120000000  0.4454190000000  0.4425280000000 1.0
C      1  0.4425670000000  0.5526760000000  0.5146490000000 1.0
C      1  0.5121600000000  0.5461800000000  0.5661200000000 1.0
C      1  0.5586890000000  0.5518460000000  0.4854640000000 1.0
C      1  0.4859090000000  0.5466610000000  0.4275360000000 1.0
C      1  0.5399020000000  0.5383610000000  0.5617430000000 1.0
C      1  0.4416870000000  0.5427250000000  0.5433250000000 1.0
C      1  0.4578080000000  0.5404490000000  0.4331210000000 1.0
C      1  0.5607650000000  0.5430920000000  0.4552410000000 1.0
C      1  0.4491800000000  0.4542920000000  0.5631460000000 1.0
C      1  0.5739360000000  0.4632470000000  0.5488800000000 1.0
C      1  0.5456330000000  0.4562040000000  0.4425710000000 1.0
C      1  0.4271980000000  0.4600700000000  0.4526210000000 1.0
C      1  0.4213100000000  0.5395430000000  0.4974650000000 1.0
C      1  0.5001610000000  0.5292230000000  0.4088170000000 1.0
C      1  0.5815180000000  0.5412780000000  0.5027520000000 1.0
C      1  0.4976530000000  0.5301950000000  0.5862160000000 1.0
C      1  0.5939040000000  0.4730790000000  0.5039090000000 1.0
C      1  0.4991860000000  0.4585510000000  0.4209470000000 1.0
C      1  0.4091290000000  0.4691150000000  0.4978000000000 1.0
C      1  0.4978160000000  0.4586040000000  0.5779000000000 1.0
C      1  0.4789020000000  0.4336700000000  0.4962500000000 1.0
C      1  0.5021010000000  0.5613410000000  0.5152970000000 1.0
C      1  0.4906510000000  0.5185110000000  0.5060620000000 1.0
END
