TITL C-74080-5790-475 2545.36355932807 125000 -988.140186329508 0 0 163 (C1) n - 1
REM
REM in /home/nfs/bkarasulu/CARBON/AIRSS/Generating-Clusters/LCBOP/Higher-Symm/SD-CG/FIRE-CG
REM
REM
REM
REM
REM
REM ./C.cell (b20cbc046b6831c77cfcea5457e17084)
REM AIRSS Version 0.9.1 bugfix July 2018 build 013d7b7c2542+ Fri, 06 Jul 2018 19:26:36 +0100
REM compiler GCC version 9.2.1 20190827 (Red Hat 9.2.1-1)
REM options -cpp -mtune=generic -march=x86-64 -g -O0 -fpre-include=/usr/include/finclude/math-vector-fortran.h
REM seed -1477522352 -1542192020 -923961482 985843216 -1806571365 -173591826 424426279 1534508063 1268529071 -320304671 -1524692050 -374675861 -31695957 1763052438 -1560785188 -1918794198 -158077506 -1791723806 -1752541133 -1294729204 -1601378128 1086021962 -1992347847 1280228962 -558508378 -1170809104 -765270875 -113754243 296384117 -1789896233 -1766415589 -309011221 312456010
REM
CELL 1.54180   50.00000   50.00000   50.00000   90.00000   90.00000   90.00000
LATT -1
SFAC C  
C      1  0.4172080000000  0.5557540000000  0.4757600000000 1.0
C      1  0.5771590000000  0.5668620000000  0.5222630000000 1.0
C      1  0.4135830000000  0.4368610000000  0.4750130000000 1.0
C      1  0.5771170000000  0.4324590000000  0.5224770000000 1.0
C      1  0.5445240000000  0.4509740000000  0.4117280000000 1.0
C      1  0.4585450000000  0.4505700000000  0.5882840000000 1.0
C      1  0.5521290000000  0.5538980000000  0.4065270000000 1.0
C      1  0.4567660000000  0.5487310000000  0.5930690000000 1.0
C      1  0.4414120000000  0.5118720000000  0.4495400000000 1.0
C      1  0.5413750000000  0.5261230000000  0.5455470000000 1.0
C      1  0.4425680000000  0.4814550000000  0.4511760000000 1.0
C      1  0.5429770000000  0.4728040000000  0.5461700000000 1.0
C      1  0.5033940000000  0.5522370000000  0.5211340000000 1.0
C      1  0.4918940000000  0.5515960000000  0.4689440000000 1.0
C      1  0.5044200000000  0.4437070000000  0.5205790000000 1.0
C      1  0.4857980000000  0.4460270000000  0.4712730000000 1.0
C      1  0.6037050000000  0.4714860000000  0.4738860000000 1.0
C      1  0.3940490000000  0.4701170000000  0.5319570000000 1.0
C      1  0.6040880000000  0.5256660000000  0.4746900000000 1.0
C      1  0.3960160000000  0.5246760000000  0.5309330000000 1.0
C      1  0.5692450000000  0.4524920000000  0.5743020000000 1.0
C      1  0.4438800000000  0.4558120000000  0.4132200000000 1.0
C      1  0.5693720000000  0.5448790000000  0.5736850000000 1.0
C      1  0.4436870000000  0.5401750000000  0.4093380000000 1.0
C      1  0.4483010000000  0.4310600000000  0.5447790000000 1.0
C      1  0.5494440000000  0.4324890000000  0.4569750000000 1.0
C      1  0.4465430000000  0.5683190000000  0.5494660000000 1.0
C      1  0.5577860000000  0.5715030000000  0.4532040000000 1.0
C      1  0.3983360000000  0.4846670000000  0.5078360000000 1.0
C      1  0.5948630000000  0.4843700000000  0.4975690000000 1.0
C      1  0.3863850000000  0.5098430000000  0.5088920000000 1.0
C      1  0.6000240000000  0.5128470000000  0.5019280000000 1.0
C      1  0.5174240000000  0.6010280000000  0.4666020000000 1.0
C      1  0.4795680000000  0.5971910000000  0.5271250000000 1.0
C      1  0.5139980000000  0.3975240000000  0.4719110000000 1.0
C      1  0.4796510000000  0.3980780000000  0.5255440000000 1.0
C      1  0.5323480000000  0.4750990000000  0.5733810000000 1.0
C      1  0.4713700000000  0.4762040000000  0.4399740000000 1.0
C      1  0.5308440000000  0.5252240000000  0.5731600000000 1.0
C      1  0.4678110000000  0.5194870000000  0.4386610000000 1.0
C      1  0.5651360000000  0.5925810000000  0.5217550000000 1.0
C      1  0.4310780000000  0.5795400000000  0.4683300000000 1.0
C      1  0.5654190000000  0.4065880000000  0.5228360000000 1.0
C      1  0.4266400000000  0.4120530000000  0.4703340000000 1.0
C      1  0.4579980000000  0.4358010000000  0.4296490000000 1.0
C      1  0.5442690000000  0.4318080000000  0.5605550000000 1.0
C      1  0.4590210000000  0.5595910000000  0.4254790000000 1.0
C      1  0.5449690000000  0.5667990000000  0.5602170000000 1.0
C      1  0.4903580000000  0.4929640000000  0.4811750000000 1.0
C      1  0.5216040000000  0.4850450000000  0.5315000000000 1.0
C      1  0.4668890000000  0.5038860000000  0.4893590000000 1.0
C      1  0.5199810000000  0.5124470000000  0.5320650000000 1.0
C      1  0.4836210000000  0.4848410000000  0.4144850000000 1.0
C      1  0.5200530000000  0.4854540000000  0.5967250000000 1.0
C      1  0.4851120000000  0.5135570000000  0.4158530000000 1.0
C      1  0.5197270000000  0.5141820000000  0.5968780000000 1.0
C      1  0.5112870000000  0.5317300000000  0.4635270000000 1.0
C      1  0.4960460000000  0.5276050000000  0.5337570000000 1.0
C      1  0.4921280000000  0.4717590000000  0.4607010000000 1.0
C      1  0.4993250000000  0.4687740000000  0.5315500000000 1.0
C      1  0.5196100000000  0.4241020000000  0.5366510000000 1.0
C      1  0.4762540000000  0.4257280000000  0.4526840000000 1.0
C      1  0.5201590000000  0.5725310000000  0.5356110000000 1.0
C      1  0.4795560000000  0.5685330000000  0.4475020000000 1.0
C      1  0.5963020000000  0.4328500000000  0.5007320000000 1.0
C      1  0.3995710000000  0.4340100000000  0.5012080000000 1.0
C      1  0.5977120000000  0.5655760000000  0.5012000000000 1.0
C      1  0.4026810000000  0.5602100000000  0.5008170000000 1.0
C      1  0.4663080000000  0.4067570000000  0.5504110000000 1.0
C      1  0.5319120000000  0.4080280000000  0.4504010000000 1.0
C      1  0.4664660000000  0.5918810000000  0.5536110000000 1.0
C      1  0.5391900000000  0.5952730000000  0.4468320000000 1.0
C      1  0.6018590000000  0.5549940000000  0.4749450000000 1.0
C      1  0.4013020000000  0.5531990000000  0.5286620000000 1.0
C      1  0.5976470000000  0.4429680000000  0.4744630000000 1.0
C      1  0.4002480000000  0.4417570000000  0.5289100000000 1.0
C      1  0.6384910000000  0.5229300000000  0.5402030000000 1.0
C      1  0.3473960000000  0.5248220000000  0.4749990000000 1.0
C      1  0.6209090000000  0.5184010000000  0.5215230000000 1.0
C      1  0.3659290000000  0.5177580000000  0.4919040000000 1.0
C      1  0.4916760000000  0.5946980000000  0.4538080000000 1.0
C      1  0.5086650000000  0.5974590000000  0.5225950000000 1.0
C      1  0.4859690000000  0.4025660000000  0.4675500000000 1.0
C      1  0.5087810000000  0.3989160000000  0.5242780000000 1.0
C      1  0.4371420000000  0.5122340000000  0.4027850000000 1.0
C      1  0.5767490000000  0.5155860000000  0.5773530000000 1.0
C      1  0.4371230000000  0.4831040000000  0.4043130000000 1.0
C      1  0.5771080000000  0.4862130000000  0.5776370000000 1.0
C      1  0.5850910000000  0.4614730000000  0.4323590000000 1.0
C      1  0.4157740000000  0.4598240000000  0.5716430000000 1.0
C      1  0.5889180000000  0.5373550000000  0.4308350000000 1.0
C      1  0.4162650000000  0.5354520000000  0.5727320000000 1.0
C      1  0.4919440000000  0.4659360000000  0.3954390000000 1.0
C      1  0.5091670000000  0.4655100000000  0.6134910000000 1.0
C      1  0.4965070000000  0.5335370000000  0.3994490000000 1.0
C      1  0.5094700000000  0.5334300000000  0.6147380000000 1.0
C      1  0.5724110000000  0.5238830000000  0.5082100000000 1.0
C      1  0.4464030000000  0.5220750000000  0.4917420000000 1.0
C      1  0.5699590000000  0.4754630000000  0.5072550000000 1.0
C      1  0.4222980000000  0.4764210000000  0.4947970000000 1.0
C      1  0.4186620000000  0.4369730000000  0.5519460000000 1.0
C      1  0.5797740000000  0.4382860000000  0.4513660000000 1.0
C      1  0.4168390000000  0.5594800000000  0.5539980000000 1.0
C      1  0.5878330000000  0.5618680000000  0.4497440000000 1.0
C      1  0.4306040000000  0.5111790000000  0.6126380000000 1.0
C      1  0.5760010000000  0.5131090000000  0.3903710000000 1.0
C      1  0.4309670000000  0.4844070000000  0.6113610000000 1.0
C      1  0.5734030000000  0.4864320000000  0.3918840000000 1.0
C      1  0.4324230000000  0.5342510000000  0.5967690000000 1.0
C      1  0.5753710000000  0.5371300000000  0.4050190000000 1.0
C      1  0.4335900000000  0.4625310000000  0.5940060000000 1.0
C      1  0.5693890000000  0.4640570000000  0.4084130000000 1.0
C      1  0.5312830000000  0.5722160000000  0.3986120000000 1.0
C      1  0.4756930000000  0.5690080000000  0.6010770000000 1.0
C      1  0.5264490000000  0.4303470000000  0.4026120000000 1.0
C      1  0.4765610000000  0.4299740000000  0.5971530000000 1.0
C      1  0.5555770000000  0.5129470000000  0.4609890000000 1.0
C      1  0.4459350000000  0.5124810000000  0.5383900000000 1.0
C      1  0.5372000000000  0.4911650000000  0.4710670000000 1.0
C      1  0.4545690000000  0.4852950000000  0.5299280000000 1.0
C      1  0.5362450000000  0.4538570000000  0.4390020000000 1.0
C      1  0.4638970000000  0.4525600000000  0.5604090000000 1.0
C      1  0.5451760000000  0.5513600000000  0.4342140000000 1.0
C      1  0.4621580000000  0.5468010000000  0.5649360000000 1.0
C      1  0.5438290000000  0.4441960000000  0.4836230000000 1.0
C      1  0.4501720000000  0.4394610000000  0.5158230000000 1.0
C      1  0.5515330000000  0.5588520000000  0.4799850000000 1.0
C      1  0.4492660000000  0.5602650000000  0.5209550000000 1.0
C      1  0.4426480000000  0.3994400000000  0.4883760000000 1.0
C      1  0.5511360000000  0.3906470000000  0.5062440000000 1.0
C      1  0.4504650000000  0.5914200000000  0.4832530000000 1.0
C      1  0.5501350000000  0.6077160000000  0.5050790000000 1.0
C      1  0.4721170000000  0.5246730000000  0.5501750000000 1.0
C      1  0.5342490000000  0.5295330000000  0.4460680000000 1.0
C      1  0.4749920000000  0.4727820000000  0.5447420000000 1.0
C      1  0.5213440000000  0.4735710000000  0.4515640000000 1.0
C      1  0.5255230000000  0.4081060000000  0.4216530000000 1.0
C      1  0.4764050000000  0.4076970000000  0.5780340000000 1.0
C      1  0.5317640000000  0.5949260000000  0.4177420000000 1.0
C      1  0.4766080000000  0.5908570000000  0.5812640000000 1.0
C      1  0.4975760000000  0.4409920000000  0.6125680000000 1.0
C      1  0.5037210000000  0.4420850000000  0.3904760000000 1.0
C      1  0.4973610000000  0.5576540000000  0.6153110000000 1.0
C      1  0.5076450000000  0.5573330000000  0.3924300000000 1.0
C      1  0.5493090000000  0.4714620000000  0.4889400000000 1.0
C      1  0.4432250000000  0.4667460000000  0.5115720000000 1.0
C      1  0.5579040000000  0.5314550000000  0.4853750000000 1.0
C      1  0.4429880000000  0.5330120000000  0.5162960000000 1.0
C      1  0.4244080000000  0.4645950000000  0.4685100000000 1.0
C      1  0.5651680000000  0.4593910000000  0.5305550000000 1.0
C      1  0.4306660000000  0.5300510000000  0.4696740000000 1.0
C      1  0.5641910000000  0.5399340000000  0.5304000000000 1.0
C      1  0.5865680000000  0.5127050000000  0.4509620000000 1.0
C      1  0.4155300000000  0.5113960000000  0.5522160000000 1.0
C      1  0.5958920000000  0.4836450000000  0.4481770000000 1.0
C      1  0.4053780000000  0.4824630000000  0.5563750000000 1.0
C      1  0.4662670000000  0.5793320000000  0.5049000000000 1.0
C      1  0.5226180000000  0.6048250000000  0.4965730000000 1.0
C      1  0.4671030000000  0.4096290000000  0.5000760000000 1.0
C      1  0.5234640000000  0.3917940000000  0.4996660000000 1.0
C      1  0.4904560000000  0.4376070000000  0.4969490000000 1.0
C      1  0.4891910000000  0.5603340000000  0.4966320000000 1.0
C      1  0.5135090000000  0.5083770000000  0.4802910000000 1.0
END
