TITL C-74082-2733-262 -1.49461513298335e-06 125000 -1065.93900589126 0 0 169 (C1) n - 1
REM
REM in /home/nfs/bkarasulu/CARBON/AIRSS/Generating-Clusters/LCBOP/Higher-Symm/SD-CG/FIRE-CG
REM
REM
REM
REM
REM
REM ./C.cell (b20cbc046b6831c77cfcea5457e17084)
REM AIRSS Version 0.9.1 bugfix July 2018 build 013d7b7c2542+ Fri, 06 Jul 2018 19:26:36 +0100
REM compiler GCC version 9.2.1 20190827 (Red Hat 9.2.1-1)
REM options -cpp -mtune=generic -march=x86-64 -g -O0 -fpre-include=/usr/include/finclude/math-vector-fortran.h
REM seed -2098617053 158150002 -1599977879 1222467561 194573348 1564892798 -1798891742 -637382854 -1040397461 972643523 487964 -1054995186 -2121064081 100523135 1434430665 2027294399 -1980051542 1711110645 739456893 -1487049590 -568620727 971795681 -2003021003 729433767 -251394573 -1692299775 -323770153 369889112 -786173266 -1074907461 1196328048 -1193630299 1465073456
REM
CELL 1.54180   50.00000   50.00000   50.00000   90.00000   90.00000   90.00000
LATT -1
SFAC C  
C      1  0.5037500000000  0.4733920000000  0.5257670000000 1.0
C      1  0.5029410000000  0.5041240000000  0.5342570000000 1.0
C      1  0.5043260000000  0.5314000000000  0.5182880000000 1.0
C      1  0.5053430000000  0.5335980000000  0.4871560000000 1.0
C      1  0.5040730000000  0.5111040000000  0.4667220000000 1.0
C      1  0.4982150000000  0.4834730000000  0.4766380000000 1.0
C      1  0.5029470000000  0.4620010000000  0.4965200000000 1.0
C      1  0.4074770000000  0.5063080000000  0.5325420000000 1.0
C      1  0.4060720000000  0.5297790000000  0.5163640000000 1.0
C      1  0.4058900000000  0.5309570000000  0.4879640000000 1.0
C      1  0.4058320000000  0.5088930000000  0.4698990000000 1.0
C      1  0.4071900000000  0.4809630000000  0.4766850000000 1.0
C      1  0.4072600000000  0.4650220000000  0.5005190000000 1.0
C      1  0.4093760000000  0.4789690000000  0.5253640000000 1.0
C      1  0.5792700000000  0.4707660000000  0.5609310000000 1.0
C      1  0.5790790000000  0.5294830000000  0.5611230000000 1.0
C      1  0.5806370000000  0.5665730000000  0.5151610000000 1.0
C      1  0.5818490000000  0.5542900000000  0.4588230000000 1.0
C      1  0.5818730000000  0.5025880000000  0.4315700000000 1.0
C      1  0.5813260000000  0.4493140000000  0.4568070000000 1.0
C      1  0.5794160000000  0.4345250000000  0.5140830000000 1.0
C      1  0.4598350000000  0.6107700000000  0.4410930000000 1.0
C      1  0.4683970000000  0.5212950000000  0.3844050000000 1.0
C      1  0.4583390000000  0.4201090000000  0.4074850000000 1.0
C      1  0.4646820000000  0.3769020000000  0.5044510000000 1.0
C      1  0.4625310000000  0.4278600000000  0.5998580000000 1.0
C      1  0.4644360000000  0.5329720000000  0.6177420000000 1.0
C      1  0.4681990000000  0.6118030000000  0.5455720000000 1.0
C      1  0.4913340000000  0.4820310000000  0.4069240000000 1.0
C      1  0.4899490000000  0.4222120000000  0.4456810000000 1.0
C      1  0.4890500000000  0.4052760000000  0.5372620000000 1.0
C      1  0.4898700000000  0.4702540000000  0.5974610000000 1.0
C      1  0.4897700000000  0.5574440000000  0.5816520000000 1.0
C      1  0.4919900000000  0.5997820000000  0.5017400000000 1.0
C      1  0.4898780000000  0.5717590000000  0.4353420000000 1.0
C      1  0.5895470000000  0.5456860000000  0.5366640000000 1.0
C      1  0.5912220000000  0.5575360000000  0.4878720000000 1.0
C      1  0.5922780000000  0.5272320000000  0.4477900000000 1.0
C      1  0.5918550000000  0.4769500000000  0.4468460000000 1.0
C      1  0.5900940000000  0.4449320000000  0.4862160000000 1.0
C      1  0.5891480000000  0.4549840000000  0.5355190000000 1.0
C      1  0.5889930000000  0.5000270000000  0.5580350000000 1.0
C      1  0.5512900000000  0.4781130000000  0.5211690000000 1.0
C      1  0.5512800000000  0.5042270000000  0.5299750000000 1.0
C      1  0.5516160000000  0.5281160000000  0.5162240000000 1.0
C      1  0.5531620000000  0.5305390000000  0.4888060000000 1.0
C      1  0.5634790000000  0.5089550000000  0.4758810000000 1.0
C      1  0.5545690000000  0.4832390000000  0.4729170000000 1.0
C      1  0.5503060000000  0.4685130000000  0.4953930000000 1.0
C      1  0.5074990000000  0.5806410000000  0.4570190000000 1.0
C      1  0.5201340000000  0.5399870000000  0.4161750000000 1.0
C      1  0.5061590000000  0.4441230000000  0.4351560000000 1.0
C      1  0.5203120000000  0.4063590000000  0.4791620000000 1.0
C      1  0.5179930000000  0.4294890000000  0.5628440000000 1.0
C      1  0.5177270000000  0.5038670000000  0.5933330000000 1.0
C      1  0.5192500000000  0.5792920000000  0.5534230000000 1.0
C      1  0.5174980000000  0.4833490000000  0.3946120000000 1.0
C      1  0.5357910000000  0.3950140000000  0.4583180000000 1.0
C      1  0.5191230000000  0.4018190000000  0.5453500000000 1.0
C      1  0.5187560000000  0.4767520000000  0.6040550000000 1.0
C      1  0.5190580000000  0.5672790000000  0.5840880000000 1.0
C      1  0.5182510000000  0.6102140000000  0.5063550000000 1.0
C      1  0.5355130000000  0.5617390000000  0.4064410000000 1.0
C      1  0.4556060000000  0.4445990000000  0.5012780000000 1.0
C      1  0.4569600000000  0.4664780000000  0.5220300000000 1.0
C      1  0.4545600000000  0.5134240000000  0.5399780000000 1.0
C      1  0.4553900000000  0.5358710000000  0.5194410000000 1.0
C      1  0.4552130000000  0.5373150000000  0.4870340000000 1.0
C      1  0.4548760000000  0.5159460000000  0.4631930000000 1.0
C      1  0.4548700000000  0.4863890000000  0.4711530000000 1.0
C      1  0.5248680000000  0.5036140000000  0.4462720000000 1.0
C      1  0.5374860000000  0.4784150000000  0.4509650000000 1.0
C      1  0.5299220000000  0.4495510000000  0.4932280000000 1.0
C      1  0.5308490000000  0.4646780000000  0.5360290000000 1.0
C      1  0.5298130000000  0.5065690000000  0.5490600000000 1.0
C      1  0.5306460000000  0.5445500000000  0.5255660000000 1.0
C      1  0.5317380000000  0.5459460000000  0.4788490000000 1.0
C      1  0.5468710000000  0.6070650000000  0.5070400000000 1.0
C      1  0.5571070000000  0.5748760000000  0.4194410000000 1.0
C      1  0.5464190000000  0.4865210000000  0.3938480000000 1.0
C      1  0.5559370000000  0.4072760000000  0.4424160000000 1.0
C      1  0.5458080000000  0.3975040000000  0.5352640000000 1.0
C      1  0.5450820000000  0.4650300000000  0.6026210000000 1.0
C      1  0.5452260000000  0.5580650000000  0.5916140000000 1.0
C      1  0.4485680000000  0.4126050000000  0.5819590000000 1.0
C      1  0.4506930000000  0.5093760000000  0.6188510000000 1.0
C      1  0.4537880000000  0.5995400000000  0.5654270000000 1.0
C      1  0.4466250000000  0.6163610000000  0.4643390000000 1.0
C      1  0.4543250000000  0.5435630000000  0.3916830000000 1.0
C      1  0.4448010000000  0.4420350000000  0.3985050000000 1.0
C      1  0.4513950000000  0.3807080000000  0.4809520000000 1.0
C      1  0.4358440000000  0.4622400000000  0.4166750000000 1.0
C      1  0.4348030000000  0.4037510000000  0.4765930000000 1.0
C      1  0.4361320000000  0.4236830000000  0.5583730000000 1.0
C      1  0.4367860000000  0.4988380000000  0.5959710000000 1.0
C      1  0.4379290000000  0.5758350000000  0.5608950000000 1.0
C      1  0.4357970000000  0.5953640000000  0.4804290000000 1.0
C      1  0.4379960000000  0.5442260000000  0.4152520000000 1.0
C      1  0.6064210000000  0.4748050000000  0.5205430000000 1.0
C      1  0.6063390000000  0.5003400000000  0.5333750000000 1.0
C      1  0.6069370000000  0.5262580000000  0.5212760000000 1.0
C      1  0.6082700000000  0.5332060000000  0.4934400000000 1.0
C      1  0.6092930000000  0.5159170000000  0.4703760000000 1.0
C      1  0.6086930000000  0.4870670000000  0.4700580000000 1.0
C      1  0.6072030000000  0.4690420000000  0.4924990000000 1.0
C      1  0.4682770000000  0.6044760000000  0.5178920000000 1.0
C      1  0.4642750000000  0.5840200000000  0.4321260000000 1.0
C      1  0.4678520000000  0.4962610000000  0.3980860000000 1.0
C      1  0.4638870000000  0.4162460000000  0.4352120000000 1.0
C      1  0.4648440000000  0.3944700000000  0.5269430000000 1.0
C      1  0.4655160000000  0.4562020000000  0.5988510000000 1.0
C      1  0.4659920000000  0.5501650000000  0.5950700000000 1.0
C      1  0.5610590000000  0.3764900000000  0.5438120000000 1.0
C      1  0.5591350000000  0.4582680000000  0.6250480000000 1.0
C      1  0.5599080000000  0.5706490000000  0.6109020000000 1.0
C      1  0.5635320000000  0.6257200000000  0.4960760000000 1.0
C      1  0.5741920000000  0.5917600000000  0.4066150000000 1.0
C      1  0.5618640000000  0.4733720000000  0.3755230000000 1.0
C      1  0.5720830000000  0.3928160000000  0.4258480000000 1.0
C      1  0.4815860000000  0.5527940000000  0.4834740000000 1.0
C      1  0.4819450000000  0.5235230000000  0.4474250000000 1.0
C      1  0.4786110000000  0.4756410000000  0.4571910000000 1.0
C      1  0.4824840000000  0.4385320000000  0.4912240000000 1.0
C      1  0.4811270000000  0.4581060000000  0.5380200000000 1.0
C      1  0.4790950000000  0.5054080000000  0.5528500000000 1.0
C      1  0.4817840000000  0.5490360000000  0.5297270000000 1.0
C      1  0.4293420000000  0.5214900000000  0.5779070000000 1.0
C      1  0.4304340000000  0.5752080000000  0.5319740000000 1.0
C      1  0.4295650000000  0.5716690000000  0.4638450000000 1.0
C      1  0.4298220000000  0.5165810000000  0.4223860000000 1.0
C      1  0.4318950000000  0.4509350000000  0.4438650000000 1.0
C      1  0.4243100000000  0.4134940000000  0.5033920000000 1.0
C      1  0.4324300000000  0.4532530000000  0.5628580000000 1.0
C      1  0.5363530000000  0.5701870000000  0.5343820000000 1.0
C      1  0.5336160000000  0.5680850000000  0.4612500000000 1.0
C      1  0.5354550000000  0.5182500000000  0.4252460000000 1.0
C      1  0.5340180000000  0.4516080000000  0.4411460000000 1.0
C      1  0.5355150000000  0.4225210000000  0.4964920000000 1.0
C      1  0.5357920000000  0.4498570000000  0.5589290000000 1.0
C      1  0.5348410000000  0.5149170000000  0.5750610000000 1.0
C      1  0.4321230000000  0.4671860000000  0.5385020000000 1.0
C      1  0.4285290000000  0.5119430000000  0.5516670000000 1.0
C      1  0.4274560000000  0.5483650000000  0.5241760000000 1.0
C      1  0.4274780000000  0.5491980000000  0.4804600000000 1.0
C      1  0.4268110000000  0.5158560000000  0.4502990000000 1.0
C      1  0.4306160000000  0.4712710000000  0.4631070000000 1.0
C      1  0.4258390000000  0.4417550000000  0.4992940000000 1.0
C      1  0.4407500000000  0.5666330000000  0.4358410000000 1.0
C      1  0.4418060000000  0.4911550000000  0.4110930000000 1.0
C      1  0.4405040000000  0.4226260000000  0.4525810000000 1.0
C      1  0.4386810000000  0.4085560000000  0.5312190000000 1.0
C      1  0.4418480000000  0.4696080000000  0.5868010000000 1.0
C      1  0.4409420000000  0.5505620000000  0.5790310000000 1.0
C      1  0.4421770000000  0.5929820000000  0.5098250000000 1.0
C      1  0.5580570000000  0.5043780000000  0.4138520000000 1.0
C      1  0.5581500000000  0.4357200000000  0.4446930000000 1.0
C      1  0.5557950000000  0.4163720000000  0.5156090000000 1.0
C      1  0.5558180000000  0.4607550000000  0.5760010000000 1.0
C      1  0.5552010000000  0.5347330000000  0.5777650000000 1.0
C      1  0.5569030000000  0.5832850000000  0.5197160000000 1.0
C      1  0.5590850000000  0.5688100000000  0.4473340000000 1.0
C      1  0.4893010000000  0.4674500000000  0.4318370000000 1.0
C      1  0.4943090000000  0.4178370000000  0.4736240000000 1.0
C      1  0.4880530000000  0.4333780000000  0.5499890000000 1.0
C      1  0.4853000000000  0.4992430000000  0.5791770000000 1.0
C      1  0.4884570000000  0.5631760000000  0.5522420000000 1.0
C      1  0.4907830000000  0.5800500000000  0.4811100000000 1.0
C      1  0.4942530000000  0.5439540000000  0.4290620000000 1.0
C      1  0.4579880000000  0.4888790000000  0.5019370000000 1.0
END
