TITL C-74082-2733-446 150.934150024698 125000 -987.423723100166 0 0 160 (C1) n - 1
REM
REM in /home/nfs/bkarasulu/CARBON/AIRSS/Generating-Clusters/LCBOP/Higher-Symm/SD-CG/FIRE-CG
REM
REM
REM
REM
REM
REM ./C.cell (b20cbc046b6831c77cfcea5457e17084)
REM AIRSS Version 0.9.1 bugfix July 2018 build 013d7b7c2542+ Fri, 06 Jul 2018 19:26:36 +0100
REM compiler GCC version 9.2.1 20190827 (Red Hat 9.2.1-1)
REM options -cpp -mtune=generic -march=x86-64 -g -O0 -fpre-include=/usr/include/finclude/math-vector-fortran.h
REM seed -1454975772 1021614560 421408702 1029953783 -728378015 -2078133392 -1805184508 -253570163 -867261991 1127273146 -1764415376 708397445 1258625508 180906711 -1912431576 953044130 -306804629 -50594437 1104999827 483088089 2021564743 95162170 -529418247 -1833486794 -2107123566 923607767 -670002604 137692769 -631566311 -991626346 -2112184113 173543956 -38147432
REM
CELL 1.54180   50.00000   50.00000   50.00000   90.00000   90.00000   90.00000
LATT -1
SFAC C  
C      1  0.4931220000000  0.4865560000000  0.5723170000000 1.0
C      1  0.4918930000000  0.5134930000000  0.4277350000000 1.0
C      1  0.5050020000000  0.4877890000000  0.4266790000000 1.0
C      1  0.5062970000000  0.5125050000000  0.5724110000000 1.0
C      1  0.4934760000000  0.5721910000000  0.4870920000000 1.0
C      1  0.4949830000000  0.4264010000000  0.5117550000000 1.0
C      1  0.5079950000000  0.4269980000000  0.4860170000000 1.0
C      1  0.5067350000000  0.5718580000000  0.5129770000000 1.0
C      1  0.5286140000000  0.3989660000000  0.5481520000000 1.0
C      1  0.5294740000000  0.6009800000000  0.4517100000000 1.0
C      1  0.4720010000000  0.3980250000000  0.4504320000000 1.0
C      1  0.4705240000000  0.6012010000000  0.5486350000000 1.0
C      1  0.5287040000000  0.5493830000000  0.3980420000000 1.0
C      1  0.5285270000000  0.4510110000000  0.6014360000000 1.0
C      1  0.4718680000000  0.4519500000000  0.3990320000000 1.0
C      1  0.4700440000000  0.5482280000000  0.6010650000000 1.0
C      1  0.5638140000000  0.4354110000000  0.4536890000000 1.0
C      1  0.5643850000000  0.5669360000000  0.5487560000000 1.0
C      1  0.4422950000000  0.4436750000000  0.5382970000000 1.0
C      1  0.4351660000000  0.5684710000000  0.4520420000000 1.0
C      1  0.5581440000000  0.4618550000000  0.4440020000000 1.0
C      1  0.5642400000000  0.5478040000000  0.5682370000000 1.0
C      1  0.4347560000000  0.5492270000000  0.4326860000000 1.0
C      1  0.4367900000000  0.4536370000000  0.5646740000000 1.0
C      1  0.5807130000000  0.5374520000000  0.4400780000000 1.0
C      1  0.5816400000000  0.4619410000000  0.5601770000000 1.0
C      1  0.4184140000000  0.5387820000000  0.5602300000000 1.0
C      1  0.4182190000000  0.4618430000000  0.4406270000000 1.0
C      1  0.5817170000000  0.4394520000000  0.5392600000000 1.0
C      1  0.5815830000000  0.5588040000000  0.4621240000000 1.0
C      1  0.4182490000000  0.5593410000000  0.5375980000000 1.0
C      1  0.4191190000000  0.4398620000000  0.4622860000000 1.0
C      1  0.4373290000000  0.5279810000000  0.4909090000000 1.0
C      1  0.4436940000000  0.4639260000000  0.5181920000000 1.0
C      1  0.5634360000000  0.5266250000000  0.5064570000000 1.0
C      1  0.5641280000000  0.4731590000000  0.4906720000000 1.0
C      1  0.4367600000000  0.4902570000000  0.5269360000000 1.0
C      1  0.4365380000000  0.5062570000000  0.4731030000000 1.0
C      1  0.5625540000000  0.5090390000000  0.5284490000000 1.0
C      1  0.5571890000000  0.4820230000000  0.4643790000000 1.0
C      1  0.5330010000000  0.4119520000000  0.4866420000000 1.0
C      1  0.5319660000000  0.5865770000000  0.5129110000000 1.0
C      1  0.4698470000000  0.4113680000000  0.5113430000000 1.0
C      1  0.4684270000000  0.5875680000000  0.4873780000000 1.0
C      1  0.5302340000000  0.4885290000000  0.4116640000000 1.0
C      1  0.5312770000000  0.5123410000000  0.5877610000000 1.0
C      1  0.4668920000000  0.5133630000000  0.4129740000000 1.0
C      1  0.4680210000000  0.4869340000000  0.5875330000000 1.0
C      1  0.3813660000000  0.4993600000000  0.5594680000000 1.0
C      1  0.3799600000000  0.5028480000000  0.4408340000000 1.0
C      1  0.6150020000000  0.4952100000000  0.4426260000000 1.0
C      1  0.6193400000000  0.5031960000000  0.5570480000000 1.0
C      1  0.3804170000000  0.5559590000000  0.4967740000000 1.0
C      1  0.3892560000000  0.4595050000000  0.5014640000000 1.0
C      1  0.6175380000000  0.4417350000000  0.4987610000000 1.0
C      1  0.6198830000000  0.5589160000000  0.5032860000000 1.0
C      1  0.5210250000000  0.5834190000000  0.5621940000000 1.0
C      1  0.5230040000000  0.4158920000000  0.4374840000000 1.0
C      1  0.4786250000000  0.5842170000000  0.4381130000000 1.0
C      1  0.4774310000000  0.4169770000000  0.5609770000000 1.0
C      1  0.5208000000000  0.5616470000000  0.5840660000000 1.0
C      1  0.5231790000000  0.4389370000000  0.4169810000000 1.0
C      1  0.4777680000000  0.4377160000000  0.5838000000000 1.0
C      1  0.4781720000000  0.5625730000000  0.4161480000000 1.0
C      1  0.4002740000000  0.4841700000000  0.4475770000000 1.0
C      1  0.3951210000000  0.5222150000000  0.5636230000000 1.0
C      1  0.5987200000000  0.4844000000000  0.5517650000000 1.0
C      1  0.6025840000000  0.5187760000000  0.4380160000000 1.0
C      1  0.3975560000000  0.4404130000000  0.4819280000000 1.0
C      1  0.4010530000000  0.5505260000000  0.5154350000000 1.0
C      1  0.5997520000000  0.5521690000000  0.4842450000000 1.0
C      1  0.6047860000000  0.4368510000000  0.5221150000000 1.0
C      1  0.4569840000000  0.5206870000000  0.5956870000000 1.0
C      1  0.4574390000000  0.4790900000000  0.4044770000000 1.0
C      1  0.5420000000000  0.5218640000000  0.4026720000000 1.0
C      1  0.5420270000000  0.4784590000000  0.5964170000000 1.0
C      1  0.4573270000000  0.5960650000000  0.5211300000000 1.0
C      1  0.4581770000000  0.4023370000000  0.4779320000000 1.0
C      1  0.5428680000000  0.4039200000000  0.5208680000000 1.0
C      1  0.5426620000000  0.5951300000000  0.4790820000000 1.0
C      1  0.4584030000000  0.4197170000000  0.5375730000000 1.0
C      1  0.4578500000000  0.5838710000000  0.4597060000000 1.0
C      1  0.5435660000000  0.4162310000000  0.4591320000000 1.0
C      1  0.5420650000000  0.5827350000000  0.5407850000000 1.0
C      1  0.4569580000000  0.5412780000000  0.4167010000000 1.0
C      1  0.4573550000000  0.4594190000000  0.5833970000000 1.0
C      1  0.5419870000000  0.4625140000000  0.4200340000000 1.0
C      1  0.5416850000000  0.5401200000000  0.5838410000000 1.0
C      1  0.4866430000000  0.5053850000000  0.4735290000000 1.0
C      1  0.4876760000000  0.4933830000000  0.5265700000000 1.0
C      1  0.5126150000000  0.5077470000000  0.5264260000000 1.0
C      1  0.5117580000000  0.4917350000000  0.4730290000000 1.0
C      1  0.4887490000000  0.4724720000000  0.5080900000000 1.0
C      1  0.4874590000000  0.5261160000000  0.4919680000000 1.0
C      1  0.5129560000000  0.5260790000000  0.5055360000000 1.0
C      1  0.5132630000000  0.4729550000000  0.4934820000000 1.0
C      1  0.4570370000000  0.4084210000000  0.4272730000000 1.0
C      1  0.4553940000000  0.5910590000000  0.5718070000000 1.0
C      1  0.5434340000000  0.4086120000000  0.5717660000000 1.0
C      1  0.5443400000000  0.5912460000000  0.4282010000000 1.0
C      1  0.4570850000000  0.4281470000000  0.4083580000000 1.0
C      1  0.4551260000000  0.5715420000000  0.5909750000000 1.0
C      1  0.5438700000000  0.5723970000000  0.4083900000000 1.0
C      1  0.5435300000000  0.4277390000000  0.5912960000000 1.0
C      1  0.6229730000000  0.4540590000000  0.4753230000000 1.0
C      1  0.6279160000000  0.5459190000000  0.5260440000000 1.0
C      1  0.3763170000000  0.4586430000000  0.5266850000000 1.0
C      1  0.3719370000000  0.5438800000000  0.4737980000000 1.0
C      1  0.6218790000000  0.4724960000000  0.4555860000000 1.0
C      1  0.6276350000000  0.5261470000000  0.5446960000000 1.0
C      1  0.3716510000000  0.5254070000000  0.4539100000000 1.0
C      1  0.3746730000000  0.4761710000000  0.5473630000000 1.0
C      1  0.4427930000000  0.5270840000000  0.5707880000000 1.0
C      1  0.4429110000000  0.4718180000000  0.4289370000000 1.0
C      1  0.5560280000000  0.5278280000000  0.4278760000000 1.0
C      1  0.5565560000000  0.4719160000000  0.5717590000000 1.0
C      1  0.4431060000000  0.5712110000000  0.5275290000000 1.0
C      1  0.4438570000000  0.4274740000000  0.4719580000000 1.0
C      1  0.5573580000000  0.4286510000000  0.5275870000000 1.0
C      1  0.5568880000000  0.5704940000000  0.4721600000000 1.0
C      1  0.5003270000000  0.3999880000000  0.5546110000000 1.0
C      1  0.5014540000000  0.6006100000000  0.4450120000000 1.0
C      1  0.5001530000000  0.3991680000000  0.4438770000000 1.0
C      1  0.4985450000000  0.6003230000000  0.5552770000000 1.0
C      1  0.5006390000000  0.5557670000000  0.3991670000000 1.0
C      1  0.5004980000000  0.4441960000000  0.6005200000000 1.0
C      1  0.5002010000000  0.4453500000000  0.4000220000000 1.0
C      1  0.4980610000000  0.5548740000000  0.6006310000000 1.0
C      1  0.4120430000000  0.5007050000000  0.5172910000000 1.0
C      1  0.4116870000000  0.4926010000000  0.4720980000000 1.0
C      1  0.6014290000000  0.5032410000000  0.4887980000000 1.0
C      1  0.5850930000000  0.4921180000000  0.5284580000000 1.0
C      1  0.4146430000000  0.5271530000000  0.5078240000000 1.0
C      1  0.4005770000000  0.4849190000000  0.4967860000000 1.0
C      1  0.5886090000000  0.4818880000000  0.5021120000000 1.0
C      1  0.5885360000000  0.5277380000000  0.4930990000000 1.0
C      1  0.5389480000000  0.5270200000000  0.4903810000000 1.0
C      1  0.5396830000000  0.4713240000000  0.5077280000000 1.0
C      1  0.4621120000000  0.5295390000000  0.5065970000000 1.0
C      1  0.4624270000000  0.4676470000000  0.4946890000000 1.0
C      1  0.5379440000000  0.4931570000000  0.5298390000000 1.0
C      1  0.5379090000000  0.5051430000000  0.4679670000000 1.0
C      1  0.4610890000000  0.5074730000000  0.5284620000000 1.0
C      1  0.4608750000000  0.4900870000000  0.4728020000000 1.0
C      1  0.4920720000000  0.5556610000000  0.5340800000000 1.0
C      1  0.4928430000000  0.4434550000000  0.4653540000000 1.0
C      1  0.5078820000000  0.5557410000000  0.4659280000000 1.0
C      1  0.5084540000000  0.4437640000000  0.5329660000000 1.0
C      1  0.4916780000000  0.5335400000000  0.5559790000000 1.0
C      1  0.4916770000000  0.4659050000000  0.4436220000000 1.0
C      1  0.5078120000000  0.4653500000000  0.5557160000000 1.0
C      1  0.5070590000000  0.5339970000000  0.4437970000000 1.0
C      1  0.5364860000000  0.4468520000000  0.5229310000000 1.0
C      1  0.5356680000000  0.5523340000000  0.4759830000000 1.0
C      1  0.4653360000000  0.4450930000000  0.4770670000000 1.0
C      1  0.4645170000000  0.5532740000000  0.5229550000000 1.0
C      1  0.5345850000000  0.5225880000000  0.4453770000000 1.0
C      1  0.5354180000000  0.4766170000000  0.5535230000000 1.0
C      1  0.4638600000000  0.4757500000000  0.4473850000000 1.0
C      1  0.4639940000000  0.5228240000000  0.5528760000000 1.0
END
