TITL C-74083-3671-51 -9.8299894672783e-07 125000 -582.952049716851 0 0 100 (C1) n - 1
REM
REM in /home/nfs/bkarasulu/CARBON/AIRSS/Generating-Clusters/LCBOP/Higher-Symm/SD-CG/FIRE-CG
REM
REM
REM
REM
REM
REM ./C.cell (b20cbc046b6831c77cfcea5457e17084)
REM AIRSS Version 0.9.1 bugfix July 2018 build 013d7b7c2542+ Fri, 06 Jul 2018 19:26:36 +0100
REM compiler GCC version 9.2.1 20190827 (Red Hat 9.2.1-1)
REM options -cpp -mtune=generic -march=x86-64 -g -O0 -fpre-include=/usr/include/finclude/math-vector-fortran.h
REM seed 754065103 813607427 1222240374 -2133580153 -1984284001 313663413 -1411383413 -60643045 2056995997 -2074694467 523978256 1632903941 -586218562 -1253249008 1257453835 398286559 210225514 1747878055 -176310148 1725353488 -1504839663 -1940760970 -961750796 -845738178 1736081203 -1091049629 1459908898 -1225777766 1344519625 879543455 864447905 2032623303 188043068
REM
CELL 1.54180   50.00000   50.00000   50.00000   90.00000   90.00000   90.00000
LATT -1
SFAC C  
C      1  0.4470440000000  0.5005790000000  0.4812850000000 1.0
C      1  0.5262750000000  0.5483570000000  0.4869230000000 1.0
C      1  0.5294590000000  0.4520230000000  0.4848310000000 1.0
C      1  0.5520610000000  0.4985750000000  0.4804570000000 1.0
C      1  0.4767320000000  0.5463630000000  0.4784170000000 1.0
C      1  0.4742080000000  0.4540740000000  0.4809530000000 1.0
C      1  0.5852950000000  0.5667580000000  0.5148220000000 1.0
C      1  0.5142250000000  0.3934030000000  0.5139380000000 1.0
C      1  0.4014100000000  0.5406080000000  0.5419420000000 1.0
C      1  0.4169440000000  0.5641310000000  0.5426180000000 1.0
C      1  0.4858990000000  0.3942490000000  0.5129430000000 1.0
C      1  0.5985830000000  0.5417150000000  0.5135320000000 1.0
C      1  0.5259610000000  0.4589310000000  0.5616950000000 1.0
C      1  0.4494760000000  0.4989590000000  0.5612170000000 1.0
C      1  0.5230480000000  0.5442280000000  0.5626310000000 1.0
C      1  0.4725150000000  0.4615260000000  0.5587420000000 1.0
C      1  0.5475450000000  0.4975020000000  0.5609940000000 1.0
C      1  0.4782280000000  0.5441810000000  0.5654100000000 1.0
C      1  0.5124900000000  0.4727640000000  0.3835500000000 1.0
C      1  0.4716260000000  0.4978030000000  0.3836820000000 1.0
C      1  0.5138300000000  0.5205710000000  0.3820600000000 1.0
C      1  0.4847350000000  0.4733760000000  0.3743360000000 1.0
C      1  0.5265650000000  0.4959740000000  0.3727370000000 1.0
C      1  0.4860320000000  0.5208930000000  0.3729270000000 1.0
C      1  0.3926660000000  0.4537020000000  0.4669710000000 1.0
C      1  0.5128020000000  0.6187120000000  0.4692510000000 1.0
C      1  0.5974700000000  0.4302890000000  0.4694330000000 1.0
C      1  0.6092850000000  0.4546180000000  0.4684010000000 1.0
C      1  0.4857330000000  0.6180870000000  0.4692700000000 1.0
C      1  0.4063860000000  0.4303670000000  0.4668440000000 1.0
C      1  0.5316960000000  0.5758940000000  0.5269830000000 1.0
C      1  0.5490380000000  0.4349840000000  0.5262270000000 1.0
C      1  0.4191530000000  0.4901520000000  0.5244060000000 1.0
C      1  0.4692280000000  0.5720080000000  0.5257400000000 1.0
C      1  0.4523530000000  0.4370050000000  0.5236650000000 1.0
C      1  0.5780830000000  0.4912330000000  0.5242920000000 1.0
C      1  0.5152630000000  0.5259400000000  0.5859870000000 1.0
C      1  0.5136240000000  0.4742160000000  0.5840990000000 1.0
C      1  0.4694480000000  0.5008250000000  0.5850350000000 1.0
C      1  0.4846770000000  0.5267950000000  0.5886850000000 1.0
C      1  0.4844000000000  0.4750330000000  0.5825330000000 1.0
C      1  0.5290370000000  0.4999620000000  0.5845420000000 1.0
C      1  0.5831000000000  0.5203570000000  0.5265740000000 1.0
C      1  0.4750970000000  0.4180780000000  0.5263930000000 1.0
C      1  0.4416730000000  0.5613970000000  0.5272170000000 1.0
C      1  0.4140430000000  0.5196190000000  0.5261550000000 1.0
C      1  0.5254150000000  0.4166510000000  0.5280420000000 1.0
C      1  0.5593930000000  0.5647040000000  0.5286360000000 1.0
C      1  0.5665640000000  0.4787150000000  0.5482470000000 1.0
C      1  0.4464980000000  0.4532110000000  0.5474840000000 1.0
C      1  0.4851830000000  0.5694270000000  0.5506770000000 1.0
C      1  0.4312480000000  0.4786400000000  0.5483830000000 1.0
C      1  0.5525480000000  0.4524530000000  0.5495290000000 1.0
C      1  0.5151540000000  0.5705920000000  0.5507330000000 1.0
C      1  0.4858970000000  0.5250970000000  0.5451950000000 1.0
C      1  0.5275790000000  0.5006540000000  0.5376840000000 1.0
C      1  0.4826060000000  0.4778320000000  0.5344940000000 1.0
C      1  0.5146330000000  0.5263480000000  0.5385960000000 1.0
C      1  0.4683720000000  0.5041270000000  0.5365590000000 1.0
C      1  0.5139630000000  0.4738840000000  0.5382110000000 1.0
C      1  0.4592710000000  0.5167210000000  0.5113500000000 1.0
C      1  0.5143460000000  0.5319970000000  0.5092490000000 1.0
C      1  0.5176800000000  0.4665440000000  0.5080900000000 1.0
C      1  0.5297000000000  0.5000020000000  0.5005750000000 1.0
C      1  0.4859680000000  0.5252860000000  0.5004300000000 1.0
C      1  0.4879620000000  0.4721850000000  0.5023000000000 1.0
C      1  0.4470820000000  0.5478640000000  0.4701420000000 1.0
C      1  0.5670790000000  0.5242840000000  0.4757830000000 1.0
C      1  0.4881250000000  0.4280190000000  0.4751240000000 1.0
C      1  0.5551140000000  0.5481500000000  0.4807940000000 1.0
C      1  0.4332050000000  0.5241070000000  0.4686140000000 1.0
C      1  0.5153400000000  0.4268090000000  0.4770200000000 1.0
C      1  0.4839120000000  0.4715570000000  0.4549300000000 1.0
C      1  0.4866840000000  0.5271310000000  0.4535720000000 1.0
C      1  0.5328460000000  0.4981160000000  0.4546590000000 1.0
C      1  0.5180020000000  0.4710330000000  0.4616780000000 1.0
C      1  0.5171450000000  0.5270260000000  0.4610090000000 1.0
C      1  0.4754280000000  0.4989220000000  0.4657220000000 1.0
C      1  0.5144760000000  0.5213980000000  0.4114080000000 1.0
C      1  0.5130020000000  0.4738230000000  0.4129540000000 1.0
C      1  0.4722700000000  0.4986360000000  0.4130710000000 1.0
C      1  0.4869360000000  0.5225000000000  0.4237270000000 1.0
C      1  0.4852500000000  0.4743070000000  0.4251870000000 1.0
C      1  0.5284990000000  0.4976540000000  0.4238130000000 1.0
C      1  0.4831760000000  0.5738720000000  0.4964090000000 1.0
C      1  0.5721120000000  0.4786700000000  0.4957890000000 1.0
C      1  0.4460250000000  0.4495320000000  0.4949940000000 1.0
C      1  0.5177710000000  0.5763270000000  0.4980160000000 1.0
C      1  0.4293220000000  0.4784770000000  0.4952000000000 1.0
C      1  0.5573390000000  0.4465240000000  0.4973360000000 1.0
C      1  0.4302270000000  0.4286150000000  0.4794300000000 1.0
C      1  0.4722920000000  0.5982090000000  0.4817350000000 1.0
C      1  0.5979100000000  0.4760450000000  0.4803080000000 1.0
C      1  0.5740240000000  0.4269110000000  0.4825060000000 1.0
C      1  0.5271480000000  0.5996360000000  0.4820240000000 1.0
C      1  0.4027990000000  0.4752730000000  0.4796680000000 1.0
C      1  0.5626280000000  0.5372780000000  0.5398710000000 1.0
C      1  0.4378420000000  0.5344220000000  0.5166720000000 1.0
C      1  0.5000190000000  0.4271500000000  0.5399160000000 1.0
C      1  0.4930420000000  0.4986830000000  0.4903170000000 1.0
END
