TITL C-74080-5790-417 5.51105872377727e-08 125000 -343.198562852922 0 0 57 (C1) n - 1
REM
REM in /home/nfs/bkarasulu/CARBON/AIRSS/Generating-Clusters/LCBOP/Higher-Symm/SD-CG/FIRE-CG
REM
REM
REM
REM
REM
REM ./C.cell (b20cbc046b6831c77cfcea5457e17084)
REM AIRSS Version 0.9.1 bugfix July 2018 build 013d7b7c2542+ Fri, 06 Jul 2018 19:26:36 +0100
REM compiler GCC version 9.2.1 20190827 (Red Hat 9.2.1-1)
REM options -cpp -mtune=generic -march=x86-64 -g -O0 -fpre-include=/usr/include/finclude/math-vector-fortran.h
REM seed 1572178909 -1421788606 -1402246466 377352669 2000060630 -1540938830 -1608743986 -1071612038 1387792080 1648573882 -396507749 1710329822 -243027096 -1502093834 781234778 287736932 875810629 1671592497 1770026573 -1505795944 -130676977 990382781 326677416 596357374 -75085600 -560690499 760408806 966451651 307298494 -284387627 -1569004286 -288393813 895707449
REM
CELL 1.54180   50.00000   50.00000   50.00000   90.00000   90.00000   90.00000
LATT -1
SFAC C  
C      1  0.5343970000000  0.4637570000000  0.4709760000000 1.0
C      1  0.5184150000000  0.5281600000000  0.4869120000000 1.0
C      1  0.5494490000000  0.4856930000000  0.5430850000000 1.0
C      1  0.4629720000000  0.4744370000000  0.4713140000000 1.0
C      1  0.4715390000000  0.5397310000000  0.4835660000000 1.0
C      1  0.4794530000000  0.4936970000000  0.5386810000000 1.0
C      1  0.5361840000000  0.4648820000000  0.5279730000000 1.0
C      1  0.5102410000000  0.5308880000000  0.5159750000000 1.0
C      1  0.5457200000000  0.4850880000000  0.4556810000000 1.0
C      1  0.4627950000000  0.4726080000000  0.5292750000000 1.0
C      1  0.4627470000000  0.5382130000000  0.5141290000000 1.0
C      1  0.4802600000000  0.4949030000000  0.4612380000000 1.0
C      1  0.4681860000000  0.4473560000000  0.4660920000000 1.0
C      1  0.4693990000000  0.5590170000000  0.4626480000000 1.0
C      1  0.4848130000000  0.4935670000000  0.5663080000000 1.0
C      1  0.5238980000000  0.4395060000000  0.4615390000000 1.0
C      1  0.5214650000000  0.5547360000000  0.4721350000000 1.0
C      1  0.5390860000000  0.4984450000000  0.5663780000000 1.0
C      1  0.4677560000000  0.4460280000000  0.5360790000000 1.0
C      1  0.4668890000000  0.5591870000000  0.5363960000000 1.0
C      1  0.4829770000000  0.4957290000000  0.4330890000000 1.0
C      1  0.5246500000000  0.4411690000000  0.5381860000000 1.0
C      1  0.5195660000000  0.5540850000000  0.5291980000000 1.0
C      1  0.5372730000000  0.4961350000000  0.4311290000000 1.0
C      1  0.5621350000000  0.5014770000000  0.4721590000000 1.0
C      1  0.5595220000000  0.5231640000000  0.5149640000000 1.0
C      1  0.5887320000000  0.4871880000000  0.5112180000000 1.0
C      1  0.4233620000000  0.5030060000000  0.4746470000000 1.0
C      1  0.4337270000000  0.5291130000000  0.5128220000000 1.0
C      1  0.4401530000000  0.4816000000000  0.5150040000000 1.0
C      1  0.5695420000000  0.4999130000000  0.5281840000000 1.0
C      1  0.5475740000000  0.5195850000000  0.4891020000000 1.0
C      1  0.5858170000000  0.4904270000000  0.4840950000000 1.0
C      1  0.4282860000000  0.5048750000000  0.5270010000000 1.0
C      1  0.4215550000000  0.5275280000000  0.4868510000000 1.0
C      1  0.4398970000000  0.4823460000000  0.4859340000000 1.0
C      1  0.4796840000000  0.4239210000000  0.4763830000000 1.0
C      1  0.4863320000000  0.5591610000000  0.4394700000000 1.0
C      1  0.4948910000000  0.5147100000000  0.5815930000000 1.0
C      1  0.5083390000000  0.4206220000000  0.4754880000000 1.0
C      1  0.5149680000000  0.5596300000000  0.4450650000000 1.0
C      1  0.5234890000000  0.5187980000000  0.5788830000000 1.0
C      1  0.4800970000000  0.4234500000000  0.5251540000000 1.0
C      1  0.4838560000000  0.5580940000000  0.5600150000000 1.0
C      1  0.4944230000000  0.5159050000000  0.4172800000000 1.0
C      1  0.5089190000000  0.4214690000000  0.5252750000000 1.0
C      1  0.5126630000000  0.5604120000000  0.5556180000000 1.0
C      1  0.5232070000000  0.5180550000000  0.4199100000000 1.0
C      1  0.4805530000000  0.5411190000000  0.4179400000000 1.0
C      1  0.5308900000000  0.5449100000000  0.4262310000000 1.0
C      1  0.4789180000000  0.5387650000000  0.5806810000000 1.0
C      1  0.5290900000000  0.5466060000000  0.5747650000000 1.0
C      1  0.4684880000000  0.4139970000000  0.5007450000000 1.0
C      1  0.5189430000000  0.4110060000000  0.5004290000000 1.0
C      1  0.5343730000000  0.4672270000000  0.4995010000000 1.0
C      1  0.4850140000000  0.5174770000000  0.5236430000000 1.0
C      1  0.4905710000000  0.5174300000000  0.4759710000000 1.0
END
