TITL C-74086-5274-2 15073.9264398725 125000 -1052.44425161446 0 0 180 (T23) n - 1
REM
REM in /home/nfs/bkarasulu/CARBON/AIRSS/Generating-Clusters/LCBOP/Higher-Symm/SD-CG/FIRE-CG
REM
REM
REM
REM
REM
REM ./C.cell (b20cbc046b6831c77cfcea5457e17084)
REM AIRSS Version 0.9.1 bugfix July 2018 build 013d7b7c2542+ Fri, 06 Jul 2018 19:26:36 +0100
REM compiler GCC version 9.2.1 20190827 (Red Hat 9.2.1-1)
REM options -cpp -mtune=generic -march=x86-64 -g -O0 -fpre-include=/usr/include/finclude/math-vector-fortran.h
REM seed 664191678 -134720227 -352264606 1662156998 273884133 1604325006 753650775 -1416161914 -318659674 -1979842807 -374092207 1512718703 1379434964 -302102096 -1326540766 1637689158 -1132745082 -116757876 -1874196326 1817298703 401874092 466489809 -431378310 1140809780 -1964187354 -472202720 855970418 542619731 1817075629 212721045 2087165663 456726820 -1023874824
REM
CELL 1.54180   50.00000   50.00000   50.00000   90.00000   90.00000   90.00000
LATT -1
SFAC C  
C      1  0.5627040000000  0.4018600000000  0.4838330000000 1.0
C      1  0.4018600000000  0.4838330000000  0.5627040000000 1.0
C      1  0.4838340000000  0.5627060000000  0.4018590000000 1.0
C      1  0.5627030000000  0.5981410000000  0.5161670000000 1.0
C      1  0.4372960000000  0.4018590000000  0.5161650000000 1.0
C      1  0.4372950000000  0.5981410000000  0.4838350000000 1.0
C      1  0.4018600000000  0.5161660000000  0.4372950000000 1.0
C      1  0.5981410000000  0.4838350000000  0.4372970000000 1.0
C      1  0.5981410000000  0.5161660000000  0.5627040000000 1.0
C      1  0.4838340000000  0.4372940000000  0.5981410000000 1.0
C      1  0.5161660000000  0.5627020000000  0.5981410000000 1.0
C      1  0.5161660000000  0.4372980000000  0.4018600000000 1.0
C      1  0.5564170000000  0.4813990000000  0.4005310000000 1.0
C      1  0.4005300000000  0.5564150000000  0.4813970000000 1.0
C      1  0.4813970000000  0.4005280000000  0.5564160000000 1.0
C      1  0.5564170000000  0.5186010000000  0.5994700000000 1.0
C      1  0.4435840000000  0.5186040000000  0.4005290000000 1.0
C      1  0.4435840000000  0.4813960000000  0.5994700000000 1.0
C      1  0.4005300000000  0.4435830000000  0.5186020000000 1.0
C      1  0.5994700000000  0.4435840000000  0.4813980000000 1.0
C      1  0.5994700000000  0.5564170000000  0.5186020000000 1.0
C      1  0.4813970000000  0.5994720000000  0.4435840000000 1.0
C      1  0.5186010000000  0.5994690000000  0.5564170000000 1.0
C      1  0.5186020000000  0.4005320000000  0.4435840000000 1.0
C      1  0.4097360000000  0.5065700000000  0.5769040000000 1.0
C      1  0.5065710000000  0.5769070000000  0.4097360000000 1.0
C      1  0.5769040000000  0.4097350000000  0.5065700000000 1.0
C      1  0.4097370000000  0.4934290000000  0.4230950000000 1.0
C      1  0.5902650000000  0.5065720000000  0.4230970000000 1.0
C      1  0.5902650000000  0.4934290000000  0.5769040000000 1.0
C      1  0.5065710000000  0.4230940000000  0.5902640000000 1.0
C      1  0.4934290000000  0.5769020000000  0.5902650000000 1.0
C      1  0.4934290000000  0.4230980000000  0.4097350000000 1.0
C      1  0.5769030000000  0.5902660000000  0.4934300000000 1.0
C      1  0.4230960000000  0.4097360000000  0.4934280000000 1.0
C      1  0.4230960000000  0.5902630000000  0.5065720000000 1.0
C      1  0.4081710000000  0.5678900000000  0.5069390000000 1.0
C      1  0.5069390000000  0.4081690000000  0.5678910000000 1.0
C      1  0.5678920000000  0.5069400000000  0.4081710000000 1.0
C      1  0.4081710000000  0.4321090000000  0.4930610000000 1.0
C      1  0.5918300000000  0.4321080000000  0.5069390000000 1.0
C      1  0.5918290000000  0.5678930000000  0.4930620000000 1.0
C      1  0.5069380000000  0.5918310000000  0.4321090000000 1.0
C      1  0.4930610000000  0.5918280000000  0.5678920000000 1.0
C      1  0.4930610000000  0.4081730000000  0.4321080000000 1.0
C      1  0.5678920000000  0.4930600000000  0.5918290000000 1.0
C      1  0.4321100000000  0.4930620000000  0.4081700000000 1.0
C      1  0.4321090000000  0.5069370000000  0.5918290000000 1.0
C      1  0.4929440000000  0.5401670000000  0.4436070000000 1.0
C      1  0.5401650000000  0.4436070000000  0.4929450000000 1.0
C      1  0.4436070000000  0.4929430000000  0.5401650000000 1.0
C      1  0.4929440000000  0.4598320000000  0.5563940000000 1.0
C      1  0.5070560000000  0.5401640000000  0.5563920000000 1.0
C      1  0.5070560000000  0.4598370000000  0.4436080000000 1.0
C      1  0.5401650000000  0.5563930000000  0.5070550000000 1.0
C      1  0.4598340000000  0.4436070000000  0.5070560000000 1.0
C      1  0.4598340000000  0.5563930000000  0.4929440000000 1.0
C      1  0.4436070000000  0.5070570000000  0.4598340000000 1.0
C      1  0.5563930000000  0.4929460000000  0.4598350000000 1.0
C      1  0.5563930000000  0.5070550000000  0.5401660000000 1.0
C      1  0.5019330000000  0.4436610000000  0.5328380000000 1.0
C      1  0.5328370000000  0.5019350000000  0.4436630000000 1.0
C      1  0.4436630000000  0.5328370000000  0.5019330000000 1.0
C      1  0.5019330000000  0.5563380000000  0.4671630000000 1.0
C      1  0.4980660000000  0.5563360000000  0.5328370000000 1.0
C      1  0.4980660000000  0.4436640000000  0.4671630000000 1.0
C      1  0.5328370000000  0.4980650000000  0.5563380000000 1.0
C      1  0.4671620000000  0.4980680000000  0.4436630000000 1.0
C      1  0.4671630000000  0.5019310000000  0.5563360000000 1.0
C      1  0.4436630000000  0.4671620000000  0.4980670000000 1.0
C      1  0.5563360000000  0.4671630000000  0.5019340000000 1.0
C      1  0.5563370000000  0.5328380000000  0.4980670000000 1.0
C      1  0.4541560000000  0.5759710000000  0.5251260000000 1.0
C      1  0.5759650000000  0.5251270000000  0.4541510000000 1.0
C      1  0.5251260000000  0.4541530000000  0.5759700000000 1.0
C      1  0.4541560000000  0.4240290000000  0.4748740000000 1.0
C      1  0.5458470000000  0.5759680000000  0.4748750000000 1.0
C      1  0.5458440000000  0.4240290000000  0.5251250000000 1.0
C      1  0.5759730000000  0.4748740000000  0.5458430000000 1.0
C      1  0.4240320000000  0.5251240000000  0.5458450000000 1.0
C      1  0.4240310000000  0.4748750000000  0.4541540000000 1.0
C      1  0.5251260000000  0.5458470000000  0.4240300000000 1.0
C      1  0.4748750000000  0.4541580000000  0.4240300000000 1.0
C      1  0.4748730000000  0.5458590000000  0.5759470000000 1.0
C      1  0.4527820000000  0.5267350000000  0.5679000000000 1.0
C      1  0.5679040000000  0.4527820000000  0.5267380000000 1.0
C      1  0.5267370000000  0.5679040000000  0.4527840000000 1.0
C      1  0.4527840000000  0.4732650000000  0.4320980000000 1.0
C      1  0.5472160000000  0.4732610000000  0.5679040000000 1.0
C      1  0.5472230000000  0.5267380000000  0.4321020000000 1.0
C      1  0.5679010000000  0.5472220000000  0.4732630000000 1.0
C      1  0.4320980000000  0.5472140000000  0.5267360000000 1.0
C      1  0.4320970000000  0.4527850000000  0.4732630000000 1.0
C      1  0.5267370000000  0.4320960000000  0.5472170000000 1.0
C      1  0.4732630000000  0.4320990000000  0.4527830000000 1.0
C      1  0.4732660000000  0.5678850000000  0.5472350000000 1.0
C      1  0.6112820000000  0.5101860000000  0.5377200000000 1.0
C      1  0.5101870000000  0.5377180000000  0.6112810000000 1.0
C      1  0.5377200000000  0.6112820000000  0.5101870000000 1.0
C      1  0.6112820000000  0.4898140000000  0.4622800000000 1.0
C      1  0.3887190000000  0.5101860000000  0.4622780000000 1.0
C      1  0.3887190000000  0.4898130000000  0.5377210000000 1.0
C      1  0.5101870000000  0.4622820000000  0.3887190000000 1.0
C      1  0.4898150000000  0.5377230000000  0.3887180000000 1.0
C      1  0.4898140000000  0.4622770000000  0.6112820000000 1.0
C      1  0.5377210000000  0.3887180000000  0.4898130000000 1.0
C      1  0.4622790000000  0.6112810000000  0.4898150000000 1.0
C      1  0.4622790000000  0.3887180000000  0.5101850000000 1.0
C      1  0.6089950000000  0.5293770000000  0.5167600000000 1.0
C      1  0.5167590000000  0.6089950000000  0.5293770000000 1.0
C      1  0.5293770000000  0.5167580000000  0.6089960000000 1.0
C      1  0.6089950000000  0.4706240000000  0.4832400000000 1.0
C      1  0.3910040000000  0.4706230000000  0.5167600000000 1.0
C      1  0.3910040000000  0.5293760000000  0.4832390000000 1.0
C      1  0.5167600000000  0.3910050000000  0.4706230000000 1.0
C      1  0.4832400000000  0.3910030000000  0.5293750000000 1.0
C      1  0.4832390000000  0.6089970000000  0.4706250000000 1.0
C      1  0.5293770000000  0.4832420000000  0.3910040000000 1.0
C      1  0.4706240000000  0.4832380000000  0.6089950000000 1.0
C      1  0.4706250000000  0.5167620000000  0.3910040000000 1.0
C      1  0.5307190000000  0.5999110000000  0.4844810000000 1.0
C      1  0.5999100000000  0.4844810000000  0.5307190000000 1.0
C      1  0.4844810000000  0.5307170000000  0.5999090000000 1.0
C      1  0.5307200000000  0.4000890000000  0.5155190000000 1.0
C      1  0.4692800000000  0.5999090000000  0.5155200000000 1.0
C      1  0.4692800000000  0.4000910000000  0.4844800000000 1.0
C      1  0.5999100000000  0.5155200000000  0.4692810000000 1.0
C      1  0.4000900000000  0.4844800000000  0.4692790000000 1.0
C      1  0.4000910000000  0.5155190000000  0.5307200000000 1.0
C      1  0.4844810000000  0.4692830000000  0.4000900000000 1.0
C      1  0.5155210000000  0.5307230000000  0.4000900000000 1.0
C      1  0.5155200000000  0.4692780000000  0.5999110000000 1.0
C      1  0.5201230000000  0.4955560000000  0.5935680000000 1.0
C      1  0.5935660000000  0.5201230000000  0.4955590000000 1.0
C      1  0.4955560000000  0.5935630000000  0.5201250000000 1.0
C      1  0.5201240000000  0.5044450000000  0.4064330000000 1.0
C      1  0.4798790000000  0.5044390000000  0.5935660000000 1.0
C      1  0.4798790000000  0.4955610000000  0.4064330000000 1.0
C      1  0.5935660000000  0.4798780000000  0.5044410000000 1.0
C      1  0.4064320000000  0.4798770000000  0.4955580000000 1.0
C      1  0.4064310000000  0.5201210000000  0.5044410000000 1.0
C      1  0.4955590000000  0.4064350000000  0.4798780000000 1.0
C      1  0.5044420000000  0.4064310000000  0.5201220000000 1.0
C      1  0.5044410000000  0.5935680000000  0.4798780000000 1.0
C      1  0.4272830000000  0.4686800000000  0.5542030000000 1.0
C      1  0.4686810000000  0.5542050000000  0.4272820000000 1.0
C      1  0.5542020000000  0.4272840000000  0.4686820000000 1.0
C      1  0.4272830000000  0.5313190000000  0.4457960000000 1.0
C      1  0.5727170000000  0.4686830000000  0.4457980000000 1.0
C      1  0.5727170000000  0.5313180000000  0.5542020000000 1.0
C      1  0.4686810000000  0.4457950000000  0.5727170000000 1.0
C      1  0.5313180000000  0.5542010000000  0.5727170000000 1.0
C      1  0.5313190000000  0.4457990000000  0.4272840000000 1.0
C      1  0.5542020000000  0.5727170000000  0.5313190000000 1.0
C      1  0.4457970000000  0.4272820000000  0.5313190000000 1.0
C      1  0.4457970000000  0.5727180000000  0.4686810000000 1.0
C      1  0.4216830000000  0.5561340000000  0.4618680000000 1.0
C      1  0.4618680000000  0.4216810000000  0.5561330000000 1.0
C      1  0.5561340000000  0.4618700000000  0.4216840000000 1.0
C      1  0.4216830000000  0.4438650000000  0.5381320000000 1.0
C      1  0.5783170000000  0.4438670000000  0.4618690000000 1.0
C      1  0.5783170000000  0.5561330000000  0.5381310000000 1.0
C      1  0.4618680000000  0.5783180000000  0.4438660000000 1.0
C      1  0.5381310000000  0.5783160000000  0.5561340000000 1.0
C      1  0.5381310000000  0.4216850000000  0.4438670000000 1.0
C      1  0.5561340000000  0.5381300000000  0.5783170000000 1.0
C      1  0.4438670000000  0.5381330000000  0.4216820000000 1.0
C      1  0.4438670000000  0.4618670000000  0.5783170000000 1.0
C      1  0.4908540000000  0.4607410000000  0.5118260000000 1.0
C      1  0.4607410000000  0.5118250000000  0.4908540000000 1.0
C      1  0.5118240000000  0.4908550000000  0.4607410000000 1.0
C      1  0.5091450000000  0.5392590000000  0.5118240000000 1.0
C      1  0.4607400000000  0.4881750000000  0.5091450000000 1.0
C      1  0.5392580000000  0.5118250000000  0.5091460000000 1.0
C      1  0.5392580000000  0.4881750000000  0.4908540000000 1.0
C      1  0.5118240000000  0.5091450000000  0.5392590000000 1.0
C      1  0.4881740000000  0.5091460000000  0.4607410000000 1.0
C      1  0.5091450000000  0.4607420000000  0.4881760000000 1.0
C      1  0.4908540000000  0.5392590000000  0.4881750000000 1.0
C      1  0.4881750000000  0.4908530000000  0.5392580000000 1.0
END
