TITL C-74085-4933-235 -11758.4819789994 125000 -1130.34033293025 0 0 185 (C1) n - 1
REM
REM in /home/nfs/bkarasulu/CARBON/AIRSS/Generating-Clusters/LCBOP/Higher-Symm/SD-CG/FIRE-CG
REM
REM
REM
REM
REM
REM ./C.cell (b20cbc046b6831c77cfcea5457e17084)
REM AIRSS Version 0.9.1 bugfix July 2018 build 013d7b7c2542+ Fri, 06 Jul 2018 19:26:36 +0100
REM compiler GCC version 9.2.1 20190827 (Red Hat 9.2.1-1)
REM options -cpp -mtune=generic -march=x86-64 -g -O0 -fpre-include=/usr/include/finclude/math-vector-fortran.h
REM seed -958567180 -1233108238 -961562315 1762570177 1523648574 -1354923260 -394558576 580618727 105656813 1525436367 377024822 -1027729007 1357933635 -489666687 2110081357 -2019137839 -2057485776 308877051 372765412 1082687163 -1990981655 -1766462984 -2114119309 -812092145 -574340499 1157170635 -48727094 -1313727600 -1544821757 -1230720176 322114821 1553131943 1980814444
REM
CELL 1.54180   50.00000   50.00000   50.00000   90.00000   90.00000   90.00000
LATT -1
SFAC C  
C      1  0.3995820000000  0.4835260000000  0.5054300000000 1.0
C      1  0.3993030000000  0.5103580000000  0.4942230000000 1.0
C      1  0.5604470000000  0.4882720000000  0.5187170000000 1.0
C      1  0.5688120000000  0.5297770000000  0.4768110000000 1.0
C      1  0.5282650000000  0.5175200000000  0.6081880000000 1.0
C      1  0.5241240000000  0.4816010000000  0.3887280000000 1.0
C      1  0.4994340000000  0.5922180000000  0.5546030000000 1.0
C      1  0.4961490000000  0.4119550000000  0.4441950000000 1.0
C      1  0.5425770000000  0.6010860000000  0.4477360000000 1.0
C      1  0.5426450000000  0.4034560000000  0.5577540000000 1.0
C      1  0.4263630000000  0.5112550000000  0.4536400000000 1.0
C      1  0.4307220000000  0.4859980000000  0.5436000000000 1.0
C      1  0.4828870000000  0.5885700000000  0.5790290000000 1.0
C      1  0.4813430000000  0.4104030000000  0.4189500000000 1.0
C      1  0.4493160000000  0.5258560000000  0.5274830000000 1.0
C      1  0.4366320000000  0.4647980000000  0.4651440000000 1.0
C      1  0.4635770000000  0.3890050000000  0.4781130000000 1.0
C      1  0.4615090000000  0.6075490000000  0.5232790000000 1.0
C      1  0.3837480000000  0.5325390000000  0.5339320000000 1.0
C      1  0.3764530000000  0.4609880000000  0.4702580000000 1.0
C      1  0.5761170000000  0.4131930000000  0.4695770000000 1.0
C      1  0.5825670000000  0.5970230000000  0.5527980000000 1.0
C      1  0.5344190000000  0.4573020000000  0.4002110000000 1.0
C      1  0.5384100000000  0.5430150000000  0.5979080000000 1.0
C      1  0.5776160000000  0.4525220000000  0.4306300000000 1.0
C      1  0.5854980000000  0.5465060000000  0.5700650000000 1.0
C      1  0.4795640000000  0.4828690000000  0.4301160000000 1.0
C      1  0.4770220000000  0.5196510000000  0.5708060000000 1.0
C      1  0.5119950000000  0.4882670000000  0.5638690000000 1.0
C      1  0.5327270000000  0.5052540000000  0.4367540000000 1.0
C      1  0.4402830000000  0.3977270000000  0.5193560000000 1.0
C      1  0.4325330000000  0.5973240000000  0.4833540000000 1.0
C      1  0.5354790000000  0.4508860000000  0.5782750000000 1.0
C      1  0.5223310000000  0.5578050000000  0.4300920000000 1.0
C      1  0.5376990000000  0.6170340000000  0.4714430000000 1.0
C      1  0.5304350000000  0.3812750000000  0.5440340000000 1.0
C      1  0.6072580000000  0.4416660000000  0.5394510000000 1.0
C      1  0.6028290000000  0.5504350000000  0.4417350000000 1.0
C      1  0.4709400000000  0.5681970000000  0.3970470000000 1.0
C      1  0.4730900000000  0.4353710000000  0.6055140000000 1.0
C      1  0.5650150000000  0.5379890000000  0.5883370000000 1.0
C      1  0.5611490000000  0.4611330000000  0.4088310000000 1.0
C      1  0.4816970000000  0.5753060000000  0.4812650000000 1.0
C      1  0.4942750000000  0.4199200000000  0.5189680000000 1.0
C      1  0.4850690000000  0.4868290000000  0.4760760000000 1.0
C      1  0.4948800000000  0.5385350000000  0.5328130000000 1.0
C      1  0.4437680000000  0.5943840000000  0.4318350000000 1.0
C      1  0.4521380000000  0.4045810000000  0.5701300000000 1.0
C      1  0.4263300000000  0.5902200000000  0.4551810000000 1.0
C      1  0.4340510000000  0.4059230000000  0.5472280000000 1.0
C      1  0.3842470000000  0.5550760000000  0.4468390000000 1.0
C      1  0.3921960000000  0.4408820000000  0.5557650000000 1.0
C      1  0.5284020000000  0.3903380000000  0.4964250000000 1.0
C      1  0.5530640000000  0.6247870000000  0.5188280000000 1.0
C      1  0.5373130000000  0.5341920000000  0.4389420000000 1.0
C      1  0.5319020000000  0.4700080000000  0.5563300000000 1.0
C      1  0.4672900000000  0.4504180000000  0.5471620000000 1.0
C      1  0.4954730000000  0.5527320000000  0.4405460000000 1.0
C      1  0.4386790000000  0.4194060000000  0.4439060000000 1.0
C      1  0.4432530000000  0.5705240000000  0.5543320000000 1.0
C      1  0.5471950000000  0.4952080000000  0.5997030000000 1.0
C      1  0.5448270000000  0.5036060000000  0.3934790000000 1.0
C      1  0.4574680000000  0.4573140000000  0.3844190000000 1.0
C      1  0.4625530000000  0.5406290000000  0.6174040000000 1.0
C      1  0.4747580000000  0.5392290000000  0.3950130000000 1.0
C      1  0.4788850000000  0.4632600000000  0.6036920000000 1.0
C      1  0.4568220000000  0.5766100000000  0.5791740000000 1.0
C      1  0.4540020000000  0.4176270000000  0.4190380000000 1.0
C      1  0.3619820000000  0.5060530000000  0.4474350000000 1.0
C      1  0.3694250000000  0.4891180000000  0.5584120000000 1.0
C      1  0.4382090000000  0.4799180000000  0.5711140000000 1.0
C      1  0.4340870000000  0.5222300000000  0.4282070000000 1.0
C      1  0.4864050000000  0.4292220000000  0.5438310000000 1.0
C      1  0.4852010000000  0.5763900000000  0.4534880000000 1.0
C      1  0.5898080000000  0.5726410000000  0.5617130000000 1.0
C      1  0.5756080000000  0.4277330000000  0.4442100000000 1.0
C      1  0.6062410000000  0.4935030000000  0.5418850000000 1.0
C      1  0.6068150000000  0.5024050000000  0.4559340000000 1.0
C      1  0.5078550000000  0.6091280000000  0.5092540000000 1.0
C      1  0.4886400000000  0.3706380000000  0.5176820000000 1.0
C      1  0.4643820000000  0.4773150000000  0.5831750000000 1.0
C      1  0.4591770000000  0.5240860000000  0.4147070000000 1.0
C      1  0.5074410000000  0.4107900000000  0.4974570000000 1.0
C      1  0.5041320000000  0.5847710000000  0.4955300000000 1.0
C      1  0.5117810000000  0.4941310000000  0.4778600000000 1.0
C      1  0.5157510000000  0.5225370000000  0.5284360000000 1.0
C      1  0.5258690000000  0.5671470000000  0.4974350000000 1.0
C      1  0.5475090000000  0.4303330000000  0.4986600000000 1.0
C      1  0.4395560000000  0.4035580000000  0.4694810000000 1.0
C      1  0.4408750000000  0.5881010000000  0.5314830000000 1.0
C      1  0.5742190000000  0.5629450000000  0.5084920000000 1.0
C      1  0.5904450000000  0.4541150000000  0.4947520000000 1.0
C      1  0.4808960000000  0.4699090000000  0.4534900000000 1.0
C      1  0.4837200000000  0.5411360000000  0.5567710000000 1.0
C      1  0.4020410000000  0.5753780000000  0.4500530000000 1.0
C      1  0.4095620000000  0.4203890000000  0.5521220000000 1.0
C      1  0.5946350000000  0.5124420000000  0.5601240000000 1.0
C      1  0.5910040000000  0.4870080000000  0.4370360000000 1.0
C      1  0.3636680000000  0.4799320000000  0.4554560000000 1.0
C      1  0.3710690000000  0.5152440000000  0.5505650000000 1.0
C      1  0.5681160000000  0.4906170000000  0.4090720000000 1.0
C      1  0.5693260000000  0.5082000000000  0.5853270000000 1.0
C      1  0.5412760000000  0.5305190000000  0.5367370000000 1.0
C      1  0.5328830000000  0.4838290000000  0.4586680000000 1.0
C      1  0.5186960000000  0.4644130000000  0.5107200000000 1.0
C      1  0.5220750000000  0.5429200000000  0.4833250000000 1.0
C      1  0.5754140000000  0.4501560000000  0.5907080000000 1.0
C      1  0.6692150000000  0.5255690000000  0.4278110000000 1.0
C      1  0.4890180000000  0.5276990000000  0.4509690000000 1.0
C      1  0.4754500000000  0.4783100000000  0.5366290000000 1.0
C      1  0.4003860000000  0.5339890000000  0.5108980000000 1.0
C      1  0.3957200000000  0.4583000000000  0.4912010000000 1.0
C      1  0.4747050000000  0.4155000000000  0.5851130000000 1.0
C      1  0.4683750000000  0.5910670000000  0.4155030000000 1.0
C      1  0.4831200000000  0.4917550000000  0.5637420000000 1.0
C      1  0.4778640000000  0.5106240000000  0.4316350000000 1.0
C      1  0.5528330000000  0.4048030000000  0.4865060000000 1.0
C      1  0.5695540000000  0.6153620000000  0.5379410000000 1.0
C      1  0.4398300000000  0.5423530000000  0.5489360000000 1.0
C      1  0.4281600000000  0.4460990000000  0.4462410000000 1.0
C      1  0.5688720000000  0.5910910000000  0.4437880000000 1.0
C      1  0.5699050000000  0.4081650000000  0.5522070000000 1.0
C      1  0.5753720000000  0.5347200000000  0.5035400000000 1.0
C      1  0.5724590000000  0.4760120000000  0.4956590000000 1.0
C      1  0.4700760000000  0.4520290000000  0.4991230000000 1.0
C      1  0.4726450000000  0.5491060000000  0.4901030000000 1.0
C      1  0.5882300000000  0.5728190000000  0.4412260000000 1.0
C      1  0.5920680000000  0.4195940000000  0.5425510000000 1.0
C      1  0.4177430000000  0.4385300000000  0.4964950000000 1.0
C      1  0.4218230000000  0.5525600000000  0.5034630000000 1.0
C      1  0.5282040000000  0.5275420000000  0.3878700000000 1.0
C      1  0.5311110000000  0.4692700000000  0.6015720000000 1.0
C      1  0.5949970000000  0.5795100000000  0.5026870000000 1.0
C      1  0.5946970000000  0.4288280000000  0.4857780000000 1.0
C      1  0.5240020000000  0.5742080000000  0.5597890000000 1.0
C      1  0.5162940000000  0.4340230000000  0.4417460000000 1.0
C      1  0.4488050000000  0.5406880000000  0.5028150000000 1.0
C      1  0.4433690000000  0.4515250000000  0.4899880000000 1.0
C      1  0.5262910000000  0.4234130000000  0.5715050000000 1.0
C      1  0.5221340000000  0.5887090000000  0.4308140000000 1.0
C      1  0.3803610000000  0.5274020000000  0.4521680000000 1.0
C      1  0.3868580000000  0.4681810000000  0.5501690000000 1.0
C      1  0.5184520000000  0.3738560000000  0.5189940000000 1.0
C      1  0.5322320000000  0.6213850000000  0.4998210000000 1.0
C      1  0.4978600000000  0.4929950000000  0.3822580000000 1.0
C      1  0.5033670000000  0.5058490000000  0.6172940000000 1.0
C      1  0.5288490000000  0.4486940000000  0.4895240000000 1.0
C      1  0.5475360000000  0.5701780000000  0.5158390000000 1.0
C      1  0.4247280000000  0.5806090000000  0.5070570000000 1.0
C      1  0.4255590000000  0.4105760000000  0.4956210000000 1.0
C      1  0.5242370000000  0.5655870000000  0.5883570000000 1.0
C      1  0.5193040000000  0.4374960000000  0.4124480000000 1.0
C      1  0.5387510000000  0.4729880000000  0.5294930000000 1.0
C      1  0.5440480000000  0.5365270000000  0.4663950000000 1.0
C      1  0.4978490000000  0.4197120000000  0.5681980000000 1.0
C      1  0.4922480000000  0.5954570000000  0.4325670000000 1.0
C      1  0.4895910000000  0.6072590000000  0.5316620000000 1.0
C      1  0.4867670000000  0.3934980000000  0.4629380000000 1.0
C      1  0.4985900000000  0.5231750000000  0.3851450000000 1.0
C      1  0.5035870000000  0.4764680000000  0.6119840000000 1.0
C      1  0.6179330000000  0.5268190000000  0.4447890000000 1.0
C      1  0.6058060000000  0.4664930000000  0.5527380000000 1.0
C      1  0.5947130000000  0.4630300000000  0.5786040000000 1.0
C      1  0.6446640000000  0.5265360000000  0.4364970000000 1.0
C      1  0.4477480000000  0.4361890000000  0.3980680000000 1.0
C      1  0.4519560000000  0.5600540000000  0.6019960000000 1.0
C      1  0.6135250000000  0.4980400000000  0.5132320000000 1.0
C      1  0.6129060000000  0.4987150000000  0.4851880000000 1.0
C      1  0.5016190000000  0.5794610000000  0.5994490000000 1.0
C      1  0.5000190000000  0.4207310000000  0.3996940000000 1.0
C      1  0.4639460000000  0.3827250000000  0.5072300000000 1.0
C      1  0.4524590000000  0.6152390000000  0.4957740000000 1.0
C      1  0.4021670000000  0.5166810000000  0.4666280000000 1.0
C      1  0.4061800000000  0.4795570000000  0.5325240000000 1.0
C      1  0.4410240000000  0.4923790000000  0.4683680000000 1.0
C      1  0.4534210000000  0.4961690000000  0.5249380000000 1.0
C      1  0.4944370000000  0.5325290000000  0.4790650000000 1.0
C      1  0.4910410000000  0.4671890000000  0.5139110000000 1.0
C      1  0.4809160000000  0.5218400000000  0.6231580000000 1.0
C      1  0.4751630000000  0.4766550000000  0.3784630000000 1.0
C      1  0.5404580000000  0.5596850000000  0.5415760000000 1.0
C      1  0.5257160000000  0.4532850000000  0.4606240000000 1.0
C      1  0.5597140000000  0.4832020000000  0.4716710000000 1.0
C      1  0.5623340000000  0.5171780000000  0.5225740000000 1.0
C      1  0.4608080000000  0.4956560000000  0.4891760000000 1.0
END
