TITL C-74083-3671-176 46699.6991784845 125000 -920.453361299673 0 0 159 (C3h) n - 1
REM
REM in /home/nfs/bkarasulu/CARBON/AIRSS/Generating-Clusters/LCBOP/Higher-Symm/SD-CG/FIRE-CG
REM
REM
REM
REM
REM
REM ./C.cell (b20cbc046b6831c77cfcea5457e17084)
REM AIRSS Version 0.9.1 bugfix July 2018 build 013d7b7c2542+ Fri, 06 Jul 2018 19:26:36 +0100
REM compiler GCC version 9.2.1 20190827 (Red Hat 9.2.1-1)
REM options -cpp -mtune=generic -march=x86-64 -g -O0 -fpre-include=/usr/include/finclude/math-vector-fortran.h
REM seed -1425626393 605807103 -1293224652 -1673223325 228090836 -1821967860 710652405 367809202 474748981 579477080 -840363867 -2044391621 -137616668 2123266677 -768234841 1450208247 677666767 -340682047 -542642058 132172534 1203766330 -954229029 -155466308 1436771574 -885421271 2044749595 -1369776160 872896133 1445678874 -946935077 -1045287556 -34613772 -229067365
REM
CELL 1.54180   50.00000   50.00000   50.00000   90.00000   90.00000   90.00000
LATT -1
SFAC C  
C      1  0.4862530000000  0.6148400000000  0.4807190000000 1.0
C      1  0.4862230000000  0.4592860000000  0.6090810000000 1.0
C      1  0.4861710000000  0.4259850000000  0.4101990000000 1.0
C      1  0.5146880000000  0.6147730000000  0.4807970000000 1.0
C      1  0.5146600000000  0.4592380000000  0.6090120000000 1.0
C      1  0.5146070000000  0.4258790000000  0.4101950000000 1.0
C      1  0.4859830000000  0.6145290000000  0.5198090000000 1.0
C      1  0.4861040000000  0.4597110000000  0.3911060000000 1.0
C      1  0.4859810000000  0.4255850000000  0.5892690000000 1.0
C      1  0.5147480000000  0.6144570000000  0.5195570000000 1.0
C      1  0.5148670000000  0.4598840000000  0.3909040000000 1.0
C      1  0.5147430000000  0.4258340000000  0.5893580000000 1.0
C      1  0.6084710000000  0.4752130000000  0.5165030000000 1.0
C      1  0.6084730000000  0.4980800000000  0.4702750000000 1.0
C      1  0.6084440000000  0.5266730000000  0.5131980000000 1.0
C      1  0.3923770000000  0.4752250000000  0.5165100000000 1.0
C      1  0.3923800000000  0.4981120000000  0.4702950000000 1.0
C      1  0.3923520000000  0.5267000000000  0.5132170000000 1.0
C      1  0.6100190000000  0.4742630000000  0.4875720000000 1.0
C      1  0.6099970000000  0.5021170000000  0.5284720000000 1.0
C      1  0.6100160000000  0.5235970000000  0.4839260000000 1.0
C      1  0.3908310000000  0.4742930000000  0.4875970000000 1.0
C      1  0.3908120000000  0.5021050000000  0.5284940000000 1.0
C      1  0.3908320000000  0.5236290000000  0.4839350000000 1.0
C      1  0.4842550000000  0.5800830000000  0.4419020000000 1.0
C      1  0.4841200000000  0.5102800000000  0.5983630000000 1.0
C      1  0.4842520000000  0.4096470000000  0.4597010000000 1.0
C      1  0.5167130000000  0.5800370000000  0.4419150000000 1.0
C      1  0.5165650000000  0.5102720000000  0.5983850000000 1.0
C      1  0.5167050000000  0.4096800000000  0.4597260000000 1.0
C      1  0.4840490000000  0.5785030000000  0.5568890000000 1.0
C      1  0.4840770000000  0.5099980000000  0.4035690000000 1.0
C      1  0.4840760000000  0.4114950000000  0.5395230000000 1.0
C      1  0.5167760000000  0.5785640000000  0.5569230000000 1.0
C      1  0.5167980000000  0.5100280000000  0.4035000000000 1.0
C      1  0.5167860000000  0.4114110000000  0.5396000000000 1.0
C      1  0.5370940000000  0.4753690000000  0.4323800000000 1.0
C      1  0.5370240000000  0.5707800000000  0.5124600000000 1.0
C      1  0.5371360000000  0.4537770000000  0.5551010000000 1.0
C      1  0.4637280000000  0.4754010000000  0.4324610000000 1.0
C      1  0.4636640000000  0.5708880000000  0.5124880000000 1.0
C      1  0.4637590000000  0.4537840000000  0.5551080000000 1.0
C      1  0.5368460000000  0.4774820000000  0.5678230000000 1.0
C      1  0.5368440000000  0.5699700000000  0.4855700000000 1.0
C      1  0.5368600000000  0.4524800000000  0.4465080000000 1.0
C      1  0.4639680000000  0.4774550000000  0.5678830000000 1.0
C      1  0.4639800000000  0.5700880000000  0.4855990000000 1.0
C      1  0.4639900000000  0.4525250000000  0.4466170000000 1.0
C      1  0.4226470000000  0.4946890000000  0.5749620000000 1.0
C      1  0.4227380000000  0.4377840000000  0.4580360000000 1.0
C      1  0.4227220000000  0.5675460000000  0.4671070000000 1.0
C      1  0.5780770000000  0.4947820000000  0.5748670000000 1.0
C      1  0.5781680000000  0.4377290000000  0.4579280000000 1.0
C      1  0.5781470000000  0.5674750000000  0.4671000000000 1.0
C      1  0.4234180000000  0.4967850000000  0.4273450000000 1.0
C      1  0.4234340000000  0.4387170000000  0.5391180000000 1.0
C      1  0.4233370000000  0.5645810000000  0.5335840000000 1.0
C      1  0.5774440000000  0.4967420000000  0.4273260000000 1.0
C      1  0.5774670000000  0.4386580000000  0.5391510000000 1.0
C      1  0.5773620000000  0.5645160000000  0.5334730000000 1.0
C      1  0.4736670000000  0.5618600000000  0.5802680000000 1.0
C      1  0.4737090000000  0.3996270000000  0.5134010000000 1.0
C      1  0.4736940000000  0.5385670000000  0.4063620000000 1.0
C      1  0.5271400000000  0.5618100000000  0.5802030000000 1.0
C      1  0.5271780000000  0.3995680000000  0.5134740000000 1.0
C      1  0.5271670000000  0.5385650000000  0.4062990000000 1.0
C      1  0.4736810000000  0.5627500000000  0.4190140000000 1.0
C      1  0.4736810000000  0.3984630000000  0.4861360000000 1.0
C      1  0.4735930000000  0.5388220000000  0.5948970000000 1.0
C      1  0.5272360000000  0.5627530000000  0.4189360000000 1.0
C      1  0.5272330000000  0.3984470000000  0.4862030000000 1.0
C      1  0.5271430000000  0.5387590000000  0.5948180000000 1.0
C      1  0.4841490000000  0.4457160000000  0.5351910000000 1.0
C      1  0.4841020000000  0.4967230000000  0.4353780000000 1.0
C      1  0.4840490000000  0.5576700000000  0.5294690000000 1.0
C      1  0.5167720000000  0.4456580000000  0.5351840000000 1.0
C      1  0.5167050000000  0.4966370000000  0.4353560000000 1.0
C      1  0.5166430000000  0.5575980000000  0.5294150000000 1.0
C      1  0.4838910000000  0.4436230000000  0.4665490000000 1.0
C      1  0.4838800000000  0.4993160000000  0.5657960000000 1.0
C      1  0.4838950000000  0.5572310000000  0.4679470000000 1.0
C      1  0.5169180000000  0.4433910000000  0.4664790000000 1.0
C      1  0.5169210000000  0.4991720000000  0.5655360000000 1.0
C      1  0.5169100000000  0.5572680000000  0.4676920000000 1.0
C      1  0.5223400000000  0.5299840000000  0.5211320000000 1.0
C      1  0.5225560000000  0.4664630000000  0.5153590000000 1.0
C      1  0.5224650000000  0.5033260000000  0.4633480000000 1.0
C      1  0.4782390000000  0.5301000000000  0.5213560000000 1.0
C      1  0.4784490000000  0.4666970000000  0.5154350000000 1.0
C      1  0.4783620000000  0.5034290000000  0.4633700000000 1.0
C      1  0.5221240000000  0.5299630000000  0.4729820000000 1.0
C      1  0.5221840000000  0.4616630000000  0.4874420000000 1.0
C      1  0.5219230000000  0.5080430000000  0.5391270000000 1.0
C      1  0.4788010000000  0.5299480000000  0.4734330000000 1.0
C      1  0.4788590000000  0.4619670000000  0.4874710000000 1.0
C      1  0.4786020000000  0.5084010000000  0.5395450000000 1.0
C      1  0.4684340000000  0.4845840000000  0.6104960000000 1.0
C      1  0.4684730000000  0.4120910000000  0.4313850000000 1.0
C      1  0.4684920000000  0.6034240000000  0.4581150000000 1.0
C      1  0.5323520000000  0.4845410000000  0.6104480000000 1.0
C      1  0.5323930000000  0.4120010000000  0.4314060000000 1.0
C      1  0.5324130000000  0.6033590000000  0.4581520000000 1.0
C      1  0.4678180000000  0.4852280000000  0.3903420000000 1.0
C      1  0.4677710000000  0.4123500000000  0.5675360000000 1.0
C      1  0.4677480000000  0.6023490000000  0.5421680000000 1.0
C      1  0.5330960000000  0.4853120000000  0.3902780000000 1.0
C      1  0.5330470000000  0.4123910000000  0.5676680000000 1.0
C      1  0.5330260000000  0.6023670000000  0.5420100000000 1.0
C      1  0.4461570000000  0.4830730000000  0.5898820000000 1.0
C      1  0.4462070000000  0.4306530000000  0.4405010000000 1.0
C      1  0.4462100000000  0.5862970000000  0.4696760000000 1.0
C      1  0.5546210000000  0.4831530000000  0.5898200000000 1.0
C      1  0.5546680000000  0.4306100000000  0.4404000000000 1.0
C      1  0.5546680000000  0.5862160000000  0.4697270000000 1.0
C      1  0.4456750000000  0.4831470000000  0.4113400000000 1.0
C      1  0.4456800000000  0.4316300000000  0.5588930000000 1.0
C      1  0.4456160000000  0.5852440000000  0.5298150000000 1.0
C      1  0.5551800000000  0.4831680000000  0.4113080000000 1.0
C      1  0.5551890000000  0.4316140000000  0.5589530000000 1.0
C      1  0.5551180000000  0.5851900000000  0.5296880000000 1.0
C      1  0.5564540000000  0.4981970000000  0.5318350000000 1.0
C      1  0.5565450000000  0.4731710000000  0.4824480000000 1.0
C      1  0.5564880000000  0.5285400000000  0.4855230000000 1.0
C      1  0.4442740000000  0.4982410000000  0.5320270000000 1.0
C      1  0.4443590000000  0.4733060000000  0.4825320000000 1.0
C      1  0.4443120000000  0.5285520000000  0.4856340000000 1.0
C      1  0.5506900000000  0.4967910000000  0.4699190000000 1.0
C      1  0.5507590000000  0.4754780000000  0.5177250000000 1.0
C      1  0.5505850000000  0.5275990000000  0.5122110000000 1.0
C      1  0.4501370000000  0.4968790000000  0.4699500000000 1.0
C      1  0.4502000000000  0.4756140000000  0.5178200000000 1.0
C      1  0.4500330000000  0.5276400000000  0.5123740000000 1.0
C      1  0.4018990000000  0.4570620000000  0.4527990000000 1.0
C      1  0.4018800000000  0.5623920000000  0.4864220000000 1.0
C      1  0.4018320000000  0.4805270000000  0.5608200000000 1.0
C      1  0.5989970000000  0.4570420000000  0.4527390000000 1.0
C      1  0.5989750000000  0.5623630000000  0.4864170000000 1.0
C      1  0.5989290000000  0.4806200000000  0.5607990000000 1.0
C      1  0.4021990000000  0.4594400000000  0.5412200000000 1.0
C      1  0.4021670000000  0.5560160000000  0.5145100000000 1.0
C      1  0.4022170000000  0.4845740000000  0.4442760000000 1.0
C      1  0.5986430000000  0.4594560000000  0.5412570000000 1.0
C      1  0.5986060000000  0.5559640000000  0.5144890000000 1.0
C      1  0.5986590000000  0.4845530000000  0.4442460000000 1.0
C      1  0.5696090000000  0.5404020000000  0.4607610000000 1.0
C      1  0.5694630000000  0.5137320000000  0.5545540000000 1.0
C      1  0.5696460000000  0.4457360000000  0.4845620000000 1.0
C      1  0.4312980000000  0.5404810000000  0.4607900000000 1.0
C      1  0.4311490000000  0.5137670000000  0.5547170000000 1.0
C      1  0.4313270000000  0.4458850000000  0.4846150000000 1.0
C      1  0.5679990000000  0.5394830000000  0.5435530000000 1.0
C      1  0.5681300000000  0.5180020000000  0.4439610000000 1.0
C      1  0.5681840000000  0.4424080000000  0.5123850000000 1.0
C      1  0.4326120000000  0.5395280000000  0.5437040000000 1.0
C      1  0.4327420000000  0.5180610000000  0.4439880000000 1.0
C      1  0.4327910000000  0.4425200000000  0.5124080000000 1.0
C      1  0.5005480000000  0.4855440000000  0.5220850000000 1.0
C      1  0.5004180000000  0.4881110000000  0.4764410000000 1.0
C      1  0.5002200000000  0.5263480000000  0.5014790000000 1.0
END
