TITL C-74085-4933-227 1.41497156411214e-08 125000 -127.929816149961 0 0 21 (1) n - 1
REM
REM in /home/nfs/bkarasulu/CARBON/AIRSS/Generating-Clusters/LCBOP/Higher-Symm/SD-CG/FIRE-CG
REM
REM
REM
REM
REM
REM ./C.cell (b20cbc046b6831c77cfcea5457e17084)
REM AIRSS Version 0.9.1 bugfix July 2018 build 013d7b7c2542+ Fri, 06 Jul 2018 19:26:36 +0100
REM compiler GCC version 9.2.1 20190827 (Red Hat 9.2.1-1)
REM options -cpp -mtune=generic -march=x86-64 -g -O0 -fpre-include=/usr/include/finclude/math-vector-fortran.h
REM seed -2144006180 -1883936234 2098314818 334367709 1967622516 1338643141 682738666 -1469680667 707195250 -1804660924 -661592315 -1205529630 931357699 1513021980 -623199772 -1410173624 -856107074 1389067819 -1801990568 361251943 1463054609 -1153882859 -2046764702 -67415804 -437273964 -706422901 -481825389 -1027670432 1632112173 -960960849 1858886054 -1204329010 -1443129076
REM
CELL 1.54180   50.00000   50.00000   50.00000   90.00000   90.00000   90.00000
LATT -1
SFAC C  
C      1  0.5000200000000  0.5592000000000  0.5664240000000 1.0
C      1  0.4999700000000  0.4128760000000  0.5180570000000 1.0
C      1  0.5000110000000  0.5279250000000  0.4155200000000 1.0
C      1  0.5000250000000  0.5706620000000  0.4459300000000 1.0
C      1  0.5000030000000  0.5114950000000  0.5882300000000 1.0
C      1  0.4999720000000  0.4178430000000  0.4658400000000 1.0
C      1  0.5000310000000  0.5888430000000  0.4951300000000 1.0
C      1  0.4999850000000  0.4597960000000  0.5793750000000 1.0
C      1  0.4999840000000  0.4513610000000  0.4254950000000 1.0
C      1  0.4999690000000  0.4114240000000  0.4915740000000 1.0
C      1  0.5000190000000  0.5515850000000  0.4275040000000 1.0
C      1  0.5000120000000  0.5369910000000  0.5809220000000 1.0
C      1  0.4999720000000  0.4220690000000  0.5429350000000 1.0
C      1  0.5000020000000  0.5017830000000  0.4110420000000 1.0
C      1  0.5000260000000  0.5761480000000  0.5460230000000 1.0
C      1  0.5000290000000  0.5834600000000  0.4691600000000 1.0
C      1  0.4999940000000  0.4849780000000  0.5876990000000 1.0
C      1  0.4999770000000  0.4315610000000  0.4431420000000 1.0
C      1  0.4999780000000  0.4381860000000  0.5639980000000 1.0
C      1  0.4999920000000  0.4754830000000  0.4144690000000 1.0
C      1  0.5000300000000  0.5863310000000  0.5215330000000 1.0
END
