TITL C-74084-3399-303 -1.1251965460445e-06 125000 -1096.13124034195 0 0 175 (C1) n - 1
REM
REM in /home/nfs/bkarasulu/CARBON/AIRSS/Generating-Clusters/LCBOP/Higher-Symm/SD-CG/FIRE-CG
REM
REM
REM
REM
REM
REM ./C.cell (b20cbc046b6831c77cfcea5457e17084)
REM AIRSS Version 0.9.1 bugfix July 2018 build 013d7b7c2542+ Fri, 06 Jul 2018 19:26:36 +0100
REM compiler GCC version 9.2.1 20190827 (Red Hat 9.2.1-1)
REM options -cpp -mtune=generic -march=x86-64 -g -O0 -fpre-include=/usr/include/finclude/math-vector-fortran.h
REM seed 2142635209 1637080699 136943344 -1739390000 1389820763 -490047873 630290440 -652819934 1338771480 -540489542 1654372569 1515294358 -1819555916 1397026674 -1745776483 -882051668 -462376099 -18784627 -746865729 -1199303873 -943887756 -608099719 1973555636 1603769371 -83962533 -539114353 654857531 169134600 -1300868529 796233303 -572207191 2098091756 -238640153
REM
CELL 1.54180   50.00000   50.00000   50.00000   90.00000   90.00000   90.00000
LATT -1
SFAC C  
C      1  0.5507700000000  0.4929720000000  0.4438070000000 1.0
C      1  0.5710610000000  0.4930610000000  0.5310250000000 1.0
C      1  0.4919100000000  0.4924640000000  0.5761350000000 1.0
C      1  0.4254660000000  0.4900340000000  0.5179960000000 1.0
C      1  0.4615220000000  0.4950100000000  0.4363790000000 1.0
C      1  0.5532700000000  0.4923220000000  0.5599890000000 1.0
C      1  0.5721070000000  0.4938120000000  0.4683990000000 1.0
C      1  0.4915810000000  0.4950690000000  0.4234150000000 1.0
C      1  0.4217780000000  0.4898750000000  0.4858180000000 1.0
C      1  0.4604550000000  0.4923350000000  0.5684860000000 1.0
C      1  0.5612880000000  0.4193950000000  0.5585130000000 1.0
C      1  0.4640510000000  0.4183840000000  0.5760410000000 1.0
C      1  0.4176020000000  0.4174690000000  0.4888900000000 1.0
C      1  0.4857950000000  0.4209300000000  0.4174400000000 1.0
C      1  0.5742950000000  0.4203660000000  0.4606870000000 1.0
C      1  0.5576950000000  0.4216850000000  0.4346260000000 1.0
C      1  0.4559480000000  0.4220630000000  0.4255270000000 1.0
C      1  0.4159550000000  0.4185010000000  0.5197690000000 1.0
C      1  0.4928410000000  0.4203290000000  0.5872880000000 1.0
C      1  0.5804460000000  0.4212160000000  0.5343080000000 1.0
C      1  0.4348100000000  0.6044750000000  0.4782130000000 1.0
C      1  0.5024320000000  0.5965200000000  0.4277480000000 1.0
C      1  0.5743340000000  0.5947280000000  0.4767550000000 1.0
C      1  0.5474660000000  0.5939500000000  0.5537430000000 1.0
C      1  0.4597490000000  0.5908220000000  0.5564680000000 1.0
C      1  0.4303860000000  0.5954900000000  0.5052560000000 1.0
C      1  0.4933940000000  0.5991330000000  0.5704600000000 1.0
C      1  0.5678090000000  0.5908920000000  0.5338160000000 1.0
C      1  0.5530050000000  0.5976860000000  0.4491630000000 1.0
C      1  0.4685030000000  0.6036750000000  0.4271890000000 1.0
C      1  0.3845120000000  0.4522930000000  0.4873370000000 1.0
C      1  0.4774700000000  0.4574260000000  0.3868940000000 1.0
C      1  0.6013100000000  0.4562970000000  0.4437700000000 1.0
C      1  0.5860140000000  0.4552270000000  0.5791170000000 1.0
C      1  0.4513610000000  0.4539760000000  0.6060970000000 1.0
C      1  0.3828200000000  0.4531000000000  0.5146690000000 1.0
C      1  0.4766290000000  0.4552300000000  0.6165410000000 1.0
C      1  0.6032550000000  0.4564880000000  0.5578690000000 1.0
C      1  0.5869780000000  0.4571720000000  0.4204430000000 1.0
C      1  0.4509530000000  0.4580600000000  0.3936390000000 1.0
C      1  0.4932820000000  0.5544160000000  0.5751950000000 1.0
C      1  0.4160100000000  0.5482240000000  0.5088890000000 1.0
C      1  0.4492320000000  0.5612060000000  0.4307170000000 1.0
C      1  0.5613840000000  0.5515170000000  0.4447530000000 1.0
C      1  0.5629660000000  0.5437310000000  0.5278170000000 1.0
C      1  0.5026470000000  0.5457700000000  0.4278430000000 1.0
C      1  0.4332550000000  0.5392640000000  0.4873370000000 1.0
C      1  0.4459680000000  0.5416540000000  0.5605780000000 1.0
C      1  0.5434420000000  0.5418260000000  0.5587490000000 1.0
C      1  0.5599530000000  0.5479490000000  0.4749950000000 1.0
C      1  0.4095010000000  0.4431050000000  0.4766990000000 1.0
C      1  0.4950590000000  0.4469670000000  0.4069250000000 1.0
C      1  0.5872170000000  0.4462900000000  0.4666410000000 1.0
C      1  0.5599050000000  0.4449030000000  0.5733460000000 1.0
C      1  0.4494850000000  0.4439020000000  0.5793590000000 1.0
C      1  0.4062310000000  0.4447770000000  0.5289120000000 1.0
C      1  0.4977740000000  0.4469650000000  0.5990920000000 1.0
C      1  0.5927360000000  0.4479390000000  0.5326070000000 1.0
C      1  0.5598050000000  0.4483060000000  0.4222410000000 1.0
C      1  0.4445310000000  0.4487670000000  0.4199530000000 1.0
C      1  0.5302570000000  0.5542340000000  0.5133570000000 1.0
C      1  0.4929710000000  0.5521040000000  0.5464310000000 1.0
C      1  0.4698030000000  0.5638750000000  0.5019820000000 1.0
C      1  0.4630980000000  0.5572910000000  0.4553750000000 1.0
C      1  0.5089050000000  0.5609930000000  0.4727960000000 1.0
C      1  0.5316030000000  0.5550520000000  0.4867140000000 1.0
C      1  0.4903280000000  0.5546610000000  0.4534700000000 1.0
C      1  0.4533480000000  0.5572660000000  0.4808800000000 1.0
C      1  0.4747300000000  0.5546940000000  0.5261140000000 1.0
C      1  0.5174510000000  0.5542940000000  0.5354170000000 1.0
C      1  0.3965880000000  0.5050640000000  0.4458940000000 1.0
C      1  0.5190010000000  0.5091680000000  0.3849240000000 1.0
C      1  0.6172930000000  0.5052030000000  0.4853340000000 1.0
C      1  0.5493920000000  0.5070400000000  0.6070030000000 1.0
C      1  0.4143760000000  0.5025730000000  0.5840550000000 1.0
C      1  0.4011230000000  0.5054750000000  0.5605140000000 1.0
C      1  0.5227960000000  0.5115090000000  0.6110780000000 1.0
C      1  0.6158660000000  0.5084230000000  0.5121460000000 1.0
C      1  0.5438060000000  0.5105050000000  0.3960470000000 1.0
C      1  0.4145670000000  0.5109750000000  0.4266000000000 1.0
C      1  0.5362640000000  0.4143930000000  0.5150960000000 1.0
C      1  0.4976850000000  0.4134590000000  0.5391560000000 1.0
C      1  0.4632760000000  0.4129740000000  0.5093160000000 1.0
C      1  0.4805010000000  0.4140470000000  0.4670610000000 1.0
C      1  0.5257530000000  0.4148910000000  0.4706620000000 1.0
C      1  0.5420060000000  0.4034920000000  0.4900970000000 1.0
C      1  0.5041380000000  0.4035040000000  0.4572090000000 1.0
C      1  0.4616400000000  0.4020890000000  0.4837500000000 1.0
C      1  0.4732820000000  0.4018580000000  0.5328760000000 1.0
C      1  0.5232340000000  0.4026610000000  0.5366680000000 1.0
C      1  0.5590450000000  0.5110530000000  0.4201120000000 1.0
C      1  0.5982490000000  0.5101360000000  0.5341260000000 1.0
C      1  0.4970100000000  0.5130580000000  0.5986160000000 1.0
C      1  0.4044720000000  0.5080690000000  0.5324460000000 1.0
C      1  0.4423330000000  0.5143150000000  0.4211070000000 1.0
C      1  0.5674140000000  0.5055550000000  0.5844930000000 1.0
C      1  0.6008180000000  0.5032840000000  0.4621040000000 1.0
C      1  0.4923770000000  0.5099760000000  0.3958880000000 1.0
C      1  0.3952880000000  0.5006090000000  0.4740720000000 1.0
C      1  0.4421940000000  0.5054450000000  0.5904540000000 1.0
C      1  0.4545010000000  0.5394230000000  0.4130540000000 1.0
C      1  0.5759170000000  0.5318860000000  0.4300020000000 1.0
C      1  0.5903130000000  0.5313170000000  0.5495610000000 1.0
C      1  0.4811880000000  0.5367300000000  0.5935390000000 1.0
C      1  0.3956150000000  0.5289390000000  0.5148830000000 1.0
C      1  0.4526910000000  0.5336990000000  0.5890930000000 1.0
C      1  0.5763680000000  0.5303340000000  0.5728100000000 1.0
C      1  0.6006860000000  0.5221070000000  0.4404910000000 1.0
C      1  0.4825100000000  0.5371640000000  0.4048570000000 1.0
C      1  0.3817130000000  0.5182710000000  0.4921320000000 1.0
C      1  0.4324960000000  0.4635960000000  0.4714750000000 1.0
C      1  0.5072620000000  0.4665220000000  0.4277670000000 1.0
C      1  0.5714020000000  0.4660950000000  0.4852720000000 1.0
C      1  0.5373780000000  0.4646040000000  0.5646340000000 1.0
C      1  0.4511370000000  0.4637750000000  0.5555420000000 1.0
C      1  0.4254460000000  0.4650450000000  0.5364430000000 1.0
C      1  0.5104460000000  0.4674300000000  0.5831400000000 1.0
C      1  0.5809200000000  0.4682440000000  0.5155500000000 1.0
C      1  0.5396370000000  0.4681680000000  0.4282890000000 1.0
C      1  0.4432380000000  0.4684580000000  0.4409700000000 1.0
C      1  0.5073200000000  0.4050380000000  0.4290090000000 1.0
C      1  0.5698310000000  0.4044690000000  0.4845770000000 1.0
C      1  0.5370860000000  0.4036180000000  0.5614450000000 1.0
C      1  0.4539930000000  0.4024730000000  0.5537600000000 1.0
C      1  0.4358710000000  0.4027340000000  0.4718160000000 1.0
C      1  0.5173460000000  0.4052610000000  0.5828090000000 1.0
C      1  0.5840080000000  0.4058360000000  0.5099080000000 1.0
C      1  0.5357870000000  0.4062620000000  0.4234490000000 1.0
C      1  0.4392090000000  0.4058470000000  0.4430020000000 1.0
C      1  0.4276800000000  0.4031410000000  0.5414610000000 1.0
C      1  0.5427390000000  0.6159000000000  0.5152080000000 1.0
C      1  0.5015550000000  0.6137600000000  0.5468510000000 1.0
C      1  0.4650150000000  0.6159130000000  0.5084470000000 1.0
C      1  0.4796720000000  0.6183780000000  0.4590390000000 1.0
C      1  0.5330040000000  0.6143180000000  0.4632710000000 1.0
C      1  0.5463800000000  0.6153090000000  0.4884520000000 1.0
C      1  0.5073960000000  0.6131670000000  0.4530490000000 1.0
C      1  0.4618920000000  0.6170560000000  0.4807040000000 1.0
C      1  0.4764990000000  0.6120290000000  0.5324790000000 1.0
C      1  0.5286410000000  0.6124390000000  0.5392500000000 1.0
C      1  0.4614750000000  0.4422450000000  0.5101650000000 1.0
C      1  0.4789780000000  0.4432820000000  0.4663930000000 1.0
C      1  0.5259730000000  0.4441960000000  0.4699690000000 1.0
C      1  0.5372780000000  0.4436960000000  0.5158170000000 1.0
C      1  0.4973970000000  0.4427000000000  0.5408820000000 1.0
C      1  0.4589210000000  0.4535980000000  0.4842370000000 1.0
C      1  0.4718740000000  0.4535070000000  0.5346860000000 1.0
C      1  0.5237680000000  0.4542800000000  0.5384550000000 1.0
C      1  0.5427310000000  0.4554070000000  0.4899960000000 1.0
C      1  0.5028380000000  0.4552390000000  0.4566080000000 1.0
C      1  0.5764510000000  0.5702300000000  0.4893860000000 1.0
C      1  0.5369690000000  0.5741150000000  0.5710710000000 1.0
C      1  0.4412180000000  0.5692900000000  0.5491440000000 1.0
C      1  0.4273890000000  0.5987920000000  0.4514510000000 1.0
C      1  0.5191580000000  0.5721630000000  0.4231300000000 1.0
C      1  0.5756160000000  0.5686490000000  0.5183900000000 1.0
C      1  0.5464050000000  0.5739600000000  0.4348460000000 1.0
C      1  0.4447160000000  0.5894500000000  0.4303510000000 1.0
C      1  0.4259430000000  0.5724320000000  0.5228650000000 1.0
C      1  0.5094490000000  0.5776010000000  0.5800690000000 1.0
C      1  0.5322180000000  0.5142880000000  0.5575800000000 1.0
C      1  0.4543810000000  0.5159020000000  0.5467730000000 1.0
C      1  0.4395900000000  0.5131560000000  0.4778960000000 1.0
C      1  0.5095610000000  0.5166160000000  0.4374900000000 1.0
C      1  0.5636920000000  0.5187710000000  0.4849810000000 1.0
C      1  0.5264050000000  0.5057750000000  0.4564870000000 1.0
C      1  0.4640130000000  0.5052700000000  0.4651690000000 1.0
C      1  0.4530370000000  0.5036430000000  0.5219020000000 1.0
C      1  0.5066270000000  0.5042110000000  0.5522350000000 1.0
C      1  0.5544930000000  0.5129640000000  0.5129740000000 1.0
C      1  0.5143440000000  0.5024580000000  0.4812300000000 1.0
C      1  0.5024040000000  0.5007140000000  0.5252640000000 1.0
C      1  0.4782410000000  0.4997040000000  0.5102310000000 1.0
C      1  0.4854490000000  0.5013460000000  0.4826690000000 1.0
C      1  0.5255180000000  0.5039470000000  0.5079070000000 1.0
END
