TITL C-74084-3399-67 88129.4304198296 125000 -1057.23938063018 0 0 174 (C1) n - 1
REM
REM in /home/nfs/bkarasulu/CARBON/AIRSS/Generating-Clusters/LCBOP/Higher-Symm/SD-CG/FIRE-CG
REM
REM
REM
REM
REM
REM ./C.cell (b20cbc046b6831c77cfcea5457e17084)
REM AIRSS Version 0.9.1 bugfix July 2018 build 013d7b7c2542+ Fri, 06 Jul 2018 19:26:36 +0100
REM compiler GCC version 9.2.1 20190827 (Red Hat 9.2.1-1)
REM options -cpp -mtune=generic -march=x86-64 -g -O0 -fpre-include=/usr/include/finclude/math-vector-fortran.h
REM seed -1885085935 288259893 2142048099 414510170 -1175929434 271644562 909065496 -49422009 1684673526 1893512451 -43205270 1516611939 140982748 1829048109 171883861 -1800007139 -918726821 -1870233728 -1476040177 -1561823016 -949289513 436917338 1503368992 1421787058 -1126765828 -1320554574 590255210 -1077247235 985880904 -1475467656 -364274599 1344712546 1575500246
REM
CELL 1.54180   50.00000   50.00000   50.00000   90.00000   90.00000   90.00000
LATT -1
SFAC C  
C      1  0.4322310000000  0.5617230000000  0.4741400000000 1.0
C      1  0.4252400000000  0.5540740000000  0.5500800000000 1.0
C      1  0.4296990000000  0.4678390000000  0.5510450000000 1.0
C      1  0.4211970000000  0.4169120000000  0.4816320000000 1.0
C      1  0.4310700000000  0.5025030000000  0.4310130000000 1.0
C      1  0.5673710000000  0.5533250000000  0.4724750000000 1.0
C      1  0.5964770000000  0.5849240000000  0.5587950000000 1.0
C      1  0.5746510000000  0.4685190000000  0.5500600000000 1.0
C      1  0.5785280000000  0.4417340000000  0.4989440000000 1.0
C      1  0.5665780000000  0.4964160000000  0.4282860000000 1.0
C      1  0.4510380000000  0.5551540000000  0.5882320000000 1.0
C      1  0.4466890000000  0.4298290000000  0.5766050000000 1.0
C      1  0.4579240000000  0.3984940000000  0.4672660000000 1.0
C      1  0.4640660000000  0.5004630000000  0.3956820000000 1.0
C      1  0.4462000000000  0.6082650000000  0.4814370000000 1.0
C      1  0.5502290000000  0.5444260000000  0.5900170000000 1.0
C      1  0.5590580000000  0.4374470000000  0.5775860000000 1.0
C      1  0.5636880000000  0.4107340000000  0.4648260000000 1.0
C      1  0.5363670000000  0.5024900000000  0.3921020000000 1.0
C      1  0.5568350000000  0.6006700000000  0.4814780000000 1.0
C      1  0.6124830000000  0.5026300000000  0.5240670000000 1.0
C      1  0.6122290000000  0.4757330000000  0.5110410000000 1.0
C      1  0.6135230000000  0.4816700000000  0.4827810000000 1.0
C      1  0.6211730000000  0.5095740000000  0.4767490000000 1.0
C      1  0.6184980000000  0.5227350000000  0.5029020000000 1.0
C      1  0.3807550000000  0.5041370000000  0.5231380000000 1.0
C      1  0.3800020000000  0.4774140000000  0.5088520000000 1.0
C      1  0.3837030000000  0.4811590000000  0.4792630000000 1.0
C      1  0.3789510000000  0.5109320000000  0.4749580000000 1.0
C      1  0.3787170000000  0.5248150000000  0.5010020000000 1.0
C      1  0.5216050000000  0.5410190000000  0.5443000000000 1.0
C      1  0.5133380000000  0.4677250000000  0.5511440000000 1.0
C      1  0.5115570000000  0.4440790000000  0.4840620000000 1.0
C      1  0.5112630000000  0.4903550000000  0.4372530000000 1.0
C      1  0.5136660000000  0.5598690000000  0.4711620000000 1.0
C      1  0.4925590000000  0.5386600000000  0.5515710000000 1.0
C      1  0.4847320000000  0.4663450000000  0.5535990000000 1.0
C      1  0.4814950000000  0.4448510000000  0.4844260000000 1.0
C      1  0.4831170000000  0.4906330000000  0.4395820000000 1.0
C      1  0.4846390000000  0.5586150000000  0.4746320000000 1.0
C      1  0.4491110000000  0.5900410000000  0.5274900000000 1.0
C      1  0.4468420000000  0.4817690000000  0.5954960000000 1.0
C      1  0.4460650000000  0.4105230000000  0.5270600000000 1.0
C      1  0.4510270000000  0.4229000000000  0.4263840000000 1.0
C      1  0.4472910000000  0.5580550000000  0.4280420000000 1.0
C      1  0.5564610000000  0.5858730000000  0.5302100000000 1.0
C      1  0.5548220000000  0.4901820000000  0.5897560000000 1.0
C      1  0.5605160000000  0.4084700000000  0.5332550000000 1.0
C      1  0.5591480000000  0.4417750000000  0.4243470000000 1.0
C      1  0.5535470000000  0.5550210000000  0.4268180000000 1.0
C      1  0.4689400000000  0.5247560000000  0.5116480000000 1.0
C      1  0.4762920000000  0.5002470000000  0.5255660000000 1.0
C      1  0.4646710000000  0.4804770000000  0.5067440000000 1.0
C      1  0.4766620000000  0.4911370000000  0.4817130000000 1.0
C      1  0.4627270000000  0.5180410000000  0.4827710000000 1.0
C      1  0.5101820000000  0.5253260000000  0.5053790000000 1.0
C      1  0.5074080000000  0.5011790000000  0.5224420000000 1.0
C      1  0.5200660000000  0.4817850000000  0.5023200000000 1.0
C      1  0.5047640000000  0.4904490000000  0.4794540000000 1.0
C      1  0.5139260000000  0.5171380000000  0.4782600000000 1.0
C      1  0.5183730000000  0.4129230000000  0.5637280000000 1.0
C      1  0.5232390000000  0.4109800000000  0.4343100000000 1.0
C      1  0.5143720000000  0.5779260000000  0.4075130000000 1.0
C      1  0.5163700000000  0.6074440000000  0.5069070000000 1.0
C      1  0.5137510000000  0.5140790000000  0.6004930000000 1.0
C      1  0.4892070000000  0.4126160000000  0.5619570000000 1.0
C      1  0.4961370000000  0.4131150000000  0.4411500000000 1.0
C      1  0.4875150000000  0.5781980000000  0.4079140000000 1.0
C      1  0.4881240000000  0.6097810000000  0.5071470000000 1.0
C      1  0.4873960000000  0.5075400000000  0.5939490000000 1.0
C      1  0.5917570000000  0.5675100000000  0.5129680000000 1.0
C      1  0.5892290000000  0.5188100000000  0.5700440000000 1.0
C      1  0.5919580000000  0.4454800000000  0.5439150000000 1.0
C      1  0.5971280000000  0.4464150000000  0.4521470000000 1.0
C      1  0.6005130000000  0.5424400000000  0.4411550000000 1.0
C      1  0.4049660000000  0.5800050000000  0.5059730000000 1.0
C      1  0.4200600000000  0.5126790000000  0.5670760000000 1.0
C      1  0.4086250000000  0.4329180000000  0.5252020000000 1.0
C      1  0.4158370000000  0.4552950000000  0.4413830000000 1.0
C      1  0.3993260000000  0.5487530000000  0.4422550000000 1.0
C      1  0.5752410000000  0.5310600000000  0.4887260000000 1.0
C      1  0.5655100000000  0.5161260000000  0.5316180000000 1.0
C      1  0.5547710000000  0.4681560000000  0.5294860000000 1.0
C      1  0.5641550000000  0.4641710000000  0.4827120000000 1.0
C      1  0.5885110000000  0.4965040000000  0.4457020000000 1.0
C      1  0.4223960000000  0.5394570000000  0.4908790000000 1.0
C      1  0.4030830000000  0.5432080000000  0.5367790000000 1.0
C      1  0.4204890000000  0.4761470000000  0.5258780000000 1.0
C      1  0.4305730000000  0.4644240000000  0.4813130000000 1.0
C      1  0.4200560000000  0.5099830000000  0.4557060000000 1.0
C      1  0.5340210000000  0.4304800000000  0.4151300000000 1.0
C      1  0.5328590000000  0.5768410000000  0.4287490000000 1.0
C      1  0.5306860000000  0.5924640000000  0.5358510000000 1.0
C      1  0.5289890000000  0.4879690000000  0.6007510000000 1.0
C      1  0.5325580000000  0.4033810000000  0.5391780000000 1.0
C      1  0.4788760000000  0.4275590000000  0.4218840000000 1.0
C      1  0.4695550000000  0.5780030000000  0.4296600000000 1.0
C      1  0.4745450000000  0.6014000000000  0.5321520000000 1.0
C      1  0.4748620000000  0.4810520000000  0.6006250000000 1.0
C      1  0.4728670000000  0.4029950000000  0.5312970000000 1.0
C      1  0.5167010000000  0.5988470000000  0.4534750000000 1.0
C      1  0.5149010000000  0.5782640000000  0.5651700000000 1.0
C      1  0.5166420000000  0.4555810000000  0.5965360000000 1.0
C      1  0.5167120000000  0.4084270000000  0.5157450000000 1.0
C      1  0.5174040000000  0.4502830000000  0.3994730000000 1.0
C      1  0.4865480000000  0.5986430000000  0.4541300000000 1.0
C      1  0.4872040000000  0.5871220000000  0.5623480000000 1.0
C      1  0.4876570000000  0.4541250000000  0.5966160000000 1.0
C      1  0.4910540000000  0.3993860000000  0.5081200000000 1.0
C      1  0.4883990000000  0.4495320000000  0.4037780000000 1.0
C      1  0.4564160000000  0.4499720000000  0.4664220000000 1.0
C      1  0.4739470000000  0.5182010000000  0.4388950000000 1.0
C      1  0.4712100000000  0.5670790000000  0.4977690000000 1.0
C      1  0.4814020000000  0.5177100000000  0.5677680000000 1.0
C      1  0.4709490000000  0.4478130000000  0.5376990000000 1.0
C      1  0.5323230000000  0.4549200000000  0.4674200000000 1.0
C      1  0.5230580000000  0.5169920000000  0.4351220000000 1.0
C      1  0.5300570000000  0.5644520000000  0.4951550000000 1.0
C      1  0.5421610000000  0.5178650000000  0.5516380000000 1.0
C      1  0.5298480000000  0.4526800000000  0.5325520000000 1.0
C      1  0.4353680000000  0.5846590000000  0.4945560000000 1.0
C      1  0.4314440000000  0.5395380000000  0.5742160000000 1.0
C      1  0.4383810000000  0.4399710000000  0.5503540000000 1.0
C      1  0.4394580000000  0.4260620000000  0.4536910000000 1.0
C      1  0.4526230000000  0.5217800000000  0.4188630000000 1.0
C      1  0.5591930000000  0.5738980000000  0.4928650000000 1.0
C      1  0.5601500000000  0.5183290000000  0.5785030000000 1.0
C      1  0.5744790000000  0.4237220000000  0.5541930000000 1.0
C      1  0.5759170000000  0.4291600000000  0.4448850000000 1.0
C      1  0.5468870000000  0.5191170000000  0.4173130000000 1.0
C      1  0.5293400000000  0.6081140000000  0.4793660000000 1.0
C      1  0.5234820000000  0.5492680000000  0.5879300000000 1.0
C      1  0.5310040000000  0.4327130000000  0.5824850000000 1.0
C      1  0.5406850000000  0.3988010000000  0.4534690000000 1.0
C      1  0.5280470000000  0.4760210000000  0.3889950000000 1.0
C      1  0.4747740000000  0.6096950000000  0.4796830000000 1.0
C      1  0.4683410000000  0.5752490000000  0.5808630000000 1.0
C      1  0.4749870000000  0.4298300000000  0.5822610000000 1.0
C      1  0.4841100000000  0.4000630000000  0.4732210000000 1.0
C      1  0.4737180000000  0.4741050000000  0.3946260000000 1.0
C      1  0.3985200000000  0.5485260000000  0.5076080000000 1.0
C      1  0.3977880000000  0.5154200000000  0.5455780000000 1.0
C      1  0.3979000000000  0.4584660000000  0.5203170000000 1.0
C      1  0.4054120000000  0.4645150000000  0.4664150000000 1.0
C      1  0.3942200000000  0.5231970000000  0.4541470000000 1.0
C      1  0.5986490000000  0.5429530000000  0.5025430000000 1.0
C      1  0.5927040000000  0.5123050000000  0.5425560000000 1.0
C      1  0.5994830000000  0.4506600000000  0.5171100000000 1.0
C      1  0.5900650000000  0.4728650000000  0.4650950000000 1.0
C      1  0.6076490000000  0.5172460000000  0.4520580000000 1.0
C      1  0.4626520000000  0.4700650000000  0.4430650000000 1.0
C      1  0.4732220000000  0.5352900000000  0.4619910000000 1.0
C      1  0.4701070000000  0.5497600000000  0.5243810000000 1.0
C      1  0.4702220000000  0.4938140000000  0.5533690000000 1.0
C      1  0.4718080000000  0.4527440000000  0.5109150000000 1.0
C      1  0.5296730000000  0.4702730000000  0.4443580000000 1.0
C      1  0.5201480000000  0.5345870000000  0.4575530000000 1.0
C      1  0.5228170000000  0.5477380000000  0.5164520000000 1.0
C      1  0.5223980000000  0.4949350000000  0.5476840000000 1.0
C      1  0.5210500000000  0.4360610000000  0.5101610000000 1.0
C      1  0.5828190000000  0.5801010000000  0.5359970000000 1.0
C      1  0.5656400000000  0.4666700000000  0.5771310000000 1.0
C      1  0.5681830000000  0.4158500000000  0.4990450000000 1.0
C      1  0.5540000000000  0.4702700000000  0.4286380000000 1.0
C      1  0.5747610000000  0.5540750000000  0.4452980000000 1.0
C      1  0.4474170000000  0.5641010000000  0.5371630000000 1.0
C      1  0.4387770000000  0.4893380000000  0.5679990000000 1.0
C      1  0.4238030000000  0.4151370000000  0.5096060000000 1.0
C      1  0.4356750000000  0.4738070000000  0.4304830000000 1.0
C      1  0.4255740000000  0.5604830000000  0.4462500000000 1.0
C      1  0.4348330000000  0.4855420000000  0.5016980000000 1.0
C      1  0.5625140000000  0.5107610000000  0.5038240000000 1.0
C      1  0.4329190000000  0.5121200000000  0.4837070000000 1.0
C      1  0.5516850000000  0.4828040000000  0.5027720000000 1.0
END
