TITL C-74084-3399-418 -5.47530108807217e-07 125000 -326.560972942802 0 0 54 (C1) n - 1
REM
REM in /home/nfs/bkarasulu/CARBON/AIRSS/Generating-Clusters/LCBOP/Higher-Symm/SD-CG/FIRE-CG
REM
REM
REM
REM
REM
REM ./C.cell (b20cbc046b6831c77cfcea5457e17084)
REM AIRSS Version 0.9.1 bugfix July 2018 build 013d7b7c2542+ Fri, 06 Jul 2018 19:26:36 +0100
REM compiler GCC version 9.2.1 20190827 (Red Hat 9.2.1-1)
REM options -cpp -mtune=generic -march=x86-64 -g -O0 -fpre-include=/usr/include/finclude/math-vector-fortran.h
REM seed -647188412 1172511041 1919542271 -771710355 852095755 -392369888 -713996749 -276690803 -1380734074 1698535779 -811603324 649782647 1274285721 -760749542 -642418406 1584172976 -247516867 276932269 878026310 -403828221 1383420036 1171932941 1539884648 726579679 -1953471320 993693790 -1019164859 1662482034 1481600414 1208384277 67166349 -273252579 1067583175
REM
CELL 1.54180   50.00000   50.00000   50.00000   90.00000   90.00000   90.00000
LATT -1
SFAC C  
C      1  0.4481890000000  0.5148820000000  0.4492720000000 1.0
C      1  0.5123460000000  0.4520070000000  0.4500950000000 1.0
C      1  0.4436540000000  0.4524470000000  0.5140660000000 1.0
C      1  0.5469310000000  0.5160700000000  0.5536940000000 1.0
C      1  0.5496670000000  0.4870060000000  0.4494630000000 1.0
C      1  0.4469460000000  0.4866590000000  0.5503220000000 1.0
C      1  0.4831330000000  0.4516150000000  0.5478980000000 1.0
C      1  0.4847260000000  0.5499230000000  0.4499920000000 1.0
C      1  0.5130030000000  0.5524480000000  0.5503170000000 1.0
C      1  0.5492010000000  0.4506280000000  0.4852860000000 1.0
C      1  0.5484350000000  0.5498940000000  0.5144790000000 1.0
C      1  0.4482600000000  0.5508970000000  0.4847890000000 1.0
C      1  0.4466640000000  0.4866490000000  0.4482980000000 1.0
C      1  0.5129700000000  0.5500240000000  0.4505450000000 1.0
C      1  0.4486890000000  0.5506770000000  0.5130990000000 1.0
C      1  0.5458830000000  0.4869630000000  0.5532820000000 1.0
C      1  0.5503320000000  0.5157350000000  0.4492580000000 1.0
C      1  0.4488850000000  0.5148330000000  0.5488080000000 1.0
C      1  0.4848310000000  0.5506950000000  0.5485420000000 1.0
C      1  0.4835770000000  0.4525050000000  0.4514440000000 1.0
C      1  0.5118110000000  0.4502200000000  0.5504110000000 1.0
C      1  0.5494520000000  0.5514310000000  0.4857050000000 1.0
C      1  0.5476980000000  0.4528010000000  0.5142770000000 1.0
C      1  0.4437290000000  0.4525720000000  0.4848200000000 1.0
C      1  0.5555860000000  0.4776650000000  0.5266610000000 1.0
C      1  0.4704130000000  0.5292610000000  0.5608200000000 1.0
C      1  0.5275280000000  0.5631020000000  0.4714200000000 1.0
C      1  0.4318680000000  0.4717770000000  0.4677160000000 1.0
C      1  0.4361360000000  0.5297860000000  0.5280470000000 1.0
C      1  0.5634620000000  0.5320740000000  0.4692270000000 1.0
C      1  0.5284260000000  0.5299360000000  0.4373010000000 1.0
C      1  0.5260510000000  0.4703870000000  0.5649070000000 1.0
C      1  0.4679700000000  0.4713560000000  0.4368950000000 1.0
C      1  0.4698260000000  0.5632630000000  0.5277340000000 1.0
C      1  0.4706160000000  0.4436410000000  0.4756080000000 1.0
C      1  0.5287700000000  0.4382060000000  0.5303400000000 1.0
C      1  0.5569520000000  0.5255490000000  0.5273370000000 1.0
C      1  0.4678200000000  0.4710600000000  0.5620700000000 1.0
C      1  0.5283530000000  0.4380360000000  0.4697630000000 1.0
C      1  0.4354170000000  0.5301350000000  0.4698370000000 1.0
C      1  0.4319080000000  0.4718050000000  0.5310710000000 1.0
C      1  0.5628060000000  0.4706600000000  0.4693350000000 1.0
C      1  0.5272660000000  0.4731760000000  0.4377020000000 1.0
C      1  0.5278130000000  0.5332760000000  0.5654570000000 1.0
C      1  0.4699530000000  0.5290320000000  0.4372580000000 1.0
C      1  0.4704490000000  0.4433230000000  0.5234300000000 1.0
C      1  0.4693230000000  0.5633780000000  0.4699720000000 1.0
C      1  0.5287300000000  0.5640600000000  0.5294790000000 1.0
C      1  0.4862960000000  0.4462150000000  0.4996170000000 1.0
C      1  0.5017500000000  0.4692830000000  0.4996700000000 1.0
C      1  0.5061920000000  0.4961680000000  0.4953940000000 1.0
C      1  0.5547940000000  0.5019150000000  0.5109150000000 1.0
C      1  0.4860940000000  0.5141700000000  0.4961460000000 1.0
C      1  0.5328320000000  0.5033200000000  0.4936090000000 1.0
END
