TITL C-74080-5790-396 -1.03080447377184e-07 125000 -510.770070106006 0 0 84 (C1) n - 1
REM
REM in /home/nfs/bkarasulu/CARBON/AIRSS/Generating-Clusters/LCBOP/Higher-Symm/SD-CG/FIRE-CG
REM
REM
REM
REM
REM
REM ./C.cell (b20cbc046b6831c77cfcea5457e17084)
REM AIRSS Version 0.9.1 bugfix July 2018 build 013d7b7c2542+ Fri, 06 Jul 2018 19:26:36 +0100
REM compiler GCC version 9.2.1 20190827 (Red Hat 9.2.1-1)
REM options -cpp -mtune=generic -march=x86-64 -g -O0 -fpre-include=/usr/include/finclude/math-vector-fortran.h
REM seed -1251634324 -1851847721 -21578749 1106196725 -1595614579 930378657 1418509928 -774798779 -352185495 1097908539 1280822026 -2137256554 -362472937 1339072813 -72822983 1994094810 -2138434156 1161229039 1089346286 -880153005 410227629 616597139 -1180250847 -1677174074 -1191620723 310322674 261912639 -223534357 -1992841074 -193072440 -1994482169 -1896184072 1385848105
REM
CELL 1.54180   50.00000   50.00000   50.00000   90.00000   90.00000   90.00000
LATT -1
SFAC C  
C      1  0.4854210000000  0.4772960000000  0.5502270000000 1.0
C      1  0.5325530000000  0.4683940000000  0.5030480000000 1.0
C      1  0.5405670000000  0.4874000000000  0.5938350000000 1.0
C      1  0.4490650000000  0.4600040000000  0.4372010000000 1.0
C      1  0.4507970000000  0.4409680000000  0.5493490000000 1.0
C      1  0.4546370000000  0.5785320000000  0.4912070000000 1.0
C      1  0.5116010000000  0.5902980000000  0.5346210000000 1.0
C      1  0.5329530000000  0.4941890000000  0.4923240000000 1.0
C      1  0.5044210000000  0.5437940000000  0.4205980000000 1.0
C      1  0.5451240000000  0.4625000000000  0.5282900000000 1.0
C      1  0.5419450000000  0.5518840000000  0.5560360000000 1.0
C      1  0.5117020000000  0.5588070000000  0.4998680000000 1.0
C      1  0.5295200000000  0.4463240000000  0.5469860000000 1.0
C      1  0.5102490000000  0.5210290000000  0.4055360000000 1.0
C      1  0.4636840000000  0.4918180000000  0.5105680000000 1.0
C      1  0.4363850000000  0.5541390000000  0.4542040000000 1.0
C      1  0.5581060000000  0.5577490000000  0.5115300000000 1.0
C      1  0.5815730000000  0.5002600000000  0.5195690000000 1.0
C      1  0.4672050000000  0.5027970000000  0.4852430000000 1.0
C      1  0.4055310000000  0.5159180000000  0.4915970000000 1.0
C      1  0.4630000000000  0.5364050000000  0.5473890000000 1.0
C      1  0.4319930000000  0.4526680000000  0.5279540000000 1.0
C      1  0.4807040000000  0.4227410000000  0.5122100000000 1.0
C      1  0.4320480000000  0.4384650000000  0.5026360000000 1.0
C      1  0.4405610000000  0.4336910000000  0.4775350000000 1.0
C      1  0.5794690000000  0.5234910000000  0.5360760000000 1.0
C      1  0.5865230000000  0.5041060000000  0.4911740000000 1.0
C      1  0.5363320000000  0.5203490000000  0.4893390000000 1.0
C      1  0.5667360000000  0.4451910000000  0.4451880000000 1.0
C      1  0.5700570000000  0.5014890000000  0.4458490000000 1.0
C      1  0.4782350000000  0.4503480000000  0.5587530000000 1.0
C      1  0.5299220000000  0.4490200000000  0.4113630000000 1.0
C      1  0.5844390000000  0.5305410000000  0.4775500000000 1.0
C      1  0.5011580000000  0.4968910000000  0.3990170000000 1.0
C      1  0.4998040000000  0.4932300000000  0.5688910000000 1.0
C      1  0.4544070000000  0.4371200000000  0.4531290000000 1.0
C      1  0.4348860000000  0.5590500000000  0.4819930000000 1.0
C      1  0.4918160000000  0.5397000000000  0.5039440000000 1.0
C      1  0.5045250000000  0.5219910000000  0.5730700000000 1.0
C      1  0.4811660000000  0.5904610000000  0.4890780000000 1.0
C      1  0.4878300000000  0.4735300000000  0.4063310000000 1.0
C      1  0.4834790000000  0.5382830000000  0.5304810000000 1.0
C      1  0.5492240000000  0.5475150000000  0.4424860000000 1.0
C      1  0.5322600000000  0.5302300000000  0.5715900000000 1.0
C      1  0.5266610000000  0.5758120000000  0.5520960000000 1.0
C      1  0.4213660000000  0.5428120000000  0.5262990000000 1.0
C      1  0.4770900000000  0.5505890000000  0.4224850000000 1.0
C      1  0.4970250000000  0.4782920000000  0.6153250000000 1.0
C      1  0.4866870000000  0.4267260000000  0.4175780000000 1.0
C      1  0.4930210000000  0.5934890000000  0.4631540000000 1.0
C      1  0.5800420000000  0.4579320000000  0.4652810000000 1.0
C      1  0.5582760000000  0.4867880000000  0.4249440000000 1.0
C      1  0.5141980000000  0.4498550000000  0.4935240000000 1.0
C      1  0.5811410000000  0.4859470000000  0.4687880000000 1.0
C      1  0.5493970000000  0.5115880000000  0.5848220000000 1.0
C      1  0.4678580000000  0.4038310000000  0.5266540000000 1.0
C      1  0.4419640000000  0.4989360000000  0.5277910000000 1.0
C      1  0.4528470000000  0.5520890000000  0.4333380000000 1.0
C      1  0.4774750000000  0.4220930000000  0.4441020000000 1.0
C      1  0.5125680000000  0.5817460000000  0.4485610000000 1.0
C      1  0.4901420000000  0.4493650000000  0.5085120000000 1.0
C      1  0.4877040000000  0.5337370000000  0.5928080000000 1.0
C      1  0.5053550000000  0.4377190000000  0.5581120000000 1.0
C      1  0.5019870000000  0.4487240000000  0.4083790000000 1.0
C      1  0.4035060000000  0.4917060000000  0.5050010000000 1.0
C      1  0.4180580000000  0.5413420000000  0.4980840000000 1.0
C      1  0.4623470000000  0.4741290000000  0.4185600000000 1.0
C      1  0.5130360000000  0.4801820000000  0.5920080000000 1.0
C      1  0.5690920000000  0.5298270000000  0.4523430000000 1.0
C      1  0.5521960000000  0.4589740000000  0.4249460000000 1.0
C      1  0.4982360000000  0.4150220000000  0.4616290000000 1.0
C      1  0.5233750000000  0.5582660000000  0.4365660000000 1.0
C      1  0.4816470000000  0.4980930000000  0.6256540000000 1.0
C      1  0.5698950000000  0.4763690000000  0.5305200000000 1.0
C      1  0.4212490000000  0.4796610000000  0.5248590000000 1.0
C      1  0.4811800000000  0.5253960000000  0.4825030000000 1.0
C      1  0.4778030000000  0.5229270000000  0.6155700000000 1.0
C      1  0.4515420000000  0.4121360000000  0.5468690000000 1.0
C      1  0.4390220000000  0.5248860000000  0.5391870000000 1.0
C      1  0.4825270000000  0.4744320000000  0.5215460000000 1.0
C      1  0.5630910000000  0.5465520000000  0.5370770000000 1.0
C      1  0.5369260000000  0.5477840000000  0.4960610000000 1.0
C      1  0.5167260000000  0.4292000000000  0.4749510000000 1.0
C      1  0.5021280000000  0.5844380000000  0.5086490000000 1.0
END
