TITL C-74081-2727-96 1.26425681721528 125000 -362.171130032234 0 0 61 (C1) n - 1
REM
REM in /home/nfs/bkarasulu/CARBON/AIRSS/Generating-Clusters/LCBOP/Higher-Symm/SD-CG/FIRE-CG
REM
REM
REM
REM
REM
REM ./C.cell (b20cbc046b6831c77cfcea5457e17084)
REM AIRSS Version 0.9.1 bugfix July 2018 build 013d7b7c2542+ Fri, 06 Jul 2018 19:26:36 +0100
REM compiler GCC version 9.2.1 20190827 (Red Hat 9.2.1-1)
REM options -cpp -mtune=generic -march=x86-64 -g -O0 -fpre-include=/usr/include/finclude/math-vector-fortran.h
REM seed -1337973849 272967633 -953148250 -686383962 -428527525 -970232529 -558807076 -1689011457 -356910486 -815373655 2024773195 -703338823 -783977236 -1471119809 911716214 -938514559 -1453629122 -871320931 -1057301264 -1429424148 342040756 -1754530570 -1070614614 2068955554 1898274958 1755012933 -456244697 45829477 -1015545030 -1620395473 557253353 1352822621 -1434755886
REM
CELL 1.54180   50.00000   50.00000   50.00000   90.00000   90.00000   90.00000
LATT -1
SFAC C  
C      1  0.4260810000000  0.6286280000000  0.5538190000000 1.0
C      1  0.5678800000000  0.6397870000000  0.5577520000000 1.0
C      1  0.4135570000000  0.4508280000000  0.4459610000000 1.0
C      1  0.5812480000000  0.4352650000000  0.4491250000000 1.0
C      1  0.4506680000000  0.6197060000000  0.5495640000000 1.0
C      1  0.5456050000000  0.6266330000000  0.5520020000000 1.0
C      1  0.4014730000000  0.6375160000000  0.5580650000000 1.0
C      1  0.5901610000000  0.6529420000000  0.5635040000000 1.0
C      1  0.5609040000000  0.5091170000000  0.5430950000000 1.0
C      1  0.4326550000000  0.5195650000000  0.5288950000000 1.0
C      1  0.5448200000000  0.5295090000000  0.5361080000000 1.0
C      1  0.4516650000000  0.5379860000000  0.5236950000000 1.0
C      1  0.5124920000000  0.4716770000000  0.3884900000000 1.0
C      1  0.4845100000000  0.4720730000000  0.3898740000000 1.0
C      1  0.5260530000000  0.5062230000000  0.6274660000000 1.0
C      1  0.5099040000000  0.4780590000000  0.5861170000000 1.0
C      1  0.5617700000000  0.4446490000000  0.4665950000000 1.0
C      1  0.4369400000000  0.4488290000000  0.4609800000000 1.0
C      1  0.4311150000000  0.4934890000000  0.5221070000000 1.0
C      1  0.5638770000000  0.4845000000000  0.5327270000000 1.0
C      1  0.4388590000000  0.4604780000000  0.4864620000000 1.0
C      1  0.5670880000000  0.4547850000000  0.4925400000000 1.0
C      1  0.6120750000000  0.6658810000000  0.5691610000000 1.0
C      1  0.3772700000000  0.6462580000000  0.5622410000000 1.0
C      1  0.4765210000000  0.5355100000000  0.5107130000000 1.0
C      1  0.5246940000000  0.5315430000000  0.5166290000000 1.0
C      1  0.4750830000000  0.6104120000000  0.5451970000000 1.0
C      1  0.5233740000000  0.6134320000000  0.5462520000000 1.0
C      1  0.5528820000000  0.4712820000000  0.5105280000000 1.0
C      1  0.4484300000000  0.4777230000000  0.5062290000000 1.0
C      1  0.4795790000000  0.5128290000000  0.4932570000000 1.0
C      1  0.5243830000000  0.5116810000000  0.4961150000000 1.0
C      1  0.5261820000000  0.4803700000000  0.5006980000000 1.0
C      1  0.4754480000000  0.4867330000000  0.5054060000000 1.0
C      1  0.5986770000000  0.4263550000000  0.4312740000000 1.0
C      1  0.3919830000000  0.4530070000000  0.4307400000000 1.0
C      1  0.5325800000000  0.4449280000000  0.4595430000000 1.0
C      1  0.4595330000000  0.4348890000000  0.4509860000000 1.0
C      1  0.3708250000000  0.4551710000000  0.4156630000000 1.0
C      1  0.6156410000000  0.4175790000000  0.4135310000000 1.0
C      1  0.5231730000000  0.4708370000000  0.4157490000000 1.0
C      1  0.4767330000000  0.4705670000000  0.4182680000000 1.0
C      1  0.4715400000000  0.4156680000000  0.4678870000000 1.0
C      1  0.5189360000000  0.4215090000000  0.4725610000000 1.0
C      1  0.5247340000000  0.4450520000000  0.4298120000000 1.0
C      1  0.4749830000000  0.4435030000000  0.4287560000000 1.0
C      1  0.5001500000000  0.5991650000000  0.5401710000000 1.0
C      1  0.5004230000000  0.4298380000000  0.4248250000000 1.0
C      1  0.4947420000000  0.4291290000000  0.5322970000000 1.0
C      1  0.5019600000000  0.5736130000000  0.5290860000000 1.0
C      1  0.4996480000000  0.4740180000000  0.5156130000000 1.0
C      1  0.4945230000000  0.4132300000000  0.4838470000000 1.0
C      1  0.5010580000000  0.5476350000000  0.5192290000000 1.0
C      1  0.5060850000000  0.4910670000000  0.4574250000000 1.0
C      1  0.4925700000000  0.4122370000000  0.5117460000000 1.0
C      1  0.5178690000000  0.4920950000000  0.6071420000000 1.0
C      1  0.5024630000000  0.5126240000000  0.4758210000000 1.0
C      1  0.5034160000000  0.4656380000000  0.5636420000000 1.0
C      1  0.5002540000000  0.4846480000000  0.4310520000000 1.0
C      1  0.5212350000000  0.4707040000000  0.4717510000000 1.0
C      1  0.4992220000000  0.4562310000000  0.5377840000000 1.0
END
