TITL C-74083-3671-15 5.75735813541497 125000 -1081.91104301497 0 0 178 (C1) n - 1
REM
REM in /home/nfs/bkarasulu/CARBON/AIRSS/Generating-Clusters/LCBOP/Higher-Symm/SD-CG/FIRE-CG
REM
REM
REM
REM
REM
REM ./C.cell (b20cbc046b6831c77cfcea5457e17084)
REM AIRSS Version 0.9.1 bugfix July 2018 build 013d7b7c2542+ Fri, 06 Jul 2018 19:26:36 +0100
REM compiler GCC version 9.2.1 20190827 (Red Hat 9.2.1-1)
REM options -cpp -mtune=generic -march=x86-64 -g -O0 -fpre-include=/usr/include/finclude/math-vector-fortran.h
REM seed -325878896 2067495613 1953506980 -1092485290 662036332 1978067880 284980542 -799943147 1214602075 -1352826416 764630497 1957487599 -1691850970 -826387926 130893584 -2135456212 192284405 1924435943 -2121199514 2106974463 2014315806 51014377 923453913 1610754626 2137232921 1225704932 650027067 -334746690 -1347540880 -1083239936 2134217828 -841653518 1874006607
REM
CELL 1.54180   50.00000   50.00000   50.00000   90.00000   90.00000   90.00000
LATT -1
SFAC C  
C      1  0.4648450000000  0.5055850000000  0.4977500000000 1.0
C      1  0.5402930000000  0.5067700000000  0.4963930000000 1.0
C      1  0.5825840000000  0.5181150000000  0.5543130000000 1.0
C      1  0.4203470000000  0.5185560000000  0.5574540000000 1.0
C      1  0.4328610000000  0.4900070000000  0.4417250000000 1.0
C      1  0.5666860000000  0.4936930000000  0.4374220000000 1.0
C      1  0.4870730000000  0.5743270000000  0.6309940000000 1.0
C      1  0.5143640000000  0.5725080000000  0.6311680000000 1.0
C      1  0.4573750000000  0.4110040000000  0.5262610000000 1.0
C      1  0.5445520000000  0.4090820000000  0.5271400000000 1.0
C      1  0.4778130000000  0.4194940000000  0.5648690000000 1.0
C      1  0.5211260000000  0.4197050000000  0.5644870000000 1.0
C      1  0.4173770000000  0.4679260000000  0.5485980000000 1.0
C      1  0.5796210000000  0.4616050000000  0.5512220000000 1.0
C      1  0.4775090000000  0.4992440000000  0.3624480000000 1.0
C      1  0.5041850000000  0.4994690000000  0.3607730000000 1.0
C      1  0.3826590000000  0.5353420000000  0.5383080000000 1.0
C      1  0.6279630000000  0.5126650000000  0.5638650000000 1.0
C      1  0.4878570000000  0.5526940000000  0.5534810000000 1.0
C      1  0.5177040000000  0.5525540000000  0.5531640000000 1.0
C      1  0.4600240000000  0.5117950000000  0.3781650000000 1.0
C      1  0.5235040000000  0.5123390000000  0.3738360000000 1.0
C      1  0.6294110000000  0.4192600000000  0.4489090000000 1.0
C      1  0.3747050000000  0.4202420000000  0.4483000000000 1.0
C      1  0.5508850000000  0.4691220000000  0.5971800000000 1.0
C      1  0.4519220000000  0.4725560000000  0.5971270000000 1.0
C      1  0.5152730000000  0.5741230000000  0.5091620000000 1.0
C      1  0.4869930000000  0.5731700000000  0.5100150000000 1.0
C      1  0.4483160000000  0.5960150000000  0.5277430000000 1.0
C      1  0.5511060000000  0.5989850000000  0.5284780000000 1.0
C      1  0.4353590000000  0.4308650000000  0.5717500000000 1.0
C      1  0.5654810000000  0.4258880000000  0.5736250000000 1.0
C      1  0.3779570000000  0.4910990000000  0.4912800000000 1.0
C      1  0.6378560000000  0.4743060000000  0.5106270000000 1.0
C      1  0.5303320000000  0.5302450000000  0.3937250000000 1.0
C      1  0.4568900000000  0.5289380000000  0.3995990000000 1.0
C      1  0.4353110000000  0.5729130000000  0.5326970000000 1.0
C      1  0.5678980000000  0.5776610000000  0.5290860000000 1.0
C      1  0.4690080000000  0.4684640000000  0.5451100000000 1.0
C      1  0.5309640000000  0.4670710000000  0.5429880000000 1.0
C      1  0.5307850000000  0.5986420000000  0.5084200000000 1.0
C      1  0.4700860000000  0.5965870000000  0.5097190000000 1.0
C      1  0.5578290000000  0.5599180000000  0.4204670000000 1.0
C      1  0.4347550000000  0.5580680000000  0.4322020000000 1.0
C      1  0.4696100000000  0.6165570000000  0.4904500000000 1.0
C      1  0.5375840000000  0.6149560000000  0.4860270000000 1.0
C      1  0.6110670000000  0.4654010000000  0.5146270000000 1.0
C      1  0.3940820000000  0.4735690000000  0.5064880000000 1.0
C      1  0.5529070000000  0.5445380000000  0.6168430000000 1.0
C      1  0.4460930000000  0.5513540000000  0.6147660000000 1.0
C      1  0.4354910000000  0.5435040000000  0.4935550000000 1.0
C      1  0.5649770000000  0.5484130000000  0.4873190000000 1.0
C      1  0.5196490000000  0.5164980000000  0.5192030000000 1.0
C      1  0.4857050000000  0.5164370000000  0.5195740000000 1.0
C      1  0.5639380000000  0.4650060000000  0.5078190000000 1.0
C      1  0.4400220000000  0.4651490000000  0.5082600000000 1.0
C      1  0.5953820000000  0.4409800000000  0.3830020000000 1.0
C      1  0.4071610000000  0.4406870000000  0.3829620000000 1.0
C      1  0.4169890000000  0.5426900000000  0.5736200000000 1.0
C      1  0.5850530000000  0.5337420000000  0.5788490000000 1.0
C      1  0.4696920000000  0.5515290000000  0.6302790000000 1.0
C      1  0.5286490000000  0.5476500000000  0.6308700000000 1.0
C      1  0.4767290000000  0.5478860000000  0.5242920000000 1.0
C      1  0.5283740000000  0.5484350000000  0.5235350000000 1.0
C      1  0.4424660000000  0.4652940000000  0.5361770000000 1.0
C      1  0.5571290000000  0.4616070000000  0.5348800000000 1.0
C      1  0.4788600000000  0.4954150000000  0.5462520000000 1.0
C      1  0.5252140000000  0.4950690000000  0.5454050000000 1.0
C      1  0.4357450000000  0.4216610000000  0.5445700000000 1.0
C      1  0.5660440000000  0.4171490000000  0.5464800000000 1.0
C      1  0.4440830000000  0.4194360000000  0.4673000000000 1.0
C      1  0.5598590000000  0.4193390000000  0.4670530000000 1.0
C      1  0.3544780000000  0.4153000000000  0.4326130000000 1.0
C      1  0.6495430000000  0.4143980000000  0.4330770000000 1.0
C      1  0.4862300000000  0.4391660000000  0.6315670000000 1.0
C      1  0.5137770000000  0.4382170000000  0.6316330000000 1.0
C      1  0.5112610000000  0.5259220000000  0.6376020000000 1.0
C      1  0.4839510000000  0.5277660000000  0.6375010000000 1.0
C      1  0.4730030000000  0.4694360000000  0.4514410000000 1.0
C      1  0.5286820000000  0.4709400000000  0.4505760000000 1.0
C      1  0.4416900000000  0.5514760000000  0.5867240000000 1.0
C      1  0.5604170000000  0.5445460000000  0.5895150000000 1.0
C      1  0.5524830000000  0.4405760000000  0.5963960000000 1.0
C      1  0.4484720000000  0.4441700000000  0.5955380000000 1.0
C      1  0.4656800000000  0.6260300000000  0.4644490000000 1.0
C      1  0.5209790000000  0.6283210000000  0.4676720000000 1.0
C      1  0.3971810000000  0.4824330000000  0.5347240000000 1.0
C      1  0.6020510000000  0.4746390000000  0.5410770000000 1.0
C      1  0.5344320000000  0.4899830000000  0.5920360000000 1.0
C      1  0.4701420000000  0.4921700000000  0.5928270000000 1.0
C      1  0.5528940000000  0.4477220000000  0.4158680000000 1.0
C      1  0.4489790000000  0.4461890000000  0.4169240000000 1.0
C      1  0.3953530000000  0.5092170000000  0.5448460000000 1.0
C      1  0.6047620000000  0.5005230000000  0.5513250000000 1.0
C      1  0.5225060000000  0.5921360000000  0.4339150000000 1.0
C      1  0.4703080000000  0.5918350000000  0.4298890000000 1.0
C      1  0.5539950000000  0.5160370000000  0.4503840000000 1.0
C      1  0.4448210000000  0.5129700000000  0.4542220000000 1.0
C      1  0.4712340000000  0.4284130000000  0.4177570000000 1.0
C      1  0.5314710000000  0.4291070000000  0.4175390000000 1.0
C      1  0.4789840000000  0.5389620000000  0.4195840000000 1.0
C      1  0.5131220000000  0.5394740000000  0.4181180000000 1.0
C      1  0.4809540000000  0.6126490000000  0.4448080000000 1.0
C      1  0.5090820000000  0.6125780000000  0.4473880000000 1.0
C      1  0.5291720000000  0.4182530000000  0.5040570000000 1.0
C      1  0.4753130000000  0.4185570000000  0.5042960000000 1.0
C      1  0.5563980000000  0.5423720000000  0.3975440000000 1.0
C      1  0.4316230000000  0.5394610000000  0.4101370000000 1.0
C      1  0.4666130000000  0.5553810000000  0.5723470000000 1.0
C      1  0.5385100000000  0.5522770000000  0.5724550000000 1.0
C      1  0.5297430000000  0.4281920000000  0.6100430000000 1.0
C      1  0.4698010000000  0.4299890000000  0.6099380000000 1.0
C      1  0.4169450000000  0.5672430000000  0.4527000000000 1.0
C      1  0.5790410000000  0.5602470000000  0.4394890000000 1.0
C      1  0.4459640000000  0.5203910000000  0.4819500000000 1.0
C      1  0.5558730000000  0.5230570000000  0.4782570000000 1.0
C      1  0.4755400000000  0.4622660000000  0.4788290000000 1.0
C      1  0.5287410000000  0.4632940000000  0.4780860000000 1.0
C      1  0.3957880000000  0.4258200000000  0.4633400000000 1.0
C      1  0.6084230000000  0.4247360000000  0.4641190000000 1.0
C      1  0.5169890000000  0.3997530000000  0.4839530000000 1.0
C      1  0.4869720000000  0.3997370000000  0.4842280000000 1.0
C      1  0.4711310000000  0.4072000000000  0.4606850000000 1.0
C      1  0.5326060000000  0.4073610000000  0.4602920000000 1.0
C      1  0.3715940000000  0.5170770000000  0.4945980000000 1.0
C      1  0.6530670000000  0.4904870000000  0.5266190000000 1.0
C      1  0.4861730000000  0.4928920000000  0.4427860000000 1.0
C      1  0.5136110000000  0.4934550000000  0.4421690000000 1.0
C      1  0.4602270000000  0.4784300000000  0.4951670000000 1.0
C      1  0.5455280000000  0.4795060000000  0.4933510000000 1.0
C      1  0.3923490000000  0.5531210000000  0.5606330000000 1.0
C      1  0.6146630000000  0.5314030000000  0.5830780000000 1.0
C      1  0.5734610000000  0.4446820000000  0.3973990000000 1.0
C      1  0.4287410000000  0.4434770000000  0.3980620000000 1.0
C      1  0.5140620000000  0.4462920000000  0.5532620000000 1.0
C      1  0.4850720000000  0.4463300000000  0.5538400000000 1.0
C      1  0.5295180000000  0.5668660000000  0.4253130000000 1.0
C      1  0.4633990000000  0.5651800000000  0.4295630000000 1.0
C      1  0.5250910000000  0.5212410000000  0.4421050000000 1.0
C      1  0.4728800000000  0.5198260000000  0.4445850000000 1.0
C      1  0.4455180000000  0.5472340000000  0.5217480000000 1.0
C      1  0.5593900000000  0.5515910000000  0.5172580000000 1.0
C      1  0.5650620000000  0.6142520000000  0.4793950000000 1.0
C      1  0.3793870000000  0.5867580000000  0.4983360000000 1.0
C      1  0.5136550000000  0.4143820000000  0.5913410000000 1.0
C      1  0.4850490000000  0.4144970000000  0.5918460000000 1.0
C      1  0.5167890000000  0.4433970000000  0.4948100000000 1.0
C      1  0.4883770000000  0.4431320000000  0.4951370000000 1.0
C      1  0.5885550000000  0.4538370000000  0.4981380000000 1.0
C      1  0.4160600000000  0.4564410000000  0.4955830000000 1.0
C      1  0.4484060000000  0.4663470000000  0.4368710000000 1.0
C      1  0.5526320000000  0.4688630000000  0.4347070000000 1.0
C      1  0.3619610000000  0.4340820000000  0.3569460000000 1.0
C      1  0.6411090000000  0.4323600000000  0.3585410000000 1.0
C      1  0.4000460000000  0.5878190000000  0.4452740000000 1.0
C      1  0.6045390000000  0.5546230000000  0.4308110000000 1.0
C      1  0.3792020000000  0.5396830000000  0.5100380000000 1.0
C      1  0.6511740000000  0.5059440000000  0.5491260000000 1.0
C      1  0.4863350000000  0.5365320000000  0.4664410000000 1.0
C      1  0.5130780000000  0.5370220000000  0.4655580000000 1.0
C      1  0.3906550000000  0.5618890000000  0.4958930000000 1.0
C      1  0.5807100000000  0.5932020000000  0.4743230000000 1.0
C      1  0.4882680000000  0.5010270000000  0.5729030000000 1.0
C      1  0.5168130000000  0.5005420000000  0.5725030000000 1.0
C      1  0.4397360000000  0.5230080000000  0.5380080000000 1.0
C      1  0.5714040000000  0.5290290000000  0.5318510000000 1.0
C      1  0.4736150000000  0.3984090000000  0.5464480000000 1.0
C      1  0.5257270000000  0.3989100000000  0.5461550000000 1.0
C      1  0.4868440000000  0.4149590000000  0.4373400000000 1.0
C      1  0.5164860000000  0.4151860000000  0.4372180000000 1.0
C      1  0.5846980000000  0.4327870000000  0.4772430000000 1.0
C      1  0.4195580000000  0.4341290000000  0.4761810000000 1.0
C      1  0.3845470000000  0.4374700000000  0.3695160000000 1.0
C      1  0.6182830000000  0.4367400000000  0.3703490000000 1.0
C      1  0.5179130000000  0.6554650000000  0.4685630000000 1.0
C      1  0.4485190000000  0.6463230000000  0.4584830000000 1.0
C      1  0.5755770000000  0.5664700000000  0.4675060000000 1.0
C      1  0.4147940000000  0.5579430000000  0.4802980000000 1.0
END
