TITL C-74086-5274-440 1.29441937487227e-06 125000 -1107.71096548518 0 0 184 (Cs) n - 1
REM
REM in /home/nfs/bkarasulu/CARBON/AIRSS/Generating-Clusters/LCBOP/Higher-Symm/SD-CG/FIRE-CG
REM
REM
REM
REM
REM
REM ./C.cell (b20cbc046b6831c77cfcea5457e17084)
REM AIRSS Version 0.9.1 bugfix July 2018 build 013d7b7c2542+ Fri, 06 Jul 2018 19:26:36 +0100
REM compiler GCC version 9.2.1 20190827 (Red Hat 9.2.1-1)
REM options -cpp -mtune=generic -march=x86-64 -g -O0 -fpre-include=/usr/include/finclude/math-vector-fortran.h
REM seed -1812784654 -1972221142 1555380764 1158563340 1903164377 -1460356801 413667320 1359876373 1120196314 -937106050 1622138139 823875771 -36871970 -696086122 2039121873 599042548 794640845 -399542556 944207574 1471506782 2104909025 1020636666 -366591031 -1841552424 -1002110870 -2114912168 740630622 -1233747489 -49622845 380810649 1482182921 1254551407 2112350662
REM
CELL 1.54180   50.00000   50.00000   50.00000   90.00000   90.00000   90.00000
LATT -1
SFAC C  
C      1  0.4469130000000  0.4241640000000  0.4692370000000 1.0
C      1  0.4467530000000  0.5761420000000  0.5304230000000 1.0
C      1  0.5560250000000  0.4227640000000  0.4699730000000 1.0
C      1  0.5533330000000  0.5759710000000  0.5305840000000 1.0
C      1  0.4469120000000  0.4241630000000  0.5307610000000 1.0
C      1  0.4467540000000  0.5761420000000  0.4695780000000 1.0
C      1  0.5560240000000  0.4227640000000  0.5300260000000 1.0
C      1  0.5533330000000  0.5759720000000  0.4694180000000 1.0
C      1  0.3880360000000  0.4292260000000  0.4495900000000 1.0
C      1  0.3879980000000  0.5709730000000  0.5504280000000 1.0
C      1  0.6145480000000  0.4296040000000  0.4493940000000 1.0
C      1  0.6120850000000  0.5711260000000  0.5504880000000 1.0
C      1  0.3880350000000  0.4292250000000  0.5504080000000 1.0
C      1  0.3879990000000  0.5709740000000  0.4495720000000 1.0
C      1  0.6145480000000  0.4296030000000  0.5506060000000 1.0
C      1  0.6120860000000  0.5711270000000  0.4495150000000 1.0
C      1  0.4276790000000  0.5146750000000  0.4652170000000 1.0
C      1  0.4276570000000  0.4855760000000  0.5347280000000 1.0
C      1  0.5729460000000  0.5140800000000  0.4649010000000 1.0
C      1  0.5729900000000  0.4848770000000  0.5350940000000 1.0
C      1  0.4276780000000  0.5146740000000  0.5347830000000 1.0
C      1  0.4276580000000  0.4855770000000  0.4652710000000 1.0
C      1  0.5729450000000  0.5140800000000  0.5351000000000 1.0
C      1  0.5729900000000  0.4848780000000  0.4649070000000 1.0
C      1  0.5335850000000  0.4278260000000  0.4861210000000 1.0
C      1  0.5306630000000  0.5721730000000  0.5142010000000 1.0
C      1  0.4695440000000  0.4275290000000  0.4857200000000 1.0
C      1  0.4695570000000  0.5720270000000  0.5141730000000 1.0
C      1  0.5335850000000  0.4278250000000  0.5138780000000 1.0
C      1  0.5306630000000  0.5721740000000  0.4858000000000 1.0
C      1  0.4695440000000  0.4275280000000  0.5142780000000 1.0
C      1  0.4695570000000  0.5720270000000  0.4858280000000 1.0
C      1  0.5136060000000  0.6160370000000  0.5870050000000 1.0
C      1  0.5132060000000  0.3843670000000  0.4132120000000 1.0
C      1  0.4861750000000  0.6162260000000  0.5869040000000 1.0
C      1  0.4857900000000  0.3834730000000  0.4130750000000 1.0
C      1  0.5136070000000  0.6160390000000  0.4129980000000 1.0
C      1  0.5132050000000  0.3843650000000  0.5867860000000 1.0
C      1  0.4861760000000  0.6162270000000  0.4130990000000 1.0
C      1  0.4857890000000  0.3834710000000  0.5869220000000 1.0
C      1  0.6227050000000  0.5139790000000  0.5268510000000 1.0
C      1  0.6231000000000  0.4869530000000  0.4731420000000 1.0
C      1  0.3779050000000  0.5136270000000  0.5268380000000 1.0
C      1  0.3779120000000  0.4865870000000  0.4731640000000 1.0
C      1  0.6227050000000  0.5139790000000  0.4731510000000 1.0
C      1  0.6230990000000  0.4869530000000  0.5268590000000 1.0
C      1  0.3779050000000  0.5136280000000  0.4731610000000 1.0
C      1  0.3779120000000  0.4865870000000  0.5268350000000 1.0
C      1  0.5137600000000  0.4365660000000  0.5539210000000 1.0
C      1  0.5121420000000  0.5640570000000  0.4383130000000 1.0
C      1  0.4887640000000  0.4348250000000  0.5644120000000 1.0
C      1  0.4866710000000  0.5639850000000  0.4380050000000 1.0
C      1  0.5137600000000  0.4365670000000  0.4460780000000 1.0
C      1  0.5121410000000  0.5640560000000  0.5616890000000 1.0
C      1  0.4887640000000  0.4348260000000  0.4355870000000 1.0
C      1  0.4866700000000  0.5639840000000  0.5619960000000 1.0
C      1  0.6038920000000  0.4395250000000  0.5274110000000 1.0
C      1  0.6017280000000  0.5606520000000  0.4726050000000 1.0
C      1  0.3985300000000  0.4397180000000  0.5273860000000 1.0
C      1  0.3984580000000  0.5605360000000  0.4726340000000 1.0
C      1  0.6038930000000  0.4395250000000  0.4725890000000 1.0
C      1  0.6017270000000  0.5606510000000  0.5273980000000 1.0
C      1  0.3985300000000  0.4397190000000  0.4726120000000 1.0
C      1  0.3984580000000  0.5605350000000  0.5273660000000 1.0
C      1  0.5588560000000  0.4777440000000  0.4397660000000 1.0
C      1  0.5590730000000  0.5218830000000  0.5601630000000 1.0
C      1  0.4413400000000  0.4781080000000  0.4401040000000 1.0
C      1  0.4414810000000  0.5219930000000  0.5599600000000 1.0
C      1  0.5588560000000  0.4777420000000  0.5602340000000 1.0
C      1  0.5590740000000  0.5218840000000  0.4398380000000 1.0
C      1  0.4413390000000  0.4781060000000  0.5598950000000 1.0
C      1  0.4414820000000  0.5219940000000  0.4400390000000 1.0
C      1  0.5149810000000  0.6165340000000  0.4613890000000 1.0
C      1  0.5139980000000  0.3833590000000  0.5384500000000 1.0
C      1  0.4850870000000  0.6167150000000  0.4614430000000 1.0
C      1  0.4841570000000  0.3829420000000  0.5385500000000 1.0
C      1  0.5149800000000  0.6165330000000  0.5386140000000 1.0
C      1  0.5139980000000  0.3833600000000  0.4615480000000 1.0
C      1  0.4850860000000  0.6167150000000  0.5385590000000 1.0
C      1  0.4841570000000  0.3829430000000  0.4614470000000 1.0
C      1  0.5808270000000  0.4268470000000  0.4847570000000 1.0
C      1  0.5780530000000  0.5723070000000  0.5153010000000 1.0
C      1  0.4222100000000  0.4279670000000  0.4846570000000 1.0
C      1  0.4220430000000  0.5723570000000  0.5152560000000 1.0
C      1  0.5808270000000  0.4268470000000  0.5152430000000 1.0
C      1  0.5780530000000  0.5723070000000  0.4847010000000 1.0
C      1  0.4222100000000  0.4279670000000  0.5153410000000 1.0
C      1  0.4220430000000  0.5723580000000  0.4847450000000 1.0
C      1  0.4843660000000  0.4802980000000  0.3931100000000 1.0
C      1  0.4846220000000  0.5210690000000  0.6068730000000 1.0
C      1  0.5132230000000  0.4848080000000  0.3940020000000 1.0
C      1  0.5135540000000  0.5162260000000  0.6060820000000 1.0
C      1  0.4843650000000  0.4802960000000  0.6068890000000 1.0
C      1  0.4846230000000  0.5210710000000  0.3931270000000 1.0
C      1  0.5132210000000  0.4848060000000  0.6059980000000 1.0
C      1  0.5135560000000  0.5162290000000  0.3939190000000 1.0
C      1  0.4862410000000  0.4495070000000  0.5212760000000 1.0
C      1  0.4863740000000  0.5502800000000  0.4778520000000 1.0
C      1  0.5147130000000  0.4469850000000  0.5266520000000 1.0
C      1  0.5140850000000  0.5502170000000  0.4780510000000 1.0
C      1  0.4862410000000  0.4495080000000  0.4787230000000 1.0
C      1  0.4863740000000  0.5502800000000  0.5221490000000 1.0
C      1  0.5147130000000  0.4469850000000  0.4733470000000 1.0
C      1  0.5140850000000  0.5502160000000  0.5219500000000 1.0
C      1  0.5281970000000  0.6070650000000  0.5637790000000 1.0
C      1  0.5272790000000  0.3932390000000  0.4367190000000 1.0
C      1  0.4716140000000  0.6074900000000  0.5635760000000 1.0
C      1  0.4710660000000  0.3923290000000  0.4362760000000 1.0
C      1  0.5281970000000  0.6070660000000  0.4362230000000 1.0
C      1  0.5272790000000  0.3932380000000  0.5632790000000 1.0
C      1  0.4716140000000  0.6074920000000  0.4364260000000 1.0
C      1  0.4710650000000  0.3923270000000  0.5637220000000 1.0
C      1  0.4716080000000  0.5272370000000  0.4734560000000 1.0
C      1  0.4716570000000  0.4724880000000  0.5263280000000 1.0
C      1  0.5291850000000  0.5273980000000  0.4736180000000 1.0
C      1  0.5291350000000  0.4723190000000  0.5263610000000 1.0
C      1  0.4716070000000  0.5272360000000  0.5265440000000 1.0
C      1  0.4716570000000  0.4724890000000  0.4736710000000 1.0
C      1  0.5291850000000  0.5273970000000  0.5263820000000 1.0
C      1  0.5291350000000  0.4723200000000  0.4736380000000 1.0
C      1  0.4514890000000  0.4387400000000  0.4102600000000 1.0
C      1  0.4514510000000  0.5622590000000  0.5901380000000 1.0
C      1  0.5422280000000  0.4396250000000  0.4101350000000 1.0
C      1  0.5467620000000  0.5607640000000  0.5903500000000 1.0
C      1  0.4514870000000  0.4387380000000  0.5897380000000 1.0
C      1  0.4514520000000  0.5622610000000  0.4098630000000 1.0
C      1  0.5422270000000  0.4396230000000  0.5898640000000 1.0
C      1  0.5467630000000  0.5607660000000  0.4096510000000 1.0
C      1  0.3860290000000  0.4622540000000  0.5144180000000 1.0
C      1  0.3859910000000  0.5379670000000  0.4855810000000 1.0
C      1  0.6156030000000  0.4624530000000  0.5144190000000 1.0
C      1  0.6143630000000  0.5382120000000  0.4855840000000 1.0
C      1  0.3860290000000  0.4622540000000  0.4855800000000 1.0
C      1  0.3859910000000  0.5379670000000  0.5144190000000 1.0
C      1  0.6156030000000  0.4624530000000  0.4855820000000 1.0
C      1  0.6143630000000  0.5382120000000  0.5144180000000 1.0
C      1  0.4730850000000  0.6236490000000  0.4864550000000 1.0
C      1  0.4720830000000  0.3759880000000  0.5135590000000 1.0
C      1  0.5270560000000  0.6233720000000  0.4864380000000 1.0
C      1  0.5261140000000  0.3765250000000  0.5135280000000 1.0
C      1  0.4730850000000  0.6236480000000  0.5135480000000 1.0
C      1  0.4720840000000  0.3759880000000  0.4864380000000 1.0
C      1  0.5270560000000  0.6233720000000  0.5135650000000 1.0
C      1  0.5261140000000  0.3765260000000  0.4864700000000 1.0
C      1  0.5555890000000  0.5244510000000  0.4861420000000 1.0
C      1  0.5555860000000  0.4745110000000  0.5138390000000 1.0
C      1  0.4452510000000  0.5248620000000  0.4861660000000 1.0
C      1  0.4452160000000  0.4753160000000  0.5138390000000 1.0
C      1  0.5555890000000  0.5244500000000  0.5138590000000 1.0
C      1  0.5555860000000  0.4745110000000  0.4861610000000 1.0
C      1  0.4452510000000  0.5248610000000  0.5138330000000 1.0
C      1  0.4452160000000  0.4753170000000  0.4861600000000 1.0
C      1  0.5381180000000  0.4223730000000  0.4365000000000 1.0
C      1  0.5384080000000  0.5774440000000  0.5647930000000 1.0
C      1  0.4616390000000  0.4222200000000  0.4351670000000 1.0
C      1  0.4607120000000  0.5781200000000  0.5645710000000 1.0
C      1  0.5381170000000  0.4223710000000  0.5634990000000 1.0
C      1  0.5384090000000  0.5774450000000  0.4352090000000 1.0
C      1  0.4616380000000  0.4222180000000  0.5648310000000 1.0
C      1  0.4607120000000  0.5781210000000  0.4354310000000 1.0
C      1  0.4700030000000  0.5142530000000  0.5517810000000 1.0
C      1  0.4700490000000  0.4853220000000  0.4483060000000 1.0
C      1  0.5304940000000  0.5146020000000  0.5516420000000 1.0
C      1  0.5305380000000  0.4858090000000  0.4485200000000 1.0
C      1  0.4700030000000  0.5142550000000  0.4482190000000 1.0
C      1  0.4700480000000  0.4853210000000  0.5516930000000 1.0
C      1  0.5304940000000  0.5146030000000  0.4483580000000 1.0
C      1  0.5305380000000  0.4858080000000  0.5514800000000 1.0
C      1  0.5387670000000  0.5320450000000  0.3999280000000 1.0
C      1  0.5373910000000  0.4682930000000  0.5995600000000 1.0
C      1  0.4589420000000  0.5340450000000  0.3999010000000 1.0
C      1  0.4589600000000  0.4668890000000  0.6000600000000 1.0
C      1  0.5387660000000  0.5320430000000  0.6000730000000 1.0
C      1  0.5373920000000  0.4682950000000  0.4004400000000 1.0
C      1  0.4589410000000  0.5340430000000  0.6000990000000 1.0
C      1  0.4589610000000  0.4668910000000  0.3999390000000 1.0
C      1  0.5592160000000  0.5141600000000  0.5883260000000 1.0
C      1  0.5586990000000  0.4852370000000  0.4114860000000 1.0
C      1  0.4403130000000  0.5148070000000  0.5882600000000 1.0
C      1  0.4401800000000  0.4858770000000  0.4119590000000 1.0
C      1  0.5592170000000  0.5141620000000  0.4116750000000 1.0
C      1  0.5586980000000  0.4852360000000  0.5885140000000 1.0
C      1  0.4403140000000  0.5148090000000  0.4117390000000 1.0
C      1  0.4401790000000  0.4858750000000  0.5880400000000 1.0
END
