TITL C-74083-3671-127 9107.86961869381 125000 -1143.02772253748 0 0 183 (C1) n - 1
REM
REM in /home/nfs/bkarasulu/CARBON/AIRSS/Generating-Clusters/LCBOP/Higher-Symm/SD-CG/FIRE-CG
REM
REM
REM
REM
REM
REM ./C.cell (b20cbc046b6831c77cfcea5457e17084)
REM AIRSS Version 0.9.1 bugfix July 2018 build 013d7b7c2542+ Fri, 06 Jul 2018 19:26:36 +0100
REM compiler GCC version 9.2.1 20190827 (Red Hat 9.2.1-1)
REM options -cpp -mtune=generic -march=x86-64 -g -O0 -fpre-include=/usr/include/finclude/math-vector-fortran.h
REM seed -825715072 -1751401852 -1256334980 1766712895 -1021380191 1232654501 -1517111094 -652895612 1775439679 1320713142 161677421 973436650 363917607 -2056690080 883205154 53906239 -906070682 -1577799370 539345742 1090813481 960513075 692231200 -1347036904 -1029112919 1418677808 -28517208 -131688800 1121518582 698724757 -866137616 292866386 -64333869 620776853
REM
CELL 1.54180   50.00000   50.00000   50.00000   90.00000   90.00000   90.00000
LATT -1
SFAC C  
C      1  0.5347570000000  0.5868390000000  0.5269770000000 1.0
C      1  0.4226960000000  0.5640320000000  0.5261130000000 1.0
C      1  0.4170140000000  0.4463820000000  0.5259230000000 1.0
C      1  0.5225140000000  0.4001490000000  0.5245780000000 1.0
C      1  0.5953650000000  0.4934930000000  0.5279580000000 1.0
C      1  0.5705110000000  0.5910980000000  0.5573890000000 1.0
C      1  0.4363330000000  0.5974020000000  0.5571010000000 1.0
C      1  0.3918650000000  0.4714090000000  0.5576660000000 1.0
C      1  0.4902080000000  0.3818440000000  0.5548000000000 1.0
C      1  0.6012020000000  0.4592330000000  0.5598340000000 1.0
C      1  0.4900790000000  0.5430390000000  0.4494680000000 1.0
C      1  0.4569280000000  0.5036270000000  0.4491340000000 1.0
C      1  0.4833190000000  0.4587240000000  0.4479500000000 1.0
C      1  0.5333390000000  0.4701980000000  0.4482350000000 1.0
C      1  0.5376010000000  0.5205600000000  0.4503760000000 1.0
C      1  0.4445810000000  0.4233660000000  0.4153730000000 1.0
C      1  0.5563970000000  0.4232320000000  0.4167530000000 1.0
C      1  0.5899860000000  0.5292620000000  0.4185600000000 1.0
C      1  0.4990610000000  0.5949870000000  0.4178010000000 1.0
C      1  0.4099130000000  0.5291250000000  0.4176550000000 1.0
C      1  0.4473730000000  0.5596390000000  0.4058160000000 1.0
C      1  0.4267970000000  0.4690310000000  0.4056770000000 1.0
C      1  0.5079010000000  0.4204640000000  0.4040190000000 1.0
C      1  0.5786550000000  0.4819740000000  0.4066370000000 1.0
C      1  0.5403070000000  0.5687510000000  0.4065860000000 1.0
C      1  0.5833740000000  0.5032260000000  0.5757740000000 1.0
C      1  0.5233220000000  0.5957770000000  0.5731270000000 1.0
C      1  0.4285700000000  0.5521480000000  0.5734180000000 1.0
C      1  0.4299110000000  0.4461670000000  0.5733360000000 1.0
C      1  0.5259620000000  0.4088960000000  0.5720150000000 1.0
C      1  0.5663400000000  0.4080710000000  0.4794280000000 1.0
C      1  0.6054070000000  0.5364010000000  0.4807090000000 1.0
C      1  0.4967230000000  0.6117270000000  0.4795970000000 1.0
C      1  0.3934100000000  0.5336300000000  0.4793810000000 1.0
C      1  0.4342740000000  0.4085230000000  0.4770400000000 1.0
C      1  0.4358090000000  0.6042300000000  0.5001220000000 1.0
C      1  0.3837950000000  0.4732210000000  0.5011670000000 1.0
C      1  0.4879250000000  0.3777690000000  0.4980700000000 1.0
C      1  0.6107440000000  0.4534050000000  0.5026410000000 1.0
C      1  0.5764440000000  0.5907730000000  0.5008100000000 1.0
C      1  0.5313440000000  0.5594980000000  0.5995780000000 1.0
C      1  0.4708560000000  0.5434840000000  0.5936290000000 1.0
C      1  0.4543500000000  0.4823450000000  0.5927820000000 1.0
C      1  0.5030460000000  0.4464270000000  0.5904850000000 1.0
C      1  0.5503250000000  0.4694320000000  0.5967590000000 1.0
C      1  0.4522970000000  0.4592990000000  0.4888850000000 1.0
C      1  0.5225040000000  0.4389830000000  0.4881240000000 1.0
C      1  0.5609000000000  0.5015430000000  0.4903430000000 1.0
C      1  0.5158310000000  0.5558980000000  0.4924390000000 1.0
C      1  0.4475700000000  0.5338430000000  0.4904710000000 1.0
C      1  0.5499960000000  0.5911390000000  0.4632520000000 1.0
C      1  0.4277290000000  0.5782560000000  0.4629150000000 1.0
C      1  0.4031480000000  0.4565530000000  0.4628860000000 1.0
C      1  0.5112490000000  0.3930150000000  0.4610040000000 1.0
C      1  0.6039850000000  0.4788950000000  0.4646740000000 1.0
C      1  0.5319580000000  0.6047170000000  0.4816180000000 1.0
C      1  0.4079940000000  0.5665270000000  0.4806370000000 1.0
C      1  0.4084090000000  0.4338870000000  0.4802900000000 1.0
C      1  0.5339910000000  0.3905250000000  0.4793400000000 1.0
C      1  0.6116650000000  0.5006030000000  0.4829530000000 1.0
C      1  0.3827260000000  0.4973150000000  0.5177660000000 1.0
C      1  0.4639820000000  0.3833260000000  0.5143630000000 1.0
C      1  0.5993130000000  0.4313980000000  0.5182750000000 1.0
C      1  0.5944980000000  0.5752530000000  0.5173630000000 1.0
C      1  0.4572230000000  0.6154040000000  0.5165450000000 1.0
C      1  0.3863030000000  0.4797370000000  0.4727570000000 1.0
C      1  0.4834860000000  0.3840790000000  0.4698810000000 1.0
C      1  0.6053500000000  0.4502990000000  0.4741950000000 1.0
C      1  0.5780400000000  0.5837640000000  0.4726060000000 1.0
C      1  0.4437600000000  0.6021730000000  0.4720440000000 1.0
C      1  0.5566640000000  0.5618840000000  0.4283610000000 1.0
C      1  0.4573370000000  0.5743460000000  0.4275150000000 1.0
C      1  0.4163450000000  0.4831670000000  0.4275770000000 1.0
C      1  0.4904990000000  0.4143420000000  0.4252970000000 1.0
C      1  0.5790160000000  0.4637400000000  0.4280650000000 1.0
C      1  0.3827770000000  0.5229940000000  0.5045570000000 1.0
C      1  0.4399860000000  0.3926370000000  0.5011550000000 1.0
C      1  0.5832450000000  0.4107120000000  0.5040810000000 1.0
C      1  0.6092160000000  0.5533080000000  0.5047680000000 1.0
C      1  0.4824820000000  0.6217890000000  0.5032940000000 1.0
C      1  0.5363880000000  0.5158190000000  0.6002750000000 1.0
C      1  0.5214150000000  0.5124610000000  0.5757000000000 1.0
C      1  0.4942890000000  0.5057190000000  0.5810670000000 1.0
C      1  0.4941310000000  0.5012680000000  0.6099510000000 1.0
C      1  0.5188110000000  0.5070780000000  0.6210080000000 1.0
C      1  0.5824000000000  0.4278150000000  0.4603360000000 1.0
C      1  0.5916240000000  0.5573650000000  0.4614610000000 1.0
C      1  0.4728450000000  0.6059160000000  0.4605540000000 1.0
C      1  0.3915010000000  0.5084970000000  0.4608500000000 1.0
C      1  0.4579630000000  0.3989250000000  0.4582280000000 1.0
C      1  0.5829580000000  0.5516360000000  0.4339690000000 1.0
C      1  0.4755310000000  0.5958730000000  0.4331000000000 1.0
C      1  0.4017330000000  0.5073250000000  0.4332740000000 1.0
C      1  0.4627320000000  0.4084060000000  0.4306750000000 1.0
C      1  0.5756780000000  0.4355290000000  0.4331250000000 1.0
C      1  0.5610470000000  0.5359640000000  0.5236600000000 1.0
C      1  0.4813310000000  0.5692290000000  0.5225520000000 1.0
C      1  0.4371600000000  0.5010590000000  0.5239540000000 1.0
C      1  0.4766800000000  0.4343040000000  0.5207760000000 1.0
C      1  0.5531870000000  0.4521930000000  0.5208240000000 1.0
C      1  0.5714450000000  0.5088340000000  0.4128160000000 1.0
C      1  0.5125000000000  0.5708790000000  0.4121460000000 1.0
C      1  0.4370570000000  0.5338400000000  0.4117830000000 1.0
C      1  0.4480840000000  0.4509050000000  0.4108020000000 1.0
C      1  0.5315480000000  0.4350440000000  0.4105360000000 1.0
C      1  0.4197640000000  0.5095330000000  0.5458790000000 1.0
C      1  0.4639300000000  0.4212810000000  0.5436450000000 1.0
C      1  0.5608180000000  0.4365710000000  0.5444050000000 1.0
C      1  0.5766930000000  0.5441490000000  0.5476550000000 1.0
C      1  0.4823140000000  0.5874950000000  0.5450110000000 1.0
C      1  0.5425830000000  0.5951480000000  0.5526190000000 1.0
C      1  0.4238860000000  0.5717900000000  0.5533950000000 1.0
C      1  0.4102380000000  0.4499150000000  0.5533060000000 1.0
C      1  0.5163110000000  0.3927340000000  0.5512550000000 1.0
C      1  0.5973490000000  0.4876030000000  0.5556450000000 1.0
C      1  0.4678480000000  0.3927300000000  0.5412630000000 1.0
C      1  0.5897350000000  0.4377650000000  0.5448090000000 1.0
C      1  0.5859820000000  0.5710220000000  0.5443930000000 1.0
C      1  0.4598680000000  0.6054430000000  0.5433200000000 1.0
C      1  0.3942410000000  0.4961470000000  0.5439550000000 1.0
C      1  0.4557940000000  0.5146450000000  0.4223690000000 1.0
C      1  0.4723980000000  0.4621120000000  0.4214000000000 1.0
C      1  0.5276440000000  0.4614470000000  0.4213120000000 1.0
C      1  0.5449210000000  0.5132000000000  0.4233080000000 1.0
C      1  0.5002660000000  0.5470320000000  0.4227520000000 1.0
C      1  0.4574740000000  0.4374410000000  0.5673310000000 1.0
C      1  0.5429750000000  0.4320650000000  0.5661900000000 1.0
C      1  0.5731610000000  0.5312770000000  0.5737170000000 1.0
C      1  0.4978530000000  0.5814750000000  0.5683660000000 1.0
C      1  0.4301880000000  0.5229540000000  0.5694250000000 1.0
C      1  0.4515130000000  0.5116570000000  0.5876280000000 1.0
C      1  0.4763860000000  0.4557670000000  0.5839690000000 1.0
C      1  0.5313960000000  0.4536030000000  0.5834980000000 1.0
C      1  0.5516460000000  0.5390950000000  0.5940260000000 1.0
C      1  0.4967120000000  0.5574540000000  0.5871690000000 1.0
C      1  0.4426340000000  0.5462800000000  0.5165590000000 1.0
C      1  0.4407890000000  0.4581410000000  0.5158330000000 1.0
C      1  0.5191340000000  0.4266380000000  0.5147460000000 1.0
C      1  0.5693810000000  0.4940530000000  0.5168580000000 1.0
C      1  0.5249690000000  0.5606450000000  0.5202630000000 1.0
C      1  0.4771830000000  0.5076520000000  0.4055460000000 1.0
C      1  0.4859470000000  0.4803560000000  0.4049170000000 1.0
C      1  0.5146330000000  0.4801940000000  0.4049560000000 1.0
C      1  0.5235510000000  0.5074860000000  0.4060100000000 1.0
C      1  0.5004360000000  0.5244370000000  0.4061170000000 1.0
C      1  0.6136370000000  0.4839080000000  0.5083330000000 1.0
C      1  0.5479970000000  0.6006070000000  0.5062150000000 1.0
C      1  0.4150700000000  0.5819390000000  0.5055340000000 1.0
C      1  0.3972810000000  0.4457690000000  0.5057190000000 1.0
C      1  0.5181970000000  0.3818590000000  0.5036210000000 1.0
C      1  0.5022490000000  0.4438020000000  0.5290180000000 1.0
C      1  0.5500630000000  0.4787560000000  0.5289640000000 1.0
C      1  0.5336890000000  0.5370620000000  0.5337170000000 1.0
C      1  0.4666400000000  0.5464530000000  0.5309310000000 1.0
C      1  0.4526010000000  0.4781630000000  0.5314080000000 1.0
C      1  0.4773440000000  0.4808400000000  0.5439280000000 1.0
C      1  0.5028760000000  0.4701180000000  0.5373570000000 1.0
C      1  0.5255360000000  0.4878040000000  0.5372470000000 1.0
C      1  0.5267710000000  0.5139240000000  0.5485790000000 1.0
C      1  0.4815040000000  0.5236330000000  0.5344500000000 1.0
C      1  0.4398680000000  0.5064850000000  0.4945470000000 1.0
C      1  0.4740100000000  0.4406950000000  0.4915540000000 1.0
C      1  0.5469540000000  0.4537040000000  0.4915200000000 1.0
C      1  0.5569110000000  0.5301210000000  0.4937010000000 1.0
C      1  0.4878460000000  0.5630820000000  0.4937170000000 1.0
C      1  0.4682890000000  0.5496090000000  0.4711670000000 1.0
C      1  0.4444190000000  0.4845400000000  0.4708260000000 1.0
C      1  0.4969120000000  0.4400720000000  0.4692390000000 1.0
C      1  0.5541430000000  0.4770770000000  0.4706090000000 1.0
C      1  0.5370490000000  0.5432170000000  0.4721920000000 1.0
C      1  0.5061190000000  0.4173510000000  0.5914570000000 1.0
C      1  0.5709560000000  0.4864580000000  0.5951410000000 1.0
C      1  0.5343880000000  0.5870450000000  0.5979370000000 1.0
C      1  0.4480970000000  0.5600720000000  0.5931510000000 1.0
C      1  0.4304730000000  0.4668770000000  0.5934590000000 1.0
C      1  0.5787800000000  0.4783210000000  0.4526080000000 1.0
C      1  0.5423570000000  0.5663710000000  0.4528610000000 1.0
C      1  0.4482310000000  0.5628100000000  0.4520440000000 1.0
C      1  0.4245040000000  0.4707530000000  0.4519160000000 1.0
C      1  0.5045380000000  0.4177320000000  0.4499070000000 1.0
C      1  0.4805270000000  0.5058460000000  0.5565450000000 1.0
C      1  0.4928230000000  0.5131450000000  0.5104720000000 1.0
C      1  0.4995600000000  0.5000920000000  0.4889430000000 1.0
END
