TITL C-74081-2727-388 1.89901768089509e-06 125000 -413.768411013976 0 0 69 (C1) n - 1
REM
REM in /home/nfs/bkarasulu/CARBON/AIRSS/Generating-Clusters/LCBOP/Higher-Symm/SD-CG/FIRE-CG
REM
REM
REM
REM
REM
REM ./C.cell (b20cbc046b6831c77cfcea5457e17084)
REM AIRSS Version 0.9.1 bugfix July 2018 build 013d7b7c2542+ Fri, 06 Jul 2018 19:26:36 +0100
REM compiler GCC version 9.2.1 20190827 (Red Hat 9.2.1-1)
REM options -cpp -mtune=generic -march=x86-64 -g -O0 -fpre-include=/usr/include/finclude/math-vector-fortran.h
REM seed -2059000626 1588125060 -433733340 1337756999 1949646975 -852197706 -671690880 -1644379167 8503961 1783310422 1181334573 1216857828 1951681273 84783796 -2119978261 -801542784 447403874 1835521833 -1273075150 -438295344 457277622 244723756 345639850 449419618 -1539847067 -1404900500 2066529314 -959559147 -813904334 -716390117 -666394826 -163580698 795221013
REM
CELL 1.54180   50.00000   50.00000   50.00000   90.00000   90.00000   90.00000
LATT -1
SFAC C  
C      1  0.5530430000000  0.4457290000000  0.4747900000000 1.0
C      1  0.5549920000000  0.5507670000000  0.4816160000000 1.0
C      1  0.4713230000000  0.4619760000000  0.4434310000000 1.0
C      1  0.4785250000000  0.5717140000000  0.4487490000000 1.0
C      1  0.5820520000000  0.5126000000000  0.4720690000000 1.0
C      1  0.5819750000000  0.4843560000000  0.4743740000000 1.0
C      1  0.5777070000000  0.5286930000000  0.4963670000000 1.0
C      1  0.5885450000000  0.4757910000000  0.5008130000000 1.0
C      1  0.5143210000000  0.5211760000000  0.4827560000000 1.0
C      1  0.5243530000000  0.4942300000000  0.4873750000000 1.0
C      1  0.4463400000000  0.4469560000000  0.4838750000000 1.0
C      1  0.4374530000000  0.5561630000000  0.4676640000000 1.0
C      1  0.4330640000000  0.5123110000000  0.4871940000000 1.0
C      1  0.4182220000000  0.4883510000000  0.4864290000000 1.0
C      1  0.5024150000000  0.5574860000000  0.4559530000000 1.0
C      1  0.5003870000000  0.4702240000000  0.4441060000000 1.0
C      1  0.4649470000000  0.4796000000000  0.5559180000000 1.0
C      1  0.4650200000000  0.5094670000000  0.5572850000000 1.0
C      1  0.5742520000000  0.4866030000000  0.5231670000000 1.0
C      1  0.5700650000000  0.5170040000000  0.5209600000000 1.0
C      1  0.4947210000000  0.4370810000000  0.4929130000000 1.0
C      1  0.4819050000000  0.5728770000000  0.4949690000000 1.0
C      1  0.4212660000000  0.4622380000000  0.5437160000000 1.0
C      1  0.4332370000000  0.5727300000000  0.5339470000000 1.0
C      1  0.4907000000000  0.4656270000000  0.4893580000000 1.0
C      1  0.4741480000000  0.5152970000000  0.4606460000000 1.0
C      1  0.5383640000000  0.4447250000000  0.5261600000000 1.0
C      1  0.5312310000000  0.5534590000000  0.5252700000000 1.0
C      1  0.5621760000000  0.4684740000000  0.4599320000000 1.0
C      1  0.5634810000000  0.5267740000000  0.4551920000000 1.0
C      1  0.5331670000000  0.4881530000000  0.5419730000000 1.0
C      1  0.5385120000000  0.5128720000000  0.5542070000000 1.0
C      1  0.5493190000000  0.5321570000000  0.5359260000000 1.0
C      1  0.5535910000000  0.4689240000000  0.5357610000000 1.0
C      1  0.5023480000000  0.4472380000000  0.5630860000000 1.0
C      1  0.4988110000000  0.5450750000000  0.5631660000000 1.0
C      1  0.5508190000000  0.5101920000000  0.4366120000000 1.0
C      1  0.5468900000000  0.4817090000000  0.4384260000000 1.0
C      1  0.4312880000000  0.5285130000000  0.4623020000000 1.0
C      1  0.4313840000000  0.4686940000000  0.4708440000000 1.0
C      1  0.4761540000000  0.4871650000000  0.5025930000000 1.0
C      1  0.4622390000000  0.5066370000000  0.4873600000000 1.0
C      1  0.4610830000000  0.5715850000000  0.4724120000000 1.0
C      1  0.4641240000000  0.4380600000000  0.4608570000000 1.0
C      1  0.4915420000000  0.4809010000000  0.5967310000000 1.0
C      1  0.4930430000000  0.5079310000000  0.5967500000000 1.0
C      1  0.4993360000000  0.5290700000000  0.4600400000000 1.0
C      1  0.5091550000000  0.4759140000000  0.4709050000000 1.0
C      1  0.4846690000000  0.4665870000000  0.5732770000000 1.0
C      1  0.4853420000000  0.5225740000000  0.5739470000000 1.0
C      1  0.4496880000000  0.5110610000000  0.4447860000000 1.0
C      1  0.4470930000000  0.4804240000000  0.4466790000000 1.0
C      1  0.5194170000000  0.4899330000000  0.5173230000000 1.0
C      1  0.4990530000000  0.5269110000000  0.5070060000000 1.0
C      1  0.4514150000000  0.5284870000000  0.5412290000000 1.0
C      1  0.4483930000000  0.4624780000000  0.5388030000000 1.0
C      1  0.5219970000000  0.4615630000000  0.4007830000000 1.0
C      1  0.5228200000000  0.4706930000000  0.4264520000000 1.0
C      1  0.5101370000000  0.4388070000000  0.5372480000000 1.0
C      1  0.5044730000000  0.5579920000000  0.5382030000000 1.0
C      1  0.4857350000000  0.4222420000000  0.4707570000000 1.0
C      1  0.5094680000000  0.5695030000000  0.4828330000000 1.0
C      1  0.5458930000000  0.4368980000000  0.4994480000000 1.0
C      1  0.5336500000000  0.5614220000000  0.4967640000000 1.0
C      1  0.4800300000000  0.5649500000000  0.5226310000000 1.0
C      1  0.4867710000000  0.4341550000000  0.5199110000000 1.0
C      1  0.4544660000000  0.5554580000000  0.5324480000000 1.0
C      1  0.4584190000000  0.4450420000000  0.5177060000000 1.0
C      1  0.4933540000000  0.5019800000000  0.5196780000000 1.0
END
