TITL C-74083-3671-248 -3.20871535795311e-07 125000 -48.6243262133133 0 0 9 (C2v) n - 1
REM
REM in /home/nfs/bkarasulu/CARBON/AIRSS/Generating-Clusters/LCBOP/Higher-Symm/SD-CG/FIRE-CG
REM
REM
REM
REM
REM
REM ./C.cell (b20cbc046b6831c77cfcea5457e17084)
REM AIRSS Version 0.9.1 bugfix July 2018 build 013d7b7c2542+ Fri, 06 Jul 2018 19:26:36 +0100
REM compiler GCC version 9.2.1 20190827 (Red Hat 9.2.1-1)
REM options -cpp -mtune=generic -march=x86-64 -g -O0 -fpre-include=/usr/include/finclude/math-vector-fortran.h
REM seed 1035106714 386949410 1432106418 202100405 1684783987 1890358664 -230827131 -840198033 296135663 1714510317 -1604903924 -288669807 187199465 -269222762 -1839623936 -1259263627 -2054104695 403694277 -1481127239 -394479947 -1927217872 1072731887 -61624303 -1034763558 1953958089 703960967 -1711057086 -1929394962 -950167041 -393634255 1698225630 -940757098 1929630699
REM
CELL 1.54180   50.00000   50.00000   50.00000   90.00000   90.00000   90.00000
LATT -1
SFAC C  
C      1  0.4720540000000  0.5386710000000  0.4845030000000 1.0
C      1  0.5238380000000  0.4685360000000  0.5110530000000 1.0
C      1  0.5146770000000  0.5164410000000  0.4929360000000 1.0
C      1  0.5283690000000  0.4933420000000  0.5016770000000 1.0
C      1  0.4761840000000  0.4687710000000  0.5109320000000 1.0
C      1  0.4859100000000  0.5165830000000  0.4928630000000 1.0
C      1  0.4719470000000  0.4936210000000  0.5015340000000 1.0
C      1  0.5287920000000  0.5383910000000  0.4846470000000 1.0
C      1  0.4999410000000  0.4567070000000  0.5155090000000 1.0
END
