TITL C-74079-2735-426 -3.72121447173327e-09 125000 -853.647416392887 0 0 137 (C1) n - 1
REM
REM in /home/nfs/bkarasulu/CARBON/AIRSS/Generating-Clusters/LCBOP/Higher-Symm/SD-CG/FIRE-CG
REM
REM
REM
REM
REM
REM ./C.cell (b20cbc046b6831c77cfcea5457e17084)
REM AIRSS Version 0.9.1 bugfix July 2018 build 013d7b7c2542+ Fri, 06 Jul 2018 19:26:36 +0100
REM compiler GCC version 9.2.1 20190827 (Red Hat 9.2.1-1)
REM options -cpp -mtune=generic -march=x86-64 -g -O0 -fpre-include=/usr/include/finclude/math-vector-fortran.h
REM seed -1994621748 -763617542 -385590931 -751719595 349379018 -1589124828 -1344728318 -126105104 1098204665 -1147961168 1259168895 490492098 -161023736 -2035059942 2117830345 1172837436 -1295903551 656709533 1904882062 2048232419 -651131631 -708219945 -70644586 -857628011 -1844293732 -1573165220 2130098134 -1695649207 -1737917461 2096129558 -652774357 -1087358047 1872098637
REM
CELL 1.54180   50.00000   50.00000   50.00000   90.00000   90.00000   90.00000
LATT -1
SFAC C  
C      1  0.4344060000000  0.4932010000000  0.4347450000000 1.0
C      1  0.4590630000000  0.4154130000000  0.5405930000000 1.0
C      1  0.5565340000000  0.5092020000000  0.5667360000000 1.0
C      1  0.4751520000000  0.5310100000000  0.4132620000000 1.0
C      1  0.5276420000000  0.5441270000000  0.5875230000000 1.0
C      1  0.5418700000000  0.4026340000000  0.5292900000000 1.0
C      1  0.4823130000000  0.5345110000000  0.4936420000000 1.0
C      1  0.5279710000000  0.4362740000000  0.5724650000000 1.0
C      1  0.4730570000000  0.5351720000000  0.5687040000000 1.0
C      1  0.5801260000000  0.4775780000000  0.4599090000000 1.0
C      1  0.4801500000000  0.4191530000000  0.5566700000000 1.0
C      1  0.4601910000000  0.5570260000000  0.4536880000000 1.0
C      1  0.5276450000000  0.4456070000000  0.4168770000000 1.0
C      1  0.4904680000000  0.5017180000000  0.6320150000000 1.0
C      1  0.4502400000000  0.4986580000000  0.5496840000000 1.0
C      1  0.4997100000000  0.5143420000000  0.5062120000000 1.0
C      1  0.4855640000000  0.4314000000000  0.3737940000000 1.0
C      1  0.4801560000000  0.5568310000000  0.4754430000000 1.0
C      1  0.5691210000000  0.4541270000000  0.4485940000000 1.0
C      1  0.4347470000000  0.5656860000000  0.4649420000000 1.0
C      1  0.5209620000000  0.4883670000000  0.4609450000000 1.0
C      1  0.6024440000000  0.4872830000000  0.5007200000000 1.0
C      1  0.5784570000000  0.4797660000000  0.4883700000000 1.0
C      1  0.4612460000000  0.5894700000000  0.5015110000000 1.0
C      1  0.4669380000000  0.4342250000000  0.3955960000000 1.0
C      1  0.5107160000000  0.5188550000000  0.6217680000000 1.0
C      1  0.5101800000000  0.4990910000000  0.5501210000000 1.0
C      1  0.5322620000000  0.5969320000000  0.4556930000000 1.0
C      1  0.4444130000000  0.5707160000000  0.5509140000000 1.0
C      1  0.5209710000000  0.4590760000000  0.3910470000000 1.0
C      1  0.4965140000000  0.3861980000000  0.5094580000000 1.0
C      1  0.4940010000000  0.5917590000000  0.6018690000000 1.0
C      1  0.4319390000000  0.4791110000000  0.5572690000000 1.0
C      1  0.5105640000000  0.5939990000000  0.4747210000000 1.0
C      1  0.4959880000000  0.5183680000000  0.5335500000000 1.0
C      1  0.4559810000000  0.5117550000000  0.5257710000000 1.0
C      1  0.5840270000000  0.5025410000000  0.4466150000000 1.0
C      1  0.5973310000000  0.5637450000000  0.4867510000000 1.0
C      1  0.4564660000000  0.4304780000000  0.4947930000000 1.0
C      1  0.5083380000000  0.4350370000000  0.4350490000000 1.0
C      1  0.4622380000000  0.5801600000000  0.5292160000000 1.0
C      1  0.4563040000000  0.5029350000000  0.4778140000000 1.0
C      1  0.4833030000000  0.4354800000000  0.4514910000000 1.0
C      1  0.4893190000000  0.3959020000000  0.4837410000000 1.0
C      1  0.5734160000000  0.5801000000000  0.4798010000000 1.0
C      1  0.5310010000000  0.4864350000000  0.3941190000000 1.0
C      1  0.4593920000000  0.4632940000000  0.4012020000000 1.0
C      1  0.3875220000000  0.5102170000000  0.5910070000000 1.0
C      1  0.4543570000000  0.5381080000000  0.4315790000000 1.0
C      1  0.3945820000000  0.4418030000000  0.5209620000000 1.0
C      1  0.5538860000000  0.4251450000000  0.4890290000000 1.0
C      1  0.5295310000000  0.6166130000000  0.4365730000000 1.0
C      1  0.5298500000000  0.4771480000000  0.5971690000000 1.0
C      1  0.4685590000000  0.5069760000000  0.5699260000000 1.0
C      1  0.5558080000000  0.5856540000000  0.5653840000000 1.0
C      1  0.6040580000000  0.5137100000000  0.5122800000000 1.0
C      1  0.4838910000000  0.5651010000000  0.6005730000000 1.0
C      1  0.5051990000000  0.4858680000000  0.5018690000000 1.0
C      1  0.5341040000000  0.5039390000000  0.6089390000000 1.0
C      1  0.5087580000000  0.4387860000000  0.4978800000000 1.0
C      1  0.4856050000000  0.4789730000000  0.6176890000000 1.0
C      1  0.4015540000000  0.5473390000000  0.5621850000000 1.0
C      1  0.5567260000000  0.5809770000000  0.4547520000000 1.0
C      1  0.5008180000000  0.5387360000000  0.4260940000000 1.0
C      1  0.5400170000000  0.6005060000000  0.5811000000000 1.0
C      1  0.5189470000000  0.5505990000000  0.5619360000000 1.0
C      1  0.4198890000000  0.5569930000000  0.5429700000000 1.0
C      1  0.5235490000000  0.5177460000000  0.4631870000000 1.0
C      1  0.5029170000000  0.4532410000000  0.3697980000000 1.0
C      1  0.4375920000000  0.5856510000000  0.4852260000000 1.0
C      1  0.5142110000000  0.5094270000000  0.3945920000000 1.0
C      1  0.4927900000000  0.4821260000000  0.4531110000000 1.0
C      1  0.5167380000000  0.6037420000000  0.5939510000000 1.0
C      1  0.4839070000000  0.5091240000000  0.3957080000000 1.0
C      1  0.5187850000000  0.3890220000000  0.5248670000000 1.0
C      1  0.4312460000000  0.5215860000000  0.4417720000000 1.0
C      1  0.4994210000000  0.5267800000000  0.4517620000000 1.0
C      1  0.6014620000000  0.5343330000000  0.4901840000000 1.0
C      1  0.4720600000000  0.4177930000000  0.4741730000000 1.0
C      1  0.3850460000000  0.5251120000000  0.5671500000000 1.0
C      1  0.5642350000000  0.5385470000000  0.4633750000000 1.0
C      1  0.5580170000000  0.5551930000000  0.4408750000000 1.0
C      1  0.5534230000000  0.4851750000000  0.4125860000000 1.0
C      1  0.5242350000000  0.5322180000000  0.4104070000000 1.0
C      1  0.4864840000000  0.4754990000000  0.3625090000000 1.0
C      1  0.4684710000000  0.4109520000000  0.4123120000000 1.0
C      1  0.5463930000000  0.5340680000000  0.5075560000000 1.0
C      1  0.4570150000000  0.5213960000000  0.4994640000000 1.0
C      1  0.5043140000000  0.4251220000000  0.5665150000000 1.0
C      1  0.5512240000000  0.5347380000000  0.4205360000000 1.0
C      1  0.4192710000000  0.5398560000000  0.4645400000000 1.0
C      1  0.5485800000000  0.5080610000000  0.5195330000000 1.0
C      1  0.3995270000000  0.4863230000000  0.5943240000000 1.0
C      1  0.5886320000000  0.5241610000000  0.4652340000000 1.0
C      1  0.5377950000000  0.5038100000000  0.5456250000000 1.0
C      1  0.5577790000000  0.4241090000000  0.5182420000000 1.0
C      1  0.5133330000000  0.3996730000000  0.4672910000000 1.0
C      1  0.5422740000000  0.5317430000000  0.4789660000000 1.0
C      1  0.5294140000000  0.4804280000000  0.4868760000000 1.0
C      1  0.5006100000000  0.4760440000000  0.5936540000000 1.0
C      1  0.5565970000000  0.5814140000000  0.5026390000000 1.0
C      1  0.5461870000000  0.5219240000000  0.5897530000000 1.0
C      1  0.4484020000000  0.4773120000000  0.4858310000000 1.0
C      1  0.5441910000000  0.4593070000000  0.5784700000000 1.0
C      1  0.4862580000000  0.5834100000000  0.4853850000000 1.0
C      1  0.4869980000000  0.3941440000000  0.4233360000000 1.0
C      1  0.4154940000000  0.4252720000000  0.5200130000000 1.0
C      1  0.4430300000000  0.4202040000000  0.5177570000000 1.0
C      1  0.4915810000000  0.4610980000000  0.5037500000000 1.0
C      1  0.4160990000000  0.4729080000000  0.5779780000000 1.0
C      1  0.5693430000000  0.4322010000000  0.4665640000000 1.0
C      1  0.5523800000000  0.4587340000000  0.4261540000000 1.0
C      1  0.5262850000000  0.4216880000000  0.4823060000000 1.0
C      1  0.4872830000000  0.5680250000000  0.5340240000000 1.0
C      1  0.5589570000000  0.5666640000000  0.5466620000000 1.0
C      1  0.5055010000000  0.5443100000000  0.6073630000000 1.0
C      1  0.4715750000000  0.4854110000000  0.3849510000000 1.0
C      1  0.5533080000000  0.4866420000000  0.5003650000000 1.0
C      1  0.3729170000000  0.4886920000000  0.5310070000000 1.0
C      1  0.3734690000000  0.5111200000000  0.5454990000000 1.0
C      1  0.4090180000000  0.5373880000000  0.4914320000000 1.0
C      1  0.5974480000000  0.5077010000000  0.5406850000000 1.0
C      1  0.4527330000000  0.4708960000000  0.4283450000000 1.0
C      1  0.4784530000000  0.5068470000000  0.4587130000000 1.0
C      1  0.4924430000000  0.4906980000000  0.5709580000000 1.0
C      1  0.5791860000000  0.4925560000000  0.5582830000000 1.0
C      1  0.3803810000000  0.4642240000000  0.5234820000000 1.0
C      1  0.5668460000000  0.4642410000000  0.5586750000000 1.0
C      1  0.4738470000000  0.4621230000000  0.4463370000000 1.0
C      1  0.4628960000000  0.5591150000000  0.5796980000000 1.0
C      1  0.4939650000000  0.5433810000000  0.5481170000000 1.0
C      1  0.5079640000000  0.3907340000000  0.4406700000000 1.0
C      1  0.4639950000000  0.4575910000000  0.4978930000000 1.0
C      1  0.5525530000000  0.5595670000000  0.5201820000000 1.0
C      1  0.4136050000000  0.5483960000000  0.5160490000000 1.0
C      1  0.5676130000000  0.4449030000000  0.5363150000000 1.0
C      1  0.5659530000000  0.5084160000000  0.4238590000000 1.0
END
