TITL C-74084-3399-195 -101466.072731085 125000 -1025.18261922761 0 0 168 (C1) n - 1
REM
REM in /home/nfs/bkarasulu/CARBON/AIRSS/Generating-Clusters/LCBOP/Higher-Symm/SD-CG/FIRE-CG
REM
REM
REM
REM
REM
REM ./C.cell (b20cbc046b6831c77cfcea5457e17084)
REM AIRSS Version 0.9.1 bugfix July 2018 build 013d7b7c2542+ Fri, 06 Jul 2018 19:26:36 +0100
REM compiler GCC version 9.2.1 20190827 (Red Hat 9.2.1-1)
REM options -cpp -mtune=generic -march=x86-64 -g -O0 -fpre-include=/usr/include/finclude/math-vector-fortran.h
REM seed 487495801 -1983481631 -258279337 -759932488 1644907019 2083812844 935440692 299475734 983783986 -903658538 1166733613 962653744 1895810951 459303266 2133665351 -258123277 2013563548 -1214707155 867517248 -1266852125 1984902469 -26625715 2078407023 872274523 1908120792 1018207397 1990570548 1493144751 -172128090 -1895140617 -780816441 -1063094253 1682160154
REM
CELL 1.54180   50.00000   50.00000   50.00000   90.00000   90.00000   90.00000
LATT -1
SFAC C  
C      1  0.4234020000000  0.5489460000000  0.4385460000000 1.0
C      1  0.4943020000000  0.3933550000000  0.4471730000000 1.0
C      1  0.6003690000000  0.5615300000000  0.4528540000000 1.0
C      1  0.4076960000000  0.4528010000000  0.4471660000000 1.0
C      1  0.4887650000000  0.5981250000000  0.4401020000000 1.0
C      1  0.5863970000000  0.4621970000000  0.4364820000000 1.0
C      1  0.5656940000000  0.5273420000000  0.5988400000000 1.0
C      1  0.4404960000000  0.5388920000000  0.5983490000000 1.0
C      1  0.4910880000000  0.4378050000000  0.5976320000000 1.0
C      1  0.5609420000000  0.4675950000000  0.5962560000000 1.0
C      1  0.4344670000000  0.4625410000000  0.5958900000000 1.0
C      1  0.4953060000000  0.5632340000000  0.5966840000000 1.0
C      1  0.5780780000000  0.4771050000000  0.5509610000000 1.0
C      1  0.4824020000000  0.5747340000000  0.5511710000000 1.0
C      1  0.4276530000000  0.4311800000000  0.5576610000000 1.0
C      1  0.6030290000000  0.5204580000000  0.5660710000000 1.0
C      1  0.4739440000000  0.4097780000000  0.5596940000000 1.0
C      1  0.4305730000000  0.5697460000000  0.5580340000000 1.0
C      1  0.5254040000000  0.5128290000000  0.5058090000000 1.0
C      1  0.4780320000000  0.5129350000000  0.5069310000000 1.0
C      1  0.5011370000000  0.4718580000000  0.5023990000000 1.0
C      1  0.5244960000000  0.4852800000000  0.5064960000000 1.0
C      1  0.4773890000000  0.4857890000000  0.5034730000000 1.0
C      1  0.5022440000000  0.5271590000000  0.4980660000000 1.0
C      1  0.4782780000000  0.3840940000000  0.4692320000000 1.0
C      1  0.6103240000000  0.5446220000000  0.4732760000000 1.0
C      1  0.4168450000000  0.5677030000000  0.4602160000000 1.0
C      1  0.4788640000000  0.6128920000000  0.4630620000000 1.0
C      1  0.6050330000000  0.4656590000000  0.4592790000000 1.0
C      1  0.4063710000000  0.4310940000000  0.4675940000000 1.0
C      1  0.6063150000000  0.5140240000000  0.5382400000000 1.0
C      1  0.4384390000000  0.5787170000000  0.5315730000000 1.0
C      1  0.4622940000000  0.4084230000000  0.5335720000000 1.0
C      1  0.5967630000000  0.4874010000000  0.5306830000000 1.0
C      1  0.4364880000000  0.4214890000000  0.5322180000000 1.0
C      1  0.4660210000000  0.5888390000000  0.5317140000000 1.0
C      1  0.4742500000000  0.4812460000000  0.6296770000000 1.0
C      1  0.5175940000000  0.4921780000000  0.6437980000000 1.0
C      1  0.4829940000000  0.5256440000000  0.6428990000000 1.0
C      1  0.4650650000000  0.5084670000000  0.6291350000000 1.0
C      1  0.5079920000000  0.5170460000000  0.6500000000000 1.0
C      1  0.5014120000000  0.4732460000000  0.6297770000000 1.0
C      1  0.5651020000000  0.5134300000000  0.4863650000000 1.0
C      1  0.4551280000000  0.5498400000000  0.4949760000000 1.0
C      1  0.4792360000000  0.4332210000000  0.4924550000000 1.0
C      1  0.5666950000000  0.4841550000000  0.4908540000000 1.0
C      1  0.4537620000000  0.4480740000000  0.4927440000000 1.0
C      1  0.4805360000000  0.5660610000000  0.4921690000000 1.0
C      1  0.4773080000000  0.5932370000000  0.5055930000000 1.0
C      1  0.4306550000000  0.4324710000000  0.5064340000000 1.0
C      1  0.5935970000000  0.4760890000000  0.5033880000000 1.0
C      1  0.4755650000000  0.4067890000000  0.5084830000000 1.0
C      1  0.4317890000000  0.5670910000000  0.5057110000000 1.0
C      1  0.6089830000000  0.5357970000000  0.5207360000000 1.0
C      1  0.4729740000000  0.4819970000000  0.4493880000000 1.0
C      1  0.5217250000000  0.4849510000000  0.4609920000000 1.0
C      1  0.5012600000000  0.5288930000000  0.4671760000000 1.0
C      1  0.4767780000000  0.5181830000000  0.4555050000000 1.0
C      1  0.5240760000000  0.5152140000000  0.4541000000000 1.0
C      1  0.4991840000000  0.4678750000000  0.4476420000000 1.0
C      1  0.4307150000000  0.5123370000000  0.5562830000000 1.0
C      1  0.5253710000000  0.4271300000000  0.5501570000000 1.0
C      1  0.5541860000000  0.5558010000000  0.5500360000000 1.0
C      1  0.4299800000000  0.4852730000000  0.5529830000000 1.0
C      1  0.5348020000000  0.5725420000000  0.5527140000000 1.0
C      1  0.5502820000000  0.4329090000000  0.5537150000000 1.0
C      1  0.5175670000000  0.5041810000000  0.3667850000000 1.0
C      1  0.4726860000000  0.5063210000000  0.3747150000000 1.0
C      1  0.4970240000000  0.4692910000000  0.3932760000000 1.0
C      1  0.5140640000000  0.4770310000000  0.3710030000000 1.0
C      1  0.4718290000000  0.4846200000000  0.3938420000000 1.0
C      1  0.4977400000000  0.5208890000000  0.3797330000000 1.0
C      1  0.4953970000000  0.5589180000000  0.4636580000000 1.0
C      1  0.4503640000000  0.4668480000000  0.4611320000000 1.0
C      1  0.5491420000000  0.4727210000000  0.4625530000000 1.0
C      1  0.4956880000000  0.4391870000000  0.4589290000000 1.0
C      1  0.4540060000000  0.5302690000000  0.4700400000000 1.0
C      1  0.5532610000000  0.5250790000000  0.4594510000000 1.0
C      1  0.5508310000000  0.5300480000000  0.5389190000000 1.0
C      1  0.4543550000000  0.5247040000000  0.5460000000000 1.0
C      1  0.5058880000000  0.4440370000000  0.5388170000000 1.0
C      1  0.5520690000000  0.4712440000000  0.5407620000000 1.0
C      1  0.4535360000000  0.4737900000000  0.5413340000000 1.0
C      1  0.5012770000000  0.5552460000000  0.5400050000000 1.0
C      1  0.4732280000000  0.5249950000000  0.4249530000000 1.0
C      1  0.5116090000000  0.4679450000000  0.4181870000000 1.0
C      1  0.5227340000000  0.5136520000000  0.4229260000000 1.0
C      1  0.4641850000000  0.4941800000000  0.4182680000000 1.0
C      1  0.5003640000000  0.5256260000000  0.4087520000000 1.0
C      1  0.5357220000000  0.4862530000000  0.4181210000000 1.0
C      1  0.6182100000000  0.4915400000000  0.4613860000000 1.0
C      1  0.4498400000000  0.6111610000000  0.4640640000000 1.0
C      1  0.4253840000000  0.4070140000000  0.4646610000000 1.0
C      1  0.6192880000000  0.5180170000000  0.4674010000000 1.0
C      1  0.4487550000000  0.3915990000000  0.4672650000000 1.0
C      1  0.4290460000000  0.5940280000000  0.4597720000000 1.0
C      1  0.5260250000000  0.5725500000000  0.5018880000000 1.0
C      1  0.4264150000000  0.4856710000000  0.5003670000000 1.0
C      1  0.5518190000000  0.4411160000000  0.5024980000000 1.0
C      1  0.5255630000000  0.4270080000000  0.4957030000000 1.0
C      1  0.4256710000000  0.5152280000000  0.5084500000000 1.0
C      1  0.5513300000000  0.5570510000000  0.4952780000000 1.0
C      1  0.3780400000000  0.4875210000000  0.5022000000000 1.0
C      1  0.5737600000000  0.4015080000000  0.4945750000000 1.0
C      1  0.5493080000000  0.6128390000000  0.4967610000000 1.0
C      1  0.3790830000000  0.5147680000000  0.4985430000000 1.0
C      1  0.5730570000000  0.5994360000000  0.5012040000000 1.0
C      1  0.5503280000000  0.3870930000000  0.4989030000000 1.0
C      1  0.4356950000000  0.4512260000000  0.4390240000000 1.0
C      1  0.5630170000000  0.4832080000000  0.4355830000000 1.0
C      1  0.4769400000000  0.5705320000000  0.4410210000000 1.0
C      1  0.4571200000000  0.5520120000000  0.4249830000000 1.0
C      1  0.5705780000000  0.5124020000000  0.4378680000000 1.0
C      1  0.4848660000000  0.4192330000000  0.4382440000000 1.0
C      1  0.5488750000000  0.4698280000000  0.5113940000000 1.0
C      1  0.5029560000000  0.5547040000000  0.5102320000000 1.0
C      1  0.4524590000000  0.4724710000000  0.5110010000000 1.0
C      1  0.5505080000000  0.5284290000000  0.5083100000000 1.0
C      1  0.5026000000000  0.4433430000000  0.5084520000000 1.0
C      1  0.4538200000000  0.5275320000000  0.5160510000000 1.0
C      1  0.4683500000000  0.4237250000000  0.4165590000000 1.0
C      1  0.5851880000000  0.5245190000000  0.4174490000000 1.0
C      1  0.4517320000000  0.5624610000000  0.3979090000000 1.0
C      1  0.4486950000000  0.5742800000000  0.3748970000000 1.0
C      1  0.5957210000000  0.5330390000000  0.3951640000000 1.0
C      1  0.4458060000000  0.4379500000000  0.4170100000000 1.0
C      1  0.5242770000000  0.5692910000000  0.4540140000000 1.0
C      1  0.4289370000000  0.4868230000000  0.4702670000000 1.0
C      1  0.5478850000000  0.4427870000000  0.4550750000000 1.0
C      1  0.5248870000000  0.4274350000000  0.4647900000000 1.0
C      1  0.4325010000000  0.5143500000000  0.4633200000000 1.0
C      1  0.5503320000000  0.5558280000000  0.4630260000000 1.0
C      1  0.5036110000000  0.4701910000000  0.5515020000000 1.0
C      1  0.5290920000000  0.5142410000000  0.5517420000000 1.0
C      1  0.4792280000000  0.5129770000000  0.5553550000000 1.0
C      1  0.5034590000000  0.5280060000000  0.5526790000000 1.0
C      1  0.5286780000000  0.4852630000000  0.5528500000000 1.0
C      1  0.4787800000000  0.4838380000000  0.5529630000000 1.0
C      1  0.4150130000000  0.5209490000000  0.4430220000000 1.0
C      1  0.5221450000000  0.3994940000000  0.4524380000000 1.0
C      1  0.5743150000000  0.5684040000000  0.4500300000000 1.0
C      1  0.4052310000000  0.4822460000000  0.4513350000000 1.0
C      1  0.5172940000000  0.5930140000000  0.4388210000000 1.0
C      1  0.5706640000000  0.4374950000000  0.4383410000000 1.0
C      1  0.4102940000000  0.5576570000000  0.4880290000000 1.0
C      1  0.4932040000000  0.3880020000000  0.4951810000000 1.0
C      1  0.6011200000000  0.5527230000000  0.4996730000000 1.0
C      1  0.4055530000000  0.4415920000000  0.4951910000000 1.0
C      1  0.4947380000000  0.6096110000000  0.4887620000000 1.0
C      1  0.5985040000000  0.4520930000000  0.4863260000000 1.0
C      1  0.5780440000000  0.5709770000000  0.5012460000000 1.0
C      1  0.4025830000000  0.5310020000000  0.4984140000000 1.0
C      1  0.5222260000000  0.3958570000000  0.4997870000000 1.0
C      1  0.5782390000000  0.4303070000000  0.4938250000000 1.0
C      1  0.4002860000000  0.4693980000000  0.5026060000000 1.0
C      1  0.5230400000000  0.6012770000000  0.4950590000000 1.0
C      1  0.5105310000000  0.4541740000000  0.6107400000000 1.0
C      1  0.5431730000000  0.5409310000000  0.6045010000000 1.0
C      1  0.4439630000000  0.5132840000000  0.6106840000000 1.0
C      1  0.5192830000000  0.5533060000000  0.6038900000000 1.0
C      1  0.5379390000000  0.4559030000000  0.6037780000000 1.0
C      1  0.4316460000000  0.4886690000000  0.6025330000000 1.0
C      1  0.4467300000000  0.5605450000000  0.5805950000000 1.0
C      1  0.4696850000000  0.4284100000000  0.5813960000000 1.0
C      1  0.5837040000000  0.5107990000000  0.5845970000000 1.0
C      1  0.4428940000000  0.4401150000000  0.5806200000000 1.0
C      1  0.4744960000000  0.5688430000000  0.5782580000000 1.0
C      1  0.5770480000000  0.4834210000000  0.5792200000000 1.0
END
