TITL C-74085-4933-264 -0.00676905784057451 125000 -535.220711368109 0 0 88 (C1) n - 1
REM
REM in /home/nfs/bkarasulu/CARBON/AIRSS/Generating-Clusters/LCBOP/Higher-Symm/SD-CG/FIRE-CG
REM
REM
REM
REM
REM
REM ./C.cell (b20cbc046b6831c77cfcea5457e17084)
REM AIRSS Version 0.9.1 bugfix July 2018 build 013d7b7c2542+ Fri, 06 Jul 2018 19:26:36 +0100
REM compiler GCC version 9.2.1 20190827 (Red Hat 9.2.1-1)
REM options -cpp -mtune=generic -march=x86-64 -g -O0 -fpre-include=/usr/include/finclude/math-vector-fortran.h
REM seed -2038895817 425603068 1510527366 -270661458 -1159048143 -1716804176 -1593331056 -251104289 -963344205 1650580125 855940005 -1152171418 1504004018 -139097999 -1970933419 2056594501 -1855608668 -1786552071 1430515084 2068329416 -125325999 1222161076 1802035503 -1328294674 1156769200 1970955335 -1427708908 -826753713 -1408102824 -1032884664 -283144951 -1291818783 1704112938
REM
CELL 1.54180   50.00000   50.00000   50.00000   90.00000   90.00000   90.00000
LATT -1
SFAC C  
C      1  0.5371210000000  0.5869730000000  0.4836430000000 1.0
C      1  0.4787850000000  0.4107870000000  0.5050660000000 1.0
C      1  0.4985090000000  0.4184540000000  0.4847300000000 1.0
C      1  0.5230300000000  0.5982020000000  0.5061120000000 1.0
C      1  0.4952820000000  0.5900370000000  0.4669000000000 1.0
C      1  0.5195290000000  0.4202780000000  0.5274430000000 1.0
C      1  0.4900410000000  0.4230530000000  0.4579500000000 1.0
C      1  0.5452420000000  0.6008140000000  0.5245610000000 1.0
C      1  0.4752040000000  0.4166820000000  0.5527270000000 1.0
C      1  0.5353330000000  0.5661570000000  0.4427830000000 1.0
C      1  0.4161970000000  0.5038590000000  0.4941120000000 1.0
C      1  0.5644360000000  0.4824940000000  0.5214020000000 1.0
C      1  0.4499030000000  0.4247010000000  0.5409970000000 1.0
C      1  0.5553590000000  0.5526690000000  0.4602690000000 1.0
C      1  0.5698650000000  0.5802080000000  0.5606920000000 1.0
C      1  0.4724850000000  0.4407220000000  0.4162800000000 1.0
C      1  0.4822800000000  0.5702600000000  0.5116430000000 1.0
C      1  0.5257620000000  0.4558940000000  0.4921940000000 1.0
C      1  0.3595240000000  0.4580800000000  0.6184140000000 1.0
C      1  0.5543400000000  0.5143110000000  0.3853430000000 1.0
C      1  0.5482700000000  0.5948170000000  0.5522190000000 1.0
C      1  0.4942840000000  0.4428240000000  0.4356480000000 1.0
C      1  0.5889020000000  0.5692590000000  0.5441980000000 1.0
C      1  0.4462470000000  0.4379710000000  0.4238550000000 1.0
C      1  0.4283810000000  0.4392900000000  0.5517340000000 1.0
C      1  0.5764960000000  0.5345430000000  0.4668780000000 1.0
C      1  0.4635770000000  0.4109480000000  0.4561260000000 1.0
C      1  0.5710220000000  0.5944590000000  0.5105980000000 1.0
C      1  0.4890820000000  0.5273900000000  0.4811680000000 1.0
C      1  0.5002080000000  0.4869260000000  0.5265900000000 1.0
C      1  0.5360920000000  0.5237340000000  0.5764350000000 1.0
C      1  0.4633180000000  0.4997850000000  0.4323410000000 1.0
C      1  0.5151130000000  0.5182170000000  0.4711580000000 1.0
C      1  0.4724660000000  0.4795590000000  0.5306630000000 1.0
C      1  0.5869970000000  0.4654930000000  0.5156740000000 1.0
C      1  0.3898710000000  0.5109820000000  0.5038820000000 1.0
C      1  0.5865210000000  0.5701290000000  0.5149640000000 1.0
C      1  0.4419980000000  0.4285910000000  0.4506670000000 1.0
C      1  0.4258430000000  0.4961290000000  0.4683540000000 1.0
C      1  0.5640520000000  0.5057980000000  0.5379780000000 1.0
C      1  0.5387760000000  0.4605400000000  0.4675530000000 1.0
C      1  0.4742900000000  0.5744650000000  0.5383330000000 1.0
C      1  0.4880280000000  0.4898070000000  0.4262560000000 1.0
C      1  0.5192810000000  0.5422160000000  0.5862160000000 1.0
C      1  0.5237340000000  0.5887490000000  0.4584960000000 1.0
C      1  0.4928370000000  0.4084790000000  0.5308290000000 1.0
C      1  0.5856870000000  0.5432900000000  0.5013120000000 1.0
C      1  0.4339260000000  0.4465110000000  0.4714380000000 1.0
C      1  0.5157780000000  0.5556500000000  0.4250040000000 1.0
C      1  0.4892860000000  0.4259210000000  0.5754270000000 1.0
C      1  0.5808590000000  0.5247810000000  0.5235740000000 1.0
C      1  0.4194120000000  0.4691450000000  0.4626780000000 1.0
C      1  0.4513470000000  0.5043280000000  0.4579260000000 1.0
C      1  0.5392770000000  0.5104350000000  0.5518810000000 1.0
C      1  0.5158640000000  0.4320580000000  0.5743620000000 1.0
C      1  0.4891730000000  0.5614620000000  0.4280150000000 1.0
C      1  0.5070870000000  0.4694660000000  0.4334730000000 1.0
C      1  0.4988840000000  0.5586620000000  0.5809010000000 1.0
C      1  0.5737790000000  0.5070560000000  0.4557930000000 1.0
C      1  0.4089020000000  0.4597990000000  0.5548250000000 1.0
C      1  0.5307960000000  0.4293920000000  0.5516720000000 1.0
C      1  0.4786520000000  0.5773890000000  0.4476680000000 1.0
C      1  0.5373090000000  0.5389340000000  0.5037230000000 1.0
C      1  0.4459990000000  0.4475090000000  0.4980550000000 1.0
C      1  0.4538700000000  0.4239390000000  0.5116670000000 1.0
C      1  0.5457810000000  0.5604310000000  0.4874190000000 1.0
C      1  0.5560060000000  0.4931270000000  0.4948730000000 1.0
C      1  0.4267780000000  0.4875120000000  0.5165980000000 1.0
C      1  0.4060930000000  0.4811250000000  0.5363170000000 1.0
C      1  0.5785540000000  0.4878510000000  0.4761530000000 1.0
C      1  0.3839390000000  0.4977110000000  0.5275950000000 1.0
C      1  0.5957250000000  0.4695000000000  0.4896780000000 1.0
C      1  0.3920000000000  0.4588680000000  0.5770910000000 1.0
C      1  0.5536130000000  0.4965380000000  0.4364390000000 1.0
C      1  0.5062290000000  0.4747750000000  0.5008610000000 1.0
C      1  0.4905510000000  0.5435320000000  0.5050240000000 1.0
C      1  0.4853760000000  0.4809600000000  0.4825580000000 1.0
C      1  0.5136530000000  0.5348440000000  0.5199770000000 1.0
C      1  0.5540980000000  0.5059750000000  0.4100310000000 1.0
C      1  0.3756520000000  0.4584430000000  0.5979350000000 1.0
C      1  0.4819860000000  0.5699660000000  0.5635690000000 1.0
C      1  0.5337920000000  0.4754100000000  0.4437990000000 1.0
C      1  0.5151730000000  0.5102120000000  0.5353800000000 1.0
C      1  0.4718460000000  0.5054480000000  0.4773050000000 1.0
C      1  0.5376940000000  0.5137970000000  0.4883660000000 1.0
C      1  0.4497600000000  0.4715980000000  0.5145450000000 1.0
C      1  0.4951630000000  0.5915410000000  0.4971100000000 1.0
C      1  0.5207360000000  0.4293790000000  0.4999110000000 1.0
END
