TITL C-74086-5274-400 -1273992.00929736 125000 -559.907273107366 0 0 97 (C1) n - 1
REM
REM in /home/nfs/bkarasulu/CARBON/AIRSS/Generating-Clusters/LCBOP/Higher-Symm/SD-CG/FIRE-CG
REM
REM
REM
REM
REM
REM ./C.cell (b20cbc046b6831c77cfcea5457e17084)
REM AIRSS Version 0.9.1 bugfix July 2018 build 013d7b7c2542+ Fri, 06 Jul 2018 19:26:36 +0100
REM compiler GCC version 9.2.1 20190827 (Red Hat 9.2.1-1)
REM options -cpp -mtune=generic -march=x86-64 -g -O0 -fpre-include=/usr/include/finclude/math-vector-fortran.h
REM seed 525970896 -2136806956 1932505634 -1801386185 -1157282663 -1778873831 -1271840592 901291329 98502739 -950136421 -1649133853 -444119836 -1867228025 -681145665 -1471091154 -1149793777 1972371291 1042353919 -1251081956 -592654409 3175691 -1335634936 -1209198825 1415975018 1555246490 -141787035 1437013251 1076760396 1064504798 392769171 -321148471 799613165 -896349923
REM
CELL 1.54180   50.00000   50.00000   50.00000   90.00000   90.00000   90.00000
LATT -1
SFAC C  
C      1  0.4454250000000  0.4886790000000  0.4296650000000 1.0
C      1  0.4225960000000  0.4397680000000  0.5022650000000 1.0
C      1  0.4892620000000  0.4426970000000  0.4408680000000 1.0
C      1  0.4454100000000  0.5175360000000  0.5575320000000 1.0
C      1  0.5581830000000  0.5097880000000  0.4331940000000 1.0
C      1  0.5583330000000  0.4805910000000  0.5588500000000 1.0
C      1  0.4428550000000  0.5536090000000  0.5142320000000 1.0
C      1  0.5652210000000  0.5565180000000  0.4850210000000 1.0
C      1  0.5560040000000  0.4429910000000  0.5167330000000 1.0
C      1  0.4754620000000  0.5616640000000  0.5546200000000 1.0
C      1  0.5185030000000  0.5591050000000  0.4445910000000 1.0
C      1  0.5129990000000  0.4413550000000  0.5540500000000 1.0
C      1  0.5585880000000  0.4812210000000  0.4417780000000 1.0
C      1  0.5613640000000  0.4407650000000  0.4834430000000 1.0
C      1  0.5185630000000  0.4433400000000  0.4420380000000 1.0
C      1  0.5590070000000  0.5107720000000  0.5602100000000 1.0
C      1  0.4401840000000  0.5185840000000  0.4369650000000 1.0
C      1  0.4441450000000  0.4862800000000  0.5621370000000 1.0
C      1  0.5761550000000  0.5571890000000  0.5135850000000 1.0
C      1  0.4417450000000  0.5514470000000  0.4825230000000 1.0
C      1  0.4382400000000  0.4423680000000  0.5271050000000 1.0
C      1  0.5035780000000  0.5706170000000  0.5554680000000 1.0
C      1  0.4843300000000  0.5571600000000  0.4443290000000 1.0
C      1  0.4851740000000  0.4427820000000  0.5550810000000 1.0
C      1  0.5246390000000  0.4355060000000  0.5251710000000 1.0
C      1  0.5320860000000  0.5293460000000  0.4386060000000 1.0
C      1  0.4374730000000  0.5261720000000  0.5271400000000 1.0
C      1  0.5305750000000  0.5652480000000  0.4738460000000 1.0
C      1  0.4628870000000  0.5707000000000  0.5284820000000 1.0
C      1  0.4758620000000  0.4337020000000  0.4644070000000 1.0
C      1  0.5274320000000  0.4698610000000  0.5602480000000 1.0
C      1  0.4742100000000  0.4739470000000  0.4322940000000 1.0
C      1  0.4723100000000  0.5316830000000  0.5639760000000 1.0
C      1  0.4202310000000  0.4625340000000  0.4841540000000 1.0
C      1  0.5657590000000  0.4711810000000  0.5304190000000 1.0
C      1  0.5748530000000  0.5296330000000  0.4759000000000 1.0
C      1  0.4690150000000  0.4341760000000  0.5263060000000 1.0
C      1  0.4707160000000  0.5293340000000  0.4369210000000 1.0
C      1  0.5730290000000  0.5295920000000  0.5289260000000 1.0
C      1  0.4711770000000  0.5609740000000  0.4726810000000 1.0
C      1  0.5199310000000  0.5705530000000  0.5309350000000 1.0
C      1  0.5312860000000  0.4385660000000  0.4707570000000 1.0
C      1  0.4735370000000  0.4744660000000  0.5658550000000 1.0
C      1  0.5292720000000  0.4717100000000  0.4355880000000 1.0
C      1  0.5336980000000  0.5232300000000  0.5668520000000 1.0
C      1  0.5695470000000  0.4698720000000  0.4734020000000 1.0
C      1  0.4365790000000  0.4727880000000  0.5350940000000 1.0
C      1  0.4302390000000  0.5228950000000  0.4687410000000 1.0
C      1  0.5911050000000  0.4830920000000  0.5176130000000 1.0
C      1  0.5176860000000  0.5888640000000  0.4862840000000 1.0
C      1  0.4887140000000  0.5176190000000  0.5881370000000 1.0
C      1  0.5966920000000  0.5126410000000  0.4827640000000 1.0
C      1  0.4105740000000  0.5155040000000  0.5229130000000 1.0
C      1  0.4038810000000  0.4835850000000  0.4934240000000 1.0
C      1  0.5132510000000  0.4119440000000  0.5109190000000 1.0
C      1  0.4799770000000  0.4111240000000  0.4802680000000 1.0
C      1  0.4799300000000  0.5882490000000  0.5116650000000 1.0
C      1  0.4891090000000  0.4870030000000  0.4096410000000 1.0
C      1  0.5155750000000  0.4807990000000  0.5864190000000 1.0
C      1  0.5155260000000  0.5220980000000  0.4149810000000 1.0
C      1  0.4103380000000  0.4875340000000  0.5223170000000 1.0
C      1  0.4770820000000  0.5871430000000  0.4838290000000 1.0
C      1  0.5180900000000  0.5204220000000  0.5896300000000 1.0
C      1  0.4056340000000  0.5106090000000  0.4830960000000 1.0
C      1  0.5948040000000  0.5113910000000  0.5222980000000 1.0
C      1  0.5933990000000  0.4832520000000  0.4866510000000 1.0
C      1  0.4827190000000  0.4112260000000  0.5097350000000 1.0
C      1  0.5194350000000  0.4134760000000  0.4830860000000 1.0
C      1  0.5094760000000  0.5891220000000  0.5127960000000 1.0
C      1  0.5170900000000  0.4823200000000  0.4104460000000 1.0
C      1  0.4878500000000  0.4868570000000  0.5882180000000 1.0
C      1  0.4880160000000  0.5167480000000  0.4143660000000 1.0
C      1  0.5160430000000  0.5415840000000  0.4870260000000 1.0
C      1  0.4883070000000  0.5197760000000  0.5414840000000 1.0
C      1  0.5444750000000  0.4888920000000  0.5179550000000 1.0
C      1  0.5090360000000  0.4590680000000  0.5095320000000 1.0
C      1  0.4669940000000  0.4554690000000  0.4802330000000 1.0
C      1  0.4833130000000  0.5225220000000  0.5113550000000 1.0
C      1  0.4871690000000  0.4894780000000  0.4554540000000 1.0
C      1  0.5161950000000  0.4829110000000  0.5301840000000 1.0
C      1  0.5267310000000  0.5184280000000  0.4674910000000 1.0
C      1  0.5510580000000  0.5125370000000  0.4817610000000 1.0
C      1  0.4568860000000  0.5085460000000  0.5093100000000 1.0
C      1  0.4455860000000  0.4732810000000  0.4757040000000 1.0
C      1  0.4865250000000  0.5377980000000  0.4859790000000 1.0
C      1  0.5162510000000  0.5277520000000  0.5446630000000 1.0
C      1  0.4641600000000  0.4816690000000  0.5208170000000 1.0
C      1  0.4785620000000  0.4583120000000  0.5074570000000 1.0
C      1  0.5227160000000  0.4677270000000  0.4826870000000 1.0
C      1  0.5269850000000  0.5413930000000  0.5204130000000 1.0
C      1  0.5145000000000  0.4860080000000  0.4601330000000 1.0
C      1  0.4861360000000  0.4893690000000  0.5421900000000 1.0
C      1  0.4767430000000  0.5145780000000  0.4655730000000 1.0
C      1  0.4516290000000  0.5034240000000  0.4805470000000 1.0
C      1  0.5486190000000  0.5222550000000  0.5160610000000 1.0
C      1  0.5478450000000  0.4837920000000  0.4892150000000 1.0
C      1  0.5039700000000  0.5020230000000  0.5045350000000 1.0
END
