TITL C-74081-2727-225 -1.06052282136663e-06 125000 -938.57259758516 0 0 152 (C1) n - 1
REM
REM in /home/nfs/bkarasulu/CARBON/AIRSS/Generating-Clusters/LCBOP/Higher-Symm/SD-CG/FIRE-CG
REM
REM
REM
REM
REM
REM ./C.cell (b20cbc046b6831c77cfcea5457e17084)
REM AIRSS Version 0.9.1 bugfix July 2018 build 013d7b7c2542+ Fri, 06 Jul 2018 19:26:36 +0100
REM compiler GCC version 9.2.1 20190827 (Red Hat 9.2.1-1)
REM options -cpp -mtune=generic -march=x86-64 -g -O0 -fpre-include=/usr/include/finclude/math-vector-fortran.h
REM seed 2091692095 742062882 -141649313 1442056611 -456445364 -1499719221 -1494057631 -1304003470 -293129646 -1534810071 -101767218 -1652720445 1478837807 1371480067 -1224052736 -745998155 1396033524 1322148600 -995593081 -1652398563 2006098136 1343570115 -1966882280 304052044 370054040 -861943646 -1533759171 1495225667 1232330820 -1945545060 -1580393750 -923292634 -727587310
REM
CELL 1.54180   50.00000   50.00000   50.00000   90.00000   90.00000   90.00000
LATT -1
SFAC C  
C      1  0.4582070000000  0.4757440000000  0.4473310000000 1.0
C      1  0.5241630000000  0.4799480000000  0.4285190000000 1.0
C      1  0.5600660000000  0.4835990000000  0.4890700000000 1.0
C      1  0.5569670000000  0.4834650000000  0.5185080000000 1.0
C      1  0.4921550000000  0.4884840000000  0.5573130000000 1.0
C      1  0.4651300000000  0.4872880000000  0.5435870000000 1.0
C      1  0.4478870000000  0.4741410000000  0.4746490000000 1.0
C      1  0.5441660000000  0.4447770000000  0.4561130000000 1.0
C      1  0.5571180000000  0.4405280000000  0.5051930000000 1.0
C      1  0.5308320000000  0.4509780000000  0.5491500000000 1.0
C      1  0.4814020000000  0.4445490000000  0.5510780000000 1.0
C      1  0.4478840000000  0.4435830000000  0.5144110000000 1.0
C      1  0.4563760000000  0.4316760000000  0.4630210000000 1.0
C      1  0.4971710000000  0.4404640000000  0.4359290000000 1.0
C      1  0.5115870000000  0.5190470000000  0.3996110000000 1.0
C      1  0.5817680000000  0.5178960000000  0.4551340000000 1.0
C      1  0.5948170000000  0.5120730000000  0.5307580000000 1.0
C      1  0.5176290000000  0.5205720000000  0.5906680000000 1.0
C      1  0.4578540000000  0.5324920000000  0.5618150000000 1.0
C      1  0.4158790000000  0.4864320000000  0.5072650000000 1.0
C      1  0.4231150000000  0.5103960000000  0.4324790000000 1.0
C      1  0.4586100000000  0.5214880000000  0.3696440000000 1.0
C      1  0.5892260000000  0.5202230000000  0.4029620000000 1.0
C      1  0.6227700000000  0.5135860000000  0.4723630000000 1.0
C      1  0.5514810000000  0.5000040000000  0.6102990000000 1.0
C      1  0.4695390000000  0.5147080000000  0.6147860000000 1.0
C      1  0.4044400000000  0.5139120000000  0.5654760000000 1.0
C      1  0.3818600000000  0.5112760000000  0.4906890000000 1.0
C      1  0.4485870000000  0.3952490000000  0.5172320000000 1.0
C      1  0.4551310000000  0.3837560000000  0.4668830000000 1.0
C      1  0.4998010000000  0.3922010000000  0.4419510000000 1.0
C      1  0.5473000000000  0.3964550000000  0.4607430000000 1.0
C      1  0.5640380000000  0.3930520000000  0.5095980000000 1.0
C      1  0.5333570000000  0.4024280000000  0.5505360000000 1.0
C      1  0.4825450000000  0.3963910000000  0.5557110000000 1.0
C      1  0.5164880000000  0.5686070000000  0.4074270000000 1.0
C      1  0.5856110000000  0.5692330000000  0.4575050000000 1.0
C      1  0.5942230000000  0.5591330000000  0.5480940000000 1.0
C      1  0.5282340000000  0.5698170000000  0.5962370000000 1.0
C      1  0.4384580000000  0.5778860000000  0.5733060000000 1.0
C      1  0.4029320000000  0.5823850000000  0.5038580000000 1.0
C      1  0.4330300000000  0.5628060000000  0.4323030000000 1.0
C      1  0.5679800000000  0.5079310000000  0.4775180000000 1.0
C      1  0.5673340000000  0.5040300000000  0.5343900000000 1.0
C      1  0.4991760000000  0.5123640000000  0.5711040000000 1.0
C      1  0.4513660000000  0.5123230000000  0.5423300000000 1.0
C      1  0.4335670000000  0.4941820000000  0.4869270000000 1.0
C      1  0.4518010000000  0.5006320000000  0.4340260000000 1.0
C      1  0.5221640000000  0.5070620000000  0.4232800000000 1.0
C      1  0.4346940000000  0.4192420000000  0.5220490000000 1.0
C      1  0.4438280000000  0.4072230000000  0.4562840000000 1.0
C      1  0.4991310000000  0.4142350000000  0.4244690000000 1.0
C      1  0.5556550000000  0.4198720000000  0.4476030000000 1.0
C      1  0.5751080000000  0.4188670000000  0.5087660000000 1.0
C      1  0.5380180000000  0.4270380000000  0.5634260000000 1.0
C      1  0.4763130000000  0.4214670000000  0.5667090000000 1.0
C      1  0.5002800000000  0.4109110000000  0.3973670000000 1.0
C      1  0.5741320000000  0.4191430000000  0.4274880000000 1.0
C      1  0.6019800000000  0.4229830000000  0.5112690000000 1.0
C      1  0.5489510000000  0.4283430000000  0.5884240000000 1.0
C      1  0.4656380000000  0.4236200000000  0.5917680000000 1.0
C      1  0.4098300000000  0.4195420000000  0.5333230000000 1.0
C      1  0.4217130000000  0.4064770000000  0.4403050000000 1.0
C      1  0.4743970000000  0.5431170000000  0.6098700000000 1.0
C      1  0.4123790000000  0.5404510000000  0.5566960000000 1.0
C      1  0.3934810000000  0.5377520000000  0.4870790000000 1.0
C      1  0.4552200000000  0.5378570000000  0.3908340000000 1.0
C      1  0.5652980000000  0.5335560000000  0.4048560000000 1.0
C      1  0.6157940000000  0.5391730000000  0.4838360000000 1.0
C      1  0.5677030000000  0.5135800000000  0.5910140000000 1.0
C      1  0.5034060000000  0.5797280000000  0.5872170000000 1.0
C      1  0.4450240000000  0.6006000000000  0.5609380000000 1.0
C      1  0.4213390000000  0.5997390000000  0.4952760000000 1.0
C      1  0.4614660000000  0.5675360000000  0.4312930000000 1.0
C      1  0.5362890000000  0.5709130000000  0.4275260000000 1.0
C      1  0.5839580000000  0.5749630000000  0.4853970000000 1.0
C      1  0.5687700000000  0.5629990000000  0.5599630000000 1.0
C      1  0.4905520000000  0.5917580000000  0.4747380000000 1.0
C      1  0.5194900000000  0.5915900000000  0.4758720000000 1.0
C      1  0.5369100000000  0.5937450000000  0.4994240000000 1.0
C      1  0.5309700000000  0.5920940000000  0.5275810000000 1.0
C      1  0.5058300000000  0.6000720000000  0.5381360000000 1.0
C      1  0.4816470000000  0.6054150000000  0.5239250000000 1.0
C      1  0.4745380000000  0.6016620000000  0.4963470000000 1.0
C      1  0.5287830000000  0.3847320000000  0.4789400000000 1.0
C      1  0.5371880000000  0.3844840000000  0.5060950000000 1.0
C      1  0.5210820000000  0.3879510000000  0.5292380000000 1.0
C      1  0.4929470000000  0.3856500000000  0.5315510000000 1.0
C      1  0.4738610000000  0.3838220000000  0.5106640000000 1.0
C      1  0.4781980000000  0.3794940000000  0.4829160000000 1.0
C      1  0.5025550000000  0.3824930000000  0.4685960000000 1.0
C      1  0.5507170000000  0.5813650000000  0.5462760000000 1.0
C      1  0.5031570000000  0.5984430000000  0.5664620000000 1.0
C      1  0.4597900000000  0.6110290000000  0.5412940000000 1.0
C      1  0.4469750000000  0.6055460000000  0.4908180000000 1.0
C      1  0.4766880000000  0.5821670000000  0.4508370000000 1.0
C      1  0.5321460000000  0.5868030000000  0.4505940000000 1.0
C      1  0.5647930000000  0.5931270000000  0.4941680000000 1.0
C      1  0.5628140000000  0.5320720000000  0.4928220000000 1.0
C      1  0.5491160000000  0.5235600000000  0.5449370000000 1.0
C      1  0.4869180000000  0.5390650000000  0.5628920000000 1.0
C      1  0.4413610000000  0.5298930000000  0.5212920000000 1.0
C      1  0.4364900000000  0.5204830000000  0.4768110000000 1.0
C      1  0.4726260000000  0.5214020000000  0.4354410000000 1.0
C      1  0.5307520000000  0.5264070000000  0.4428710000000 1.0
C      1  0.5348040000000  0.5362930000000  0.4974760000000 1.0
C      1  0.5295790000000  0.5367990000000  0.5274330000000 1.0
C      1  0.5022020000000  0.5421020000000  0.5363280000000 1.0
C      1  0.4636220000000  0.5387390000000  0.5058820000000 1.0
C      1  0.4617550000000  0.5333430000000  0.4787660000000 1.0
C      1  0.4847170000000  0.5288230000000  0.4617640000000 1.0
C      1  0.5151340000000  0.5312110000000  0.4676210000000 1.0
C      1  0.5574910000000  0.5366200000000  0.5716540000000 1.0
C      1  0.4857650000000  0.5573470000000  0.5874250000000 1.0
C      1  0.4164400000000  0.5428460000000  0.5282370000000 1.0
C      1  0.4144910000000  0.5368190000000  0.4680170000000 1.0
C      1  0.4727250000000  0.5444820000000  0.4145450000000 1.0
C      1  0.5517770000000  0.5453220000000  0.4300470000000 1.0
C      1  0.5899760000000  0.5485720000000  0.4991060000000 1.0
C      1  0.4438550000000  0.5046850000000  0.6040430000000 1.0
C      1  0.3892870000000  0.5006360000000  0.5444000000000 1.0
C      1  0.3834790000000  0.4963390000000  0.4652590000000 1.0
C      1  0.4802100000000  0.5066680000000  0.3630550000000 1.0
C      1  0.6089850000000  0.5101460000000  0.4191750000000 1.0
C      1  0.6254610000000  0.4942190000000  0.4930820000000 1.0
C      1  0.5221510000000  0.5031190000000  0.6127870000000 1.0
C      1  0.4211950000000  0.5040030000000  0.5878540000000 1.0
C      1  0.3910410000000  0.4976680000000  0.5156440000000 1.0
C      1  0.4003890000000  0.4951120000000  0.4432770000000 1.0
C      1  0.5037500000000  0.5054560000000  0.3762520000000 1.0
C      1  0.6081770000000  0.5093030000000  0.4476390000000 1.0
C      1  0.6139600000000  0.4954610000000  0.5177710000000 1.0
C      1  0.4944080000000  0.4999600000000  0.6229580000000 1.0
C      1  0.5974100000000  0.5406800000000  0.5272300000000 1.0
C      1  0.5337680000000  0.5437170000000  0.5878850000000 1.0
C      1  0.4363090000000  0.5503920000000  0.5691160000000 1.0
C      1  0.3998850000000  0.5549290000000  0.5088300000000 1.0
C      1  0.4191590000000  0.5392980000000  0.4397290000000 1.0
C      1  0.5006640000000  0.5456330000000  0.4038190000000 1.0
C      1  0.5752340000000  0.5450680000000  0.4477260000000 1.0
C      1  0.4710760000000  0.4492260000000  0.4438530000000 1.0
C      1  0.5216500000000  0.4550190000000  0.4409690000000 1.0
C      1  0.5550310000000  0.4562740000000  0.4799470000000 1.0
C      1  0.5480380000000  0.4576640000000  0.5274340000000 1.0
C      1  0.5048590000000  0.4620800000000  0.5547300000000 1.0
C      1  0.4609390000000  0.4589230000000  0.5352240000000 1.0
C      1  0.4498380000000  0.4480650000000  0.4862680000000 1.0
C      1  0.5027300000000  0.4294460000000  0.4971840000000 1.0
C      1  0.4967960000000  0.5048950000000  0.5064260000000 1.0
C      1  0.5025350000000  0.4550840000000  0.4935290000000 1.0
C      1  0.5012060000000  0.4812670000000  0.4957560000000 1.0
C      1  0.4877860000000  0.5298780000000  0.5154950000000 1.0
END
