TITL C-74079-2735-437 -3.54738145891852e-07 125000 -215.849393233883 0 0 38 (C1) n - 1
REM
REM in /home/nfs/bkarasulu/CARBON/AIRSS/Generating-Clusters/LCBOP/Higher-Symm/SD-CG/FIRE-CG
REM
REM
REM
REM
REM
REM ./C.cell (b20cbc046b6831c77cfcea5457e17084)
REM AIRSS Version 0.9.1 bugfix July 2018 build 013d7b7c2542+ Fri, 06 Jul 2018 19:26:36 +0100
REM compiler GCC version 9.2.1 20190827 (Red Hat 9.2.1-1)
REM options -cpp -mtune=generic -march=x86-64 -g -O0 -fpre-include=/usr/include/finclude/math-vector-fortran.h
REM seed -1047618279 945723601 -1911260900 -1223158091 41717862 -459102630 97054488 -696866914 1671726133 -1140519468 -1790888938 1753141271 2090220057 -723821241 -1068970975 2128196515 654771653 88505988 -470747918 1408179794 1183346213 -837774310 254431112 938170041 -1400154772 653268558 -1746253122 239800242 190928233 1655333318 1987927817 -166467177 251308081
REM
CELL 1.54180   50.00000   50.00000   50.00000   90.00000   90.00000   90.00000
LATT -1
SFAC C  
C      1  0.4376780000000  0.5415730000000  0.4494370000000 1.0
C      1  0.4246460000000  0.4713170000000  0.4847220000000 1.0
C      1  0.4383840000000  0.4481660000000  0.5409880000000 1.0
C      1  0.4372390000000  0.5327560000000  0.5293880000000 1.0
C      1  0.5547770000000  0.5594980000000  0.5566030000000 1.0
C      1  0.5726610000000  0.4726430000000  0.5261870000000 1.0
C      1  0.5595850000000  0.4602130000000  0.4467390000000 1.0
C      1  0.5729020000000  0.5333970000000  0.4823180000000 1.0
C      1  0.4843550000000  0.4753170000000  0.5396810000000 1.0
C      1  0.4841740000000  0.5352980000000  0.5170550000000 1.0
C      1  0.4817500000000  0.5197550000000  0.4520170000000 1.0
C      1  0.4735910000000  0.4694720000000  0.4849790000000 1.0
C      1  0.5144850000000  0.4737130000000  0.4605040000000 1.0
C      1  0.5243240000000  0.5312850000000  0.4793640000000 1.0
C      1  0.5175020000000  0.5210870000000  0.5518740000000 1.0
C      1  0.5250200000000  0.4657530000000  0.5164250000000 1.0
C      1  0.4868070000000  0.5014500000000  0.4307380000000 1.0
C      1  0.4853540000000  0.4442280000000  0.4939180000000 1.0
C      1  0.4942130000000  0.4812790000000  0.5657600000000 1.0
C      1  0.4959550000000  0.5588580000000  0.5062900000000 1.0
C      1  0.5101380000000  0.5023490000000  0.5717380000000 1.0
C      1  0.5099580000000  0.4425110000000  0.5068620000000 1.0
C      1  0.5016280000000  0.4788800000000  0.4353630000000 1.0
C      1  0.5178470000000  0.5567740000000  0.4901620000000 1.0
C      1  0.5509280000000  0.4758140000000  0.5101110000000 1.0
C      1  0.5365430000000  0.5409140000000  0.5555000000000 1.0
C      1  0.5499320000000  0.5184390000000  0.4823130000000 1.0
C      1  0.5426650000000  0.4738820000000  0.4631050000000 1.0
C      1  0.4489030000000  0.4837930000000  0.4861430000000 1.0
C      1  0.4557840000000  0.5256130000000  0.4619850000000 1.0
C      1  0.4571810000000  0.5270250000000  0.5114760000000 1.0
C      1  0.4602170000000  0.4619100000000  0.5371870000000 1.0
C      1  0.5037760000000  0.5166440000000  0.5270790000000 1.0
C      1  0.5008540000000  0.5160930000000  0.4732740000000 1.0
C      1  0.5034170000000  0.4878950000000  0.5165660000000 1.0
C      1  0.4982970000000  0.4879870000000  0.4846370000000 1.0
C      1  0.5516420000000  0.4898170000000  0.4850760000000 1.0
C      1  0.4509150000000  0.5126660000000  0.4872600000000 1.0
END
