TITL C-74084-3399-146 326422.760059704 125000 -592.342529207562 0 0 99 (C1) n - 1
REM
REM in /home/nfs/bkarasulu/CARBON/AIRSS/Generating-Clusters/LCBOP/Higher-Symm/SD-CG/FIRE-CG
REM
REM
REM
REM
REM
REM ./C.cell (b20cbc046b6831c77cfcea5457e17084)
REM AIRSS Version 0.9.1 bugfix July 2018 build 013d7b7c2542+ Fri, 06 Jul 2018 19:26:36 +0100
REM compiler GCC version 9.2.1 20190827 (Red Hat 9.2.1-1)
REM options -cpp -mtune=generic -march=x86-64 -g -O0 -fpre-include=/usr/include/finclude/math-vector-fortran.h
REM seed -844183517 1334280869 887052498 -1462708382 -2049397898 -1266852530 717424924 -594075893 -1544074400 767426623 1540690374 -1587897168 -1425562678 -897468926 1658914569 3732962 1810877355 1403309567 742087887 1818601893 -1211768164 1897913653 -131211731 -1690741960 -1841016821 1918539098 -1495632854 1841360707 676823813 2011133406 1436159188 -2063315151 -1311050017
REM
CELL 1.54180   50.00000   50.00000   50.00000   90.00000   90.00000   90.00000
LATT -1
SFAC C  
C      1  0.5121290000000  0.5502000000000  0.4834330000000 1.0
C      1  0.4888110000000  0.5464760000000  0.5227800000000 1.0
C      1  0.5166460000000  0.5468550000000  0.5126140000000 1.0
C      1  0.4848530000000  0.5468670000000  0.4783030000000 1.0
C      1  0.4724120000000  0.4742220000000  0.5262770000000 1.0
C      1  0.5255690000000  0.4620730000000  0.4717540000000 1.0
C      1  0.4775110000000  0.4739960000000  0.4826760000000 1.0
C      1  0.5199950000000  0.4740080000000  0.5179800000000 1.0
C      1  0.4496370000000  0.4329550000000  0.4727520000000 1.0
C      1  0.5438940000000  0.4307770000000  0.5270440000000 1.0
C      1  0.4528040000000  0.4291580000000  0.5292140000000 1.0
C      1  0.5585420000000  0.4311320000000  0.4725560000000 1.0
C      1  0.4318650000000  0.5589140000000  0.5392750000000 1.0
C      1  0.5657530000000  0.5530310000000  0.4601290000000 1.0
C      1  0.4301100000000  0.5587140000000  0.4568180000000 1.0
C      1  0.5674650000000  0.5541880000000  0.5414900000000 1.0
C      1  0.4712220000000  0.5235490000000  0.4881710000000 1.0
C      1  0.5300410000000  0.5205350000000  0.5108160000000 1.0
C      1  0.4720180000000  0.5237150000000  0.5157410000000 1.0
C      1  0.5308180000000  0.5131660000000  0.4844960000000 1.0
C      1  0.5370400000000  0.4137280000000  0.4823340000000 1.0
C      1  0.4651230000000  0.4082800000000  0.5132220000000 1.0
C      1  0.5350310000000  0.4085220000000  0.5109750000000 1.0
C      1  0.4653620000000  0.4119970000000  0.4841640000000 1.0
C      1  0.4499810000000  0.4816630000000  0.4285630000000 1.0
C      1  0.5515930000000  0.4818950000000  0.5691090000000 1.0
C      1  0.4477900000000  0.4813610000000  0.5724000000000 1.0
C      1  0.5545220000000  0.4825260000000  0.4298600000000 1.0
C      1  0.4738960000000  0.5729830000000  0.5259400000000 1.0
C      1  0.5273100000000  0.5745090000000  0.4732590000000 1.0
C      1  0.4696830000000  0.5728370000000  0.4757410000000 1.0
C      1  0.5311010000000  0.5731150000000  0.5208620000000 1.0
C      1  0.5762270000000  0.4925170000000  0.4852700000000 1.0
C      1  0.4235890000000  0.4919690000000  0.5149060000000 1.0
C      1  0.5753290000000  0.4913210000000  0.5143220000000 1.0
C      1  0.4243250000000  0.4920290000000  0.4857700000000 1.0
C      1  0.4871470000000  0.4938890000000  0.6072660000000 1.0
C      1  0.5155730000000  0.4932300000000  0.3935880000000 1.0
C      1  0.4876550000000  0.4940920000000  0.3934090000000 1.0
C      1  0.5150050000000  0.4945510000000  0.6058330000000 1.0
C      1  0.4861100000000  0.5086850000000  0.5545360000000 1.0
C      1  0.5106790000000  0.5029760000000  0.4465940000000 1.0
C      1  0.4838520000000  0.5068030000000  0.4487330000000 1.0
C      1  0.5131640000000  0.5086360000000  0.5517070000000 1.0
C      1  0.4545550000000  0.4562140000000  0.4876980000000 1.0
C      1  0.5412490000000  0.4555310000000  0.5132470000000 1.0
C      1  0.4534730000000  0.4544650000000  0.5165230000000 1.0
C      1  0.5504590000000  0.4555620000000  0.4863270000000 1.0
C      1  0.4870060000000  0.3935130000000  0.5234150000000 1.0
C      1  0.5132880000000  0.4283160000000  0.4714060000000 1.0
C      1  0.4904120000000  0.4124660000000  0.4710970000000 1.0
C      1  0.5137860000000  0.3928540000000  0.5209340000000 1.0
C      1  0.4645180000000  0.5014950000000  0.4101430000000 1.0
C      1  0.5371430000000  0.5020950000000  0.5874400000000 1.0
C      1  0.4632520000000  0.5014470000000  0.5908300000000 1.0
C      1  0.5376290000000  0.5009340000000  0.4122370000000 1.0
C      1  0.4485430000000  0.4360820000000  0.4448090000000 1.0
C      1  0.5492450000000  0.4338270000000  0.5543380000000 1.0
C      1  0.4491110000000  0.4323060000000  0.5571170000000 1.0
C      1  0.5604040000000  0.4351950000000  0.4442860000000 1.0
C      1  0.5146790000000  0.5975230000000  0.5177410000000 1.0
C      1  0.4856870000000  0.5973470000000  0.4804500000000 1.0
C      1  0.5118320000000  0.5984860000000  0.4785830000000 1.0
C      1  0.4886270000000  0.5971430000000  0.5194320000000 1.0
C      1  0.4577250000000  0.5661640000000  0.4485130000000 1.0
C      1  0.5403210000000  0.5642230000000  0.5483380000000 1.0
C      1  0.4595460000000  0.5656720000000  0.5516280000000 1.0
C      1  0.5385560000000  0.5620900000000  0.4485390000000 1.0
C      1  0.5680870000000  0.4883550000000  0.5423320000000 1.0
C      1  0.4314360000000  0.4892680000000  0.4575700000000 1.0
C      1  0.5700180000000  0.4903810000000  0.4568620000000 1.0
C      1  0.4294130000000  0.4890020000000  0.5434380000000 1.0
C      1  0.4624760000000  0.4552270000000  0.4291900000000 1.0
C      1  0.5395630000000  0.4548680000000  0.5706790000000 1.0
C      1  0.4592930000000  0.4539460000000  0.5728940000000 1.0
C      1  0.5453600000000  0.4541840000000  0.4286270000000 1.0
C      1  0.4182150000000  0.5555320000000  0.4821590000000 1.0
C      1  0.5795270000000  0.5503860000000  0.5164230000000 1.0
C      1  0.4289180000000  0.5610330000000  0.5089940000000 1.0
C      1  0.5709140000000  0.5583810000000  0.4895980000000 1.0
C      1  0.5231770000000  0.4908100000000  0.4682070000000 1.0
C      1  0.4711650000000  0.5014960000000  0.5326980000000 1.0
C      1  0.5247920000000  0.4998900000000  0.5285360000000 1.0
C      1  0.4735280000000  0.5003390000000  0.4731900000000 1.0
C      1  0.4736570000000  0.5239190000000  0.5750070000000 1.0
C      1  0.5243210000000  0.5205780000000  0.4289370000000 1.0
C      1  0.4723160000000  0.5228630000000  0.4283600000000 1.0
C      1  0.5268680000000  0.5240160000000  0.5712880000000 1.0
C      1  0.5183360000000  0.5518470000000  0.5663650000000 1.0
C      1  0.4798980000000  0.5507410000000  0.4321900000000 1.0
C      1  0.5170140000000  0.5481320000000  0.4329370000000 1.0
C      1  0.4813330000000  0.5517950000000  0.5692110000000 1.0
C      1  0.5131200000000  0.4511440000000  0.5804480000000 1.0
C      1  0.4902350000000  0.4503960000000  0.4225770000000 1.0
C      1  0.5175030000000  0.4490710000000  0.4218410000000 1.0
C      1  0.4863390000000  0.4505550000000  0.5812380000000 1.0
C      1  0.4545860000000  0.5722390000000  0.5022880000000 1.0
C      1  0.5486990000000  0.5760270000000  0.4955490000000 1.0
C      1  0.4939850000000  0.4710200000000  0.5070460000000 1.0
END
