TITL C-74082-2733-28 -120.946305610012 125000 -1166.61258101464 0 0 192 (C1) n - 1
REM
REM in /home/nfs/bkarasulu/CARBON/AIRSS/Generating-Clusters/LCBOP/Higher-Symm/SD-CG/FIRE-CG
REM
REM
REM
REM
REM
REM ./C.cell (b20cbc046b6831c77cfcea5457e17084)
REM AIRSS Version 0.9.1 bugfix July 2018 build 013d7b7c2542+ Fri, 06 Jul 2018 19:26:36 +0100
REM compiler GCC version 9.2.1 20190827 (Red Hat 9.2.1-1)
REM options -cpp -mtune=generic -march=x86-64 -g -O0 -fpre-include=/usr/include/finclude/math-vector-fortran.h
REM seed -364178578 423503407 701395553 463924691 1741370613 578185463 -1708455786 1389422140 1651886761 1376743510 -1252384346 1612952846 715827650 2053840982 1666692693 124140379 -729375766 784205517 661874179 -1166602105 1356104105 1340530969 -1364465289 -1617820038 86908100 52324811 -1534111419 931358378 1979933216 1722019167 -2056011966 -553725347 96616622
REM
CELL 1.54180   50.00000   50.00000   50.00000   90.00000   90.00000   90.00000
LATT -1
SFAC C  
C      1  0.4937530000000  0.3344630000000  0.4635740000000 1.0
C      1  0.5129570000000  0.3425540000000  0.5488460000000 1.0
C      1  0.4893300000000  0.6666180000000  0.4647630000000 1.0
C      1  0.5051120000000  0.6683490000000  0.5362010000000 1.0
C      1  0.5256310000000  0.4478470000000  0.3974520000000 1.0
C      1  0.4640820000000  0.4512550000000  0.6005150000000 1.0
C      1  0.5405980000000  0.5462690000000  0.3960880000000 1.0
C      1  0.4636910000000  0.5465630000000  0.6023930000000 1.0
C      1  0.4652730000000  0.4327330000000  0.4234710000000 1.0
C      1  0.5251260000000  0.4379990000000  0.5667690000000 1.0
C      1  0.4820730000000  0.5613450000000  0.4309190000000 1.0
C      1  0.5232820000000  0.5639600000000  0.5660910000000 1.0
C      1  0.4717040000000  0.6396460000000  0.5486090000000 1.0
C      1  0.5233140000000  0.6410840000000  0.4478180000000 1.0
C      1  0.4711190000000  0.3599910000000  0.5425590000000 1.0
C      1  0.5295180000000  0.3603280000000  0.4515250000000 1.0
C      1  0.4127880000000  0.5267130000000  0.5938960000000 1.0
C      1  0.5909410000000  0.5280060000000  0.4171510000000 1.0
C      1  0.4128860000000  0.4721330000000  0.5931320000000 1.0
C      1  0.5622170000000  0.4727410000000  0.4283440000000 1.0
C      1  0.5007340000000  0.5065720000000  0.4254530000000 1.0
C      1  0.5140010000000  0.5159060000000  0.5699620000000 1.0
C      1  0.4875070000000  0.4833740000000  0.4361310000000 1.0
C      1  0.5194840000000  0.4896090000000  0.5615070000000 1.0
C      1  0.4083930000000  0.4855280000000  0.6177530000000 1.0
C      1  0.5806200000000  0.4820630000000  0.4089590000000 1.0
C      1  0.4082480000000  0.5126110000000  0.6180850000000 1.0
C      1  0.5918950000000  0.5048210000000  0.4008390000000 1.0
C      1  0.5084150000000  0.3208940000000  0.4439840000000 1.0
C      1  0.4949880000000  0.3288860000000  0.5653720000000 1.0
C      1  0.5015860000000  0.6807110000000  0.4439290000000 1.0
C      1  0.4889220000000  0.6811030000000  0.5551240000000 1.0
C      1  0.5500650000000  0.5614940000000  0.4488280000000 1.0
C      1  0.4512060000000  0.5386860000000  0.5461420000000 1.0
C      1  0.5304660000000  0.4239460000000  0.4535880000000 1.0
C      1  0.4540520000000  0.4607070000000  0.5462210000000 1.0
C      1  0.5572170000000  0.5158760000000  0.5067460000000 1.0
C      1  0.4525620000000  0.5123500000000  0.4884990000000 1.0
C      1  0.5555040000000  0.4870900000000  0.5059950000000 1.0
C      1  0.4509710000000  0.4836730000000  0.4877230000000 1.0
C      1  0.5767930000000  0.5575460000000  0.5014710000000 1.0
C      1  0.4292470000000  0.5533100000000  0.4991530000000 1.0
C      1  0.5773600000000  0.4493630000000  0.4937770000000 1.0
C      1  0.4274240000000  0.4448320000000  0.5023830000000 1.0
C      1  0.4695100000000  0.3394700000000  0.5615090000000 1.0
C      1  0.5301880000000  0.3366500000000  0.4366420000000 1.0
C      1  0.4685830000000  0.6636260000000  0.5626830000000 1.0
C      1  0.5222720000000  0.6651610000000  0.4336040000000 1.0
C      1  0.4110480000000  0.4633440000000  0.4451200000000 1.0
C      1  0.5894890000000  0.4614100000000  0.5575660000000 1.0
C      1  0.4084310000000  0.5388970000000  0.4444790000000 1.0
C      1  0.5931170000000  0.5432320000000  0.5647580000000 1.0
C      1  0.4343860000000  0.4721610000000  0.5067140000000 1.0
C      1  0.5668860000000  0.4742600000000  0.4822510000000 1.0
C      1  0.4346010000000  0.5256540000000  0.5049220000000 1.0
C      1  0.5735070000000  0.5297730000000  0.4842950000000 1.0
C      1  0.5536110000000  0.4333030000000  0.4960220000000 1.0
C      1  0.4535820000000  0.4325110000000  0.5048040000000 1.0
C      1  0.5549960000000  0.5746760000000  0.4983770000000 1.0
C      1  0.4554100000000  0.5648110000000  0.5031520000000 1.0
C      1  0.4633750000000  0.4221140000000  0.4798170000000 1.0
C      1  0.5427990000000  0.4229730000000  0.5202450000000 1.0
C      1  0.4718110000000  0.5717210000000  0.4805390000000 1.0
C      1  0.5386140000000  0.5792960000000  0.5209540000000 1.0
C      1  0.6026220000000  0.4541250000000  0.5063380000000 1.0
C      1  0.3992800000000  0.4477270000000  0.4965180000000 1.0
C      1  0.6029500000000  0.5543060000000  0.5144560000000 1.0
C      1  0.4005650000000  0.5525790000000  0.4958670000000 1.0
C      1  0.4827250000000  0.5973050000000  0.4784430000000 1.0
C      1  0.5234130000000  0.6025390000000  0.5227510000000 1.0
C      1  0.4786940000000  0.3988710000000  0.4799150000000 1.0
C      1  0.5294010000000  0.3985490000000  0.5203930000000 1.0
C      1  0.5190400000000  0.4658600000000  0.4708560000000 1.0
C      1  0.4941080000000  0.4621760000000  0.5269980000000 1.0
C      1  0.5032350000000  0.5337860000000  0.4640950000000 1.0
C      1  0.4928370000000  0.5392000000000  0.5298610000000 1.0
C      1  0.5023840000000  0.4618170000000  0.4478930000000 1.0
C      1  0.4963510000000  0.4759520000000  0.5527710000000 1.0
C      1  0.5162470000000  0.5251130000000  0.4405320000000 1.0
C      1  0.4929980000000  0.5265830000000  0.5557700000000 1.0
C      1  0.4373940000000  0.4870480000000  0.3995640000000 1.0
C      1  0.5580690000000  0.4849370000000  0.5980360000000 1.0
C      1  0.4384620000000  0.5160650000000  0.4013550000000 1.0
C      1  0.5569190000000  0.5140500000000  0.5967920000000 1.0
C      1  0.4311350000000  0.4749990000000  0.4264610000000 1.0
C      1  0.5687480000000  0.4744900000000  0.5724910000000 1.0
C      1  0.4280820000000  0.5249200000000  0.4281010000000 1.0
C      1  0.5727170000000  0.5257590000000  0.5740860000000 1.0
C      1  0.4651590000000  0.5290740000000  0.3972350000000 1.0
C      1  0.5276250000000  0.5250560000000  0.5958100000000 1.0
C      1  0.4605330000000  0.4713140000000  0.3903590000000 1.0
C      1  0.5338280000000  0.4701030000000  0.6055640000000 1.0
C      1  0.4660680000000  0.5145890000000  0.5562000000000 1.0
C      1  0.5427690000000  0.5333240000000  0.4458430000000 1.0
C      1  0.4680000000000  0.4854370000000  0.5558680000000 1.0
C      1  0.5054640000000  0.4332690000000  0.4433240000000 1.0
C      1  0.4963680000000  0.5730210000000  0.5721270000000 1.0
C      1  0.5068120000000  0.5727100000000  0.4222330000000 1.0
C      1  0.4981100000000  0.4284490000000  0.5704450000000 1.0
C      1  0.4920800000000  0.4233410000000  0.4211940000000 1.0
C      1  0.6495730000000  0.4891250000000  0.5448740000000 1.0
C      1  0.3505250000000  0.4874040000000  0.4637710000000 1.0
C      1  0.6508080000000  0.5157080000000  0.5464340000000 1.0
C      1  0.3498330000000  0.5140410000000  0.4644750000000 1.0
C      1  0.3873190000000  0.5448010000000  0.5218640000000 1.0
C      1  0.6185340000000  0.5440480000000  0.4916640000000 1.0
C      1  0.3851620000000  0.4563970000000  0.5215960000000 1.0
C      1  0.6216490000000  0.4646180000000  0.4873490000000 1.0
C      1  0.3983090000000  0.5152970000000  0.5696720000000 1.0
C      1  0.6055560000000  0.5230140000000  0.4435550000000 1.0
C      1  0.3980690000000  0.4843680000000  0.5694430000000 1.0
C      1  0.6209420000000  0.4984500000000  0.4467130000000 1.0
C      1  0.4813540000000  0.5272970000000  0.6149270000000 1.0
C      1  0.5200810000000  0.5266910000000  0.3870830000000 1.0
C      1  0.4828020000000  0.4693080000000  0.6126020000000 1.0
C      1  0.5115470000000  0.4687510000000  0.3844020000000 1.0
C      1  0.4220140000000  0.4865150000000  0.5264600000000 1.0
C      1  0.5629430000000  0.4862530000000  0.4558640000000 1.0
C      1  0.4208970000000  0.5126540000000  0.5247470000000 1.0
C      1  0.5594340000000  0.5154370000000  0.4595700000000 1.0
C      1  0.4979620000000  0.3800450000000  0.4875770000000 1.0
C      1  0.5089360000000  0.3805600000000  0.5139100000000 1.0
C      1  0.4964410000000  0.6202280000000  0.4866440000000 1.0
C      1  0.5052450000000  0.6217470000000  0.5136820000000 1.0
C      1  0.5466030000000  0.4230140000000  0.6081570000000 1.0
C      1  0.4427200000000  0.4267860000000  0.3807310000000 1.0
C      1  0.5453260000000  0.5702440000000  0.6101670000000 1.0
C      1  0.4500140000000  0.5755490000000  0.3972350000000 1.0
C      1  0.5675320000000  0.5686890000000  0.4279170000000 1.0
C      1  0.4360980000000  0.5533000000000  0.5643770000000 1.0
C      1  0.5503150000000  0.4262410000000  0.4337490000000 1.0
C      1  0.4369510000000  0.4465830000000  0.5628770000000 1.0
C      1  0.4363270000000  0.5433750000000  0.5910370000000 1.0
C      1  0.5694210000000  0.5469360000000  0.4086180000000 1.0
C      1  0.4364170000000  0.4555300000000  0.5898840000000 1.0
C      1  0.5473870000000  0.4498710000000  0.4176470000000 1.0
C      1  0.5062710000000  0.3604140000000  0.4695390000000 1.0
C      1  0.4988530000000  0.3631210000000  0.5332500000000 1.0
C      1  0.5023920000000  0.6405390000000  0.4685020000000 1.0
C      1  0.4951500000000  0.6411930000000  0.5309060000000 1.0
C      1  0.5353550000000  0.4435260000000  0.5937050000000 1.0
C      1  0.4560620000000  0.4433520000000  0.3981550000000 1.0
C      1  0.5332360000000  0.5544220000000  0.5915150000000 1.0
C      1  0.4652420000000  0.5557290000000  0.4084500000000 1.0
C      1  0.5006700000000  0.4821440000000  0.5092610000000 1.0
C      1  0.5119920000000  0.4882110000000  0.4854250000000 1.0
C      1  0.5023850000000  0.5225250000000  0.5104950000000 1.0
C      1  0.5092080000000  0.5170410000000  0.4850730000000 1.0
C      1  0.5081370000000  0.4831780000000  0.6140970000000 1.0
C      1  0.4871920000000  0.4840580000000  0.3858280000000 1.0
C      1  0.5068240000000  0.5128750000000  0.6148730000000 1.0
C      1  0.4925290000000  0.5130050000000  0.3965000000000 1.0
C      1  0.4770120000000  0.5714220000000  0.5934040000000 1.0
C      1  0.5263130000000  0.5718290000000  0.4014380000000 1.0
C      1  0.4770620000000  0.4270880000000  0.5898020000000 1.0
C      1  0.5093150000000  0.4234780000000  0.3984390000000 1.0
C      1  0.5340810000000  0.4408330000000  0.4767090000000 1.0
C      1  0.4695470000000  0.4469570000000  0.5251370000000 1.0
C      1  0.5459610000000  0.5768670000000  0.4718190000000 1.0
C      1  0.4677810000000  0.5529570000000  0.5262540000000 1.0
C      1  0.4613900000000  0.3805790000000  0.6121430000000 1.0
C      1  0.5120330000000  0.3834660000000  0.3626040000000 1.0
C      1  0.4643100000000  0.6172110000000  0.6192930000000 1.0
C      1  0.5364470000000  0.6159240000000  0.3720260000000 1.0
C      1  0.6016930000000  0.5325510000000  0.4707980000000 1.0
C      1  0.3882120000000  0.5320980000000  0.5469490000000 1.0
C      1  0.6260770000000  0.4792660000000  0.4651090000000 1.0
C      1  0.3868700000000  0.4684780000000  0.5468180000000 1.0
C      1  0.4586800000000  0.4395830000000  0.4571720000000 1.0
C      1  0.5385230000000  0.4434280000000  0.5398950000000 1.0
C      1  0.4781320000000  0.5498340000000  0.4604730000000 1.0
C      1  0.5368560000000  0.5577210000000  0.5399620000000 1.0
C      1  0.5482430000000  0.4870500000000  0.5535530000000 1.0
C      1  0.4570640000000  0.4849790000000  0.4412100000000 1.0
C      1  0.5584280000000  0.5150490000000  0.5516740000000 1.0
C      1  0.4488190000000  0.5135450000000  0.4441500000000 1.0
C      1  0.4557500000000  0.4674590000000  0.4648840000000 1.0
C      1  0.5473710000000  0.4707340000000  0.5292940000000 1.0
C      1  0.4588420000000  0.5272050000000  0.4654490000000 1.0
C      1  0.5491310000000  0.5316280000000  0.5307430000000 1.0
C      1  0.4691660000000  0.4022040000000  0.5998570000000 1.0
C      1  0.5109560000000  0.4031140000000  0.3796870000000 1.0
C      1  0.4704420000000  0.5950960000000  0.6069480000000 1.0
C      1  0.5314170000000  0.5942280000000  0.3855550000000 1.0
C      1  0.3665940000000  0.4661820000000  0.4649350000000 1.0
C      1  0.6338290000000  0.4679980000000  0.5408420000000 1.0
C      1  0.3651470000000  0.5357870000000  0.4663220000000 1.0
C      1  0.6365380000000  0.5382230000000  0.5452520000000 1.0
C      1  0.6101440000000  0.5479150000000  0.5418260000000 1.0
C      1  0.3919680000000  0.5445740000000  0.4684580000000 1.0
C      1  0.6075390000000  0.4590390000000  0.5350160000000 1.0
C      1  0.3933120000000  0.4571870000000  0.4685130000000 1.0
END
