TITL C-74081-2727-100 2.05606789283228e-06 125000 -631.044259229243 0 0 110 (Cs) n - 1
REM
REM in /home/nfs/bkarasulu/CARBON/AIRSS/Generating-Clusters/LCBOP/Higher-Symm/SD-CG/FIRE-CG
REM
REM
REM
REM
REM
REM ./C.cell (b20cbc046b6831c77cfcea5457e17084)
REM AIRSS Version 0.9.1 bugfix July 2018 build 013d7b7c2542+ Fri, 06 Jul 2018 19:26:36 +0100
REM compiler GCC version 9.2.1 20190827 (Red Hat 9.2.1-1)
REM options -cpp -mtune=generic -march=x86-64 -g -O0 -fpre-include=/usr/include/finclude/math-vector-fortran.h
REM seed -2140748758 1882638771 -658362456 -1082961864 -1711066904 -652210107 -1541937115 -1841679681 564837202 1374200259 -382278777 -1818731267 1616764644 88448680 -1137379609 -263067428 1678168097 -1172952061 1071189339 -1583657580 -800795597 1580496192 -2092242448 676803465 1488138056 -1931481113 850763267 -2050298309 -503888741 -9248251 -463808420 1016487559 209888568
REM
CELL 1.54180   50.00000   50.00000   50.00000   90.00000   90.00000   90.00000
LATT -1
SFAC C  
C      1  0.4457940000000  0.5724510000000  0.5125450000000 1.0
C      1  0.5110390000000  0.5716680000000  0.5543960000000 1.0
C      1  0.5542380000000  0.5726700000000  0.4883670000000 1.0
C      1  0.4874680000000  0.5724440000000  0.4449550000000 1.0
C      1  0.4456890000000  0.4269640000000  0.5128220000000 1.0
C      1  0.5107930000000  0.4271550000000  0.5542520000000 1.0
C      1  0.5549410000000  0.4265590000000  0.4881940000000 1.0
C      1  0.4876240000000  0.4266810000000  0.4456520000000 1.0
C      1  0.4354260000000  0.4452290000000  0.5319510000000 1.0
C      1  0.5303190000000  0.4452320000000  0.5642580000000 1.0
C      1  0.5642830000000  0.4451770000000  0.4689200000000 1.0
C      1  0.4682450000000  0.4450700000000  0.4360400000000 1.0
C      1  0.4357190000000  0.5540700000000  0.5317120000000 1.0
C      1  0.5305860000000  0.5537970000000  0.5646030000000 1.0
C      1  0.5638590000000  0.5541370000000  0.4691060000000 1.0
C      1  0.4680840000000  0.5539560000000  0.4356180000000 1.0
C      1  0.5109250000000  0.4796180000000  0.4592640000000 1.0
C      1  0.4583910000000  0.4796940000000  0.4889250000000 1.0
C      1  0.4880040000000  0.4794750000000  0.5412040000000 1.0
C      1  0.5403650000000  0.4798670000000  0.5115640000000 1.0
C      1  0.5109940000000  0.5194840000000  0.4593800000000 1.0
C      1  0.4583770000000  0.5195740000000  0.4888660000000 1.0
C      1  0.4881490000000  0.5193650000000  0.5411310000000 1.0
C      1  0.5404450000000  0.5197140000000  0.5116430000000 1.0
C      1  0.4020900000000  0.5240090000000  0.4741330000000 1.0
C      1  0.4733710000000  0.5240330000000  0.5980540000000 1.0
C      1  0.5969830000000  0.5240170000000  0.5266500000000 1.0
C      1  0.5257110000000  0.5239810000000  0.4029540000000 1.0
C      1  0.4020920000000  0.4751340000000  0.4742380000000 1.0
C      1  0.4732260000000  0.4752240000000  0.5981430000000 1.0
C      1  0.5968650000000  0.4751550000000  0.5265150000000 1.0
C      1  0.5258090000000  0.4751490000000  0.4029040000000 1.0
C      1  0.4784950000000  0.5352810000000  0.4960210000000 1.0
C      1  0.4944450000000  0.5351750000000  0.5207370000000 1.0
C      1  0.5209080000000  0.5363400000000  0.5053250000000 1.0
C      1  0.5034550000000  0.5363200000000  0.4782630000000 1.0
C      1  0.4786040000000  0.4638640000000  0.4955810000000 1.0
C      1  0.4943360000000  0.4634140000000  0.5211110000000 1.0
C      1  0.5214850000000  0.4627200000000  0.5047860000000 1.0
C      1  0.5034530000000  0.4633540000000  0.4787370000000 1.0
C      1  0.5020780000000  0.4836170000000  0.5903180000000 1.0
C      1  0.5893870000000  0.4837420000000  0.4976250000000 1.0
C      1  0.4968570000000  0.4835530000000  0.4105220000000 1.0
C      1  0.4098560000000  0.4836680000000  0.5031200000000 1.0
C      1  0.5021660000000  0.5154440000000  0.5903240000000 1.0
C      1  0.5893860000000  0.5156140000000  0.4976970000000 1.0
C      1  0.4968080000000  0.5154310000000  0.4105060000000 1.0
C      1  0.4098880000000  0.5156080000000  0.5030510000000 1.0
C      1  0.4132860000000  0.5141260000000  0.5523810000000 1.0
C      1  0.5514290000000  0.5137880000000  0.5867340000000 1.0
C      1  0.5860540000000  0.5141280000000  0.4483410000000 1.0
C      1  0.4474370000000  0.5137880000000  0.4137680000000 1.0
C      1  0.4132040000000  0.4853760000000  0.5524460000000 1.0
C      1  0.5513530000000  0.4850300000000  0.5866660000000 1.0
C      1  0.5861090000000  0.4853810000000  0.4482940000000 1.0
C      1  0.4474740000000  0.4850420000000  0.4138430000000 1.0
C      1  0.5744870000000  0.4752310000000  0.4236450000000 1.0
C      1  0.4228280000000  0.4748820000000  0.4254720000000 1.0
C      1  0.4246480000000  0.4752940000000  0.5772010000000 1.0
C      1  0.5759580000000  0.4748140000000  0.5750650000000 1.0
C      1  0.5744220000000  0.5242730000000  0.4237010000000 1.0
C      1  0.4227850000000  0.5239660000000  0.4253750000000 1.0
C      1  0.4248110000000  0.5242500000000  0.5770780000000 1.0
C      1  0.5760960000000  0.5239600000000  0.5752030000000 1.0
C      1  0.5739030000000  0.4667030000000  0.5458000000000 1.0
C      1  0.5452930000000  0.4667770000000  0.4257200000000 1.0
C      1  0.4248770000000  0.4666840000000  0.4547360000000 1.0
C      1  0.4538440000000  0.4668430000000  0.5753120000000 1.0
C      1  0.5740970000000  0.5324560000000  0.5460260000000 1.0
C      1  0.5451650000000  0.5324500000000  0.4257790000000 1.0
C      1  0.4248490000000  0.5323940000000  0.4545800000000 1.0
C      1  0.4540780000000  0.5324300000000  0.5751460000000 1.0
C      1  0.5561370000000  0.4423090000000  0.5503230000000 1.0
C      1  0.5501230000000  0.4423350000000  0.4432420000000 1.0
C      1  0.4425130000000  0.4422410000000  0.4501320000000 1.0
C      1  0.4490950000000  0.4423530000000  0.5578970000000 1.0
C      1  0.5564860000000  0.5568890000000  0.5508610000000 1.0
C      1  0.5497740000000  0.5569090000000  0.4433620000000 1.0
C      1  0.4424120000000  0.5568410000000  0.4497810000000 1.0
C      1  0.4495510000000  0.5568650000000  0.5575800000000 1.0
C      1  0.4720220000000  0.5295200000000  0.4183450000000 1.0
C      1  0.4180670000000  0.5297730000000  0.5277490000000 1.0
C      1  0.5268230000000  0.5294990000000  0.5821580000000 1.0
C      1  0.5813650000000  0.5297800000000  0.4729890000000 1.0
C      1  0.4721240000000  0.4694060000000  0.4185300000000 1.0
C      1  0.4179200000000  0.4695910000000  0.5278910000000 1.0
C      1  0.5266540000000  0.4694590000000  0.5820060000000 1.0
C      1  0.5815390000000  0.4696350000000  0.4728670000000 1.0
C      1  0.5320260000000  0.5861380000000  0.4957590000000 1.0
C      1  0.4957170000000  0.5857720000000  0.4668730000000 1.0
C      1  0.4679580000000  0.5859360000000  0.5052420000000 1.0
C      1  0.5028060000000  0.5844600000000  0.5337160000000 1.0
C      1  0.5328340000000  0.4130350000000  0.4956680000000 1.0
C      1  0.4958150000000  0.4134060000000  0.4676540000000 1.0
C      1  0.4664600000000  0.4138460000000  0.5053640000000 1.0
C      1  0.5026830000000  0.4140060000000  0.5321440000000 1.0
C      1  0.4457280000000  0.5139040000000  0.4654860000000 1.0
C      1  0.4650540000000  0.5138310000000  0.5543690000000 1.0
C      1  0.5532610000000  0.5140110000000  0.5349660000000 1.0
C      1  0.5343490000000  0.5138520000000  0.4466470000000 1.0
C      1  0.4457010000000  0.4853030000000  0.4655290000000 1.0
C      1  0.4649460000000  0.4852290000000  0.5544140000000 1.0
C      1  0.5531870000000  0.4854130000000  0.5349130000000 1.0
C      1  0.5343180000000  0.4852410000000  0.4466030000000 1.0
C      1  0.4639300000000  0.4996840000000  0.6120650000000 1.0
C      1  0.5351500000000  0.4996010000000  0.3889610000000 1.0
C      1  0.6108330000000  0.4995210000000  0.5360350000000 1.0
C      1  0.3880970000000  0.4995500000000  0.4648720000000 1.0
C      1  0.5011020000000  0.5873930000000  0.4980210000000 1.0
C      1  0.5012910000000  0.4117900000000  0.4982830000000 1.0
END
