TITL C-74079-2735-94 7.46189050283453e-07 125000 -788.042411147109 0 0 127 (C1) n - 1
REM
REM in /home/nfs/bkarasulu/CARBON/AIRSS/Generating-Clusters/LCBOP/Higher-Symm/SD-CG/FIRE-CG
REM
REM
REM
REM
REM
REM ./C.cell (b20cbc046b6831c77cfcea5457e17084)
REM AIRSS Version 0.9.1 bugfix July 2018 build 013d7b7c2542+ Fri, 06 Jul 2018 19:26:36 +0100
REM compiler GCC version 9.2.1 20190827 (Red Hat 9.2.1-1)
REM options -cpp -mtune=generic -march=x86-64 -g -O0 -fpre-include=/usr/include/finclude/math-vector-fortran.h
REM seed 1452165916 -1004248930 560550748 693956581 1418925212 -1344621112 -64815115 -1319502788 -1559588207 -1803415715 1092919684 935828640 -277518696 1047687191 19399829 -1489930448 1094704097 -1579899401 -1428821527 1669731315 798653460 -2088619584 267176483 -478632791 -1952393088 -857591279 464948980 -816860577 894404266 -167085246 -253980968 -142890459 1367362169
REM
CELL 1.54180   50.00000   50.00000   50.00000   90.00000   90.00000   90.00000
LATT -1
SFAC C  
C      1  0.5350570000000  0.5366550000000  0.5199120000000 1.0
C      1  0.4565020000000  0.5434930000000  0.5209700000000 1.0
C      1  0.5129710000000  0.4423890000000  0.5711660000000 1.0
C      1  0.4869920000000  0.4439150000000  0.5717750000000 1.0
C      1  0.4859240000000  0.4238740000000  0.4301910000000 1.0
C      1  0.5146330000000  0.4233230000000  0.4314680000000 1.0
C      1  0.4266320000000  0.4447470000000  0.4649070000000 1.0
C      1  0.5729870000000  0.4421540000000  0.4685420000000 1.0
C      1  0.5203500000000  0.5567640000000  0.5054520000000 1.0
C      1  0.4662550000000  0.5573350000000  0.4985650000000 1.0
C      1  0.4784990000000  0.4413140000000  0.3582130000000 1.0
C      1  0.5293740000000  0.4412520000000  0.3619580000000 1.0
C      1  0.5138040000000  0.5500260000000  0.4284180000000 1.0
C      1  0.4859740000000  0.5502210000000  0.4258720000000 1.0
C      1  0.4689140000000  0.4832710000000  0.5890460000000 1.0
C      1  0.5331980000000  0.4806260000000  0.5883780000000 1.0
C      1  0.5341410000000  0.6078900000000  0.4713740000000 1.0
C      1  0.4545050000000  0.6053630000000  0.4692120000000 1.0
C      1  0.5965110000000  0.5337490000000  0.4716280000000 1.0
C      1  0.4013750000000  0.5271040000000  0.4661940000000 1.0
C      1  0.4641150000000  0.5034800000000  0.4943920000000 1.0
C      1  0.5261980000000  0.4963350000000  0.4931570000000 1.0
C      1  0.5381590000000  0.5887660000000  0.5387600000000 1.0
C      1  0.4923970000000  0.5876560000000  0.5361870000000 1.0
C      1  0.4804870000000  0.4906750000000  0.4778200000000 1.0
C      1  0.5069380000000  0.4874930000000  0.4770800000000 1.0
C      1  0.4575840000000  0.5126930000000  0.4192190000000 1.0
C      1  0.5427140000000  0.5126740000000  0.4253180000000 1.0
C      1  0.5833270000000  0.5719290000000  0.5151680000000 1.0
C      1  0.4040110000000  0.5664680000000  0.5089060000000 1.0
C      1  0.5273580000000  0.4050430000000  0.4137220000000 1.0
C      1  0.4742020000000  0.4063840000000  0.4110280000000 1.0
C      1  0.5323710000000  0.4393970000000  0.4466120000000 1.0
C      1  0.4676680000000  0.4404860000000  0.4441040000000 1.0
C      1  0.5259450000000  0.5463000000000  0.4553430000000 1.0
C      1  0.4700440000000  0.5467300000000  0.4503290000000 1.0
C      1  0.4283380000000  0.4648450000000  0.4461850000000 1.0
C      1  0.5715220000000  0.4637000000000  0.4514750000000 1.0
C      1  0.4889900000000  0.4155460000000  0.3645950000000 1.0
C      1  0.5179880000000  0.4154240000000  0.3663260000000 1.0
C      1  0.4643300000000  0.4556520000000  0.5826960000000 1.0
C      1  0.5364600000000  0.4529260000000  0.5815360000000 1.0
C      1  0.5554030000000  0.5450850000000  0.5384080000000 1.0
C      1  0.4388880000000  0.5544410000000  0.5404750000000 1.0
C      1  0.5128650000000  0.4516370000000  0.5330600000000 1.0
C      1  0.4865610000000  0.4534840000000  0.5337600000000 1.0
C      1  0.5330340000000  0.4995250000000  0.5663090000000 1.0
C      1  0.4688830000000  0.5021750000000  0.5669010000000 1.0
C      1  0.5505300000000  0.4262990000000  0.5451530000000 1.0
C      1  0.4483060000000  0.4295780000000  0.5470670000000 1.0
C      1  0.4303860000000  0.5408170000000  0.5645080000000 1.0
C      1  0.5883090000000  0.5325200000000  0.5888300000000 1.0
C      1  0.4808110000000  0.6107250000000  0.4680890000000 1.0
C      1  0.5076570000000  0.6114590000000  0.4685730000000 1.0
C      1  0.5273130000000  0.5939440000000  0.5653980000000 1.0
C      1  0.4982360000000  0.5919400000000  0.5642930000000 1.0
C      1  0.5482680000000  0.5277060000000  0.4499470000000 1.0
C      1  0.4491570000000  0.5273960000000  0.4431120000000 1.0
C      1  0.5280720000000  0.5326470000000  0.4103290000000 1.0
C      1  0.4742840000000  0.5325550000000  0.4062170000000 1.0
C      1  0.5105480000000  0.5525040000000  0.4787150000000 1.0
C      1  0.4816810000000  0.5532670000000  0.4753980000000 1.0
C      1  0.5885560000000  0.5173930000000  0.5650160000000 1.0
C      1  0.4091350000000  0.5215190000000  0.5603420000000 1.0
C      1  0.5897600000000  0.4888610000000  0.5664140000000 1.0
C      1  0.4108300000000  0.4939280000000  0.5685300000000 1.0
C      1  0.4725290000000  0.4779960000000  0.3896160000000 1.0
C      1  0.5309440000000  0.4785140000000  0.3934360000000 1.0
C      1  0.4803840000000  0.5849240000000  0.5844960000000 1.0
C      1  0.5430750000000  0.5899840000000  0.5880840000000 1.0
C      1  0.5294570000000  0.4004530000000  0.3873030000000 1.0
C      1  0.4749740000000  0.4013970000000  0.3846030000000 1.0
C      1  0.4396500000000  0.4746810000000  0.5340910000000 1.0
C      1  0.5600450000000  0.4717040000000  0.5316060000000 1.0
C      1  0.5401980000000  0.4851480000000  0.4191530000000 1.0
C      1  0.4609500000000  0.4850240000000  0.4142000000000 1.0
C      1  0.5758570000000  0.4656480000000  0.5576320000000 1.0
C      1  0.4242060000000  0.4697560000000  0.5606140000000 1.0
C      1  0.4541200000000  0.4648410000000  0.4328330000000 1.0
C      1  0.5461370000000  0.4644220000000  0.4374280000000 1.0
C      1  0.6012150000000  0.5258500000000  0.4979940000000 1.0
C      1  0.3952970000000  0.5200750000000  0.4924480000000 1.0
C      1  0.4206530000000  0.5736690000000  0.5307980000000 1.0
C      1  0.5613350000000  0.5734610000000  0.5347740000000 1.0
C      1  0.5425430000000  0.3949410000000  0.5100320000000 1.0
C      1  0.4551040000000  0.3996230000000  0.5102590000000 1.0
C      1  0.4224850000000  0.5290970000000  0.4503070000000 1.0
C      1  0.5746800000000  0.5332120000000  0.4565250000000 1.0
C      1  0.5795810000000  0.4794210000000  0.5108310000000 1.0
C      1  0.4201370000000  0.4785000000000  0.5123620000000 1.0
C      1  0.4607450000000  0.5692770000000  0.5937330000000 1.0
C      1  0.5610830000000  0.5747220000000  0.6005210000000 1.0
C      1  0.5324580000000  0.5090940000000  0.5170640000000 1.0
C      1  0.4601140000000  0.5156970000000  0.5193030000000 1.0
C      1  0.5486380000000  0.4266200000000  0.4679590000000 1.0
C      1  0.4510510000000  0.4293040000000  0.4661140000000 1.0
C      1  0.5174330000000  0.4644480000000  0.3735270000000 1.0
C      1  0.4887030000000  0.4644260000000  0.3714730000000 1.0
C      1  0.5154350000000  0.5214170000000  0.5695220000000 1.0
C      1  0.4886880000000  0.5222750000000  0.5685700000000 1.0
C      1  0.4600810000000  0.4048810000000  0.5378000000000 1.0
C      1  0.5376050000000  0.4018270000000  0.5371570000000 1.0
C      1  0.4552970000000  0.4097090000000  0.4854400000000 1.0
C      1  0.5437200000000  0.4055720000000  0.4854740000000 1.0
C      1  0.5812870000000  0.5321140000000  0.5416440000000 1.0
C      1  0.3909900000000  0.5296630000000  0.5395900000000 1.0
C      1  0.3926030000000  0.5399490000000  0.5126930000000 1.0
C      1  0.5957330000000  0.5445050000000  0.5188660000000 1.0
C      1  0.4591890000000  0.4514980000000  0.5303350000000 1.0
C      1  0.5401270000000  0.4483420000000  0.5283570000000 1.0
C      1  0.4020080000000  0.4939310000000  0.5004050000000 1.0
C      1  0.5971040000000  0.4982930000000  0.5032890000000 1.0
C      1  0.5413810000000  0.4940740000000  0.5393950000000 1.0
C      1  0.4564750000000  0.4986220000000  0.5413040000000 1.0
C      1  0.4417690000000  0.5511480000000  0.5880010000000 1.0
C      1  0.5775400000000  0.5537330000000  0.6009640000000 1.0
C      1  0.5588250000000  0.5997790000000  0.4782520000000 1.0
C      1  0.4301270000000  0.5949080000000  0.4735720000000 1.0
C      1  0.4850460000000  0.3951340000000  0.5478200000000 1.0
C      1  0.5120880000000  0.3940670000000  0.5475230000000 1.0
C      1  0.4394110000000  0.4465000000000  0.5706600000000 1.0
C      1  0.5602860000000  0.4430030000000  0.5682230000000 1.0
C      1  0.4104400000000  0.5807370000000  0.4853420000000 1.0
C      1  0.5784130000000  0.5874850000000  0.4920980000000 1.0
C      1  0.5150490000000  0.4863510000000  0.6095980000000 1.0
C      1  0.4879720000000  0.4879590000000  0.6097330000000 1.0
C      1  0.5157870000000  0.5806720000000  0.5208380000000 1.0
END
