TITL C-74080-5790-64 239433.008404697 125000 -1205.76912937359 0 0 195 (C1) n - 1
REM
REM in /home/nfs/bkarasulu/CARBON/AIRSS/Generating-Clusters/LCBOP/Higher-Symm/SD-CG/FIRE-CG
REM
REM
REM
REM
REM
REM ./C.cell (b20cbc046b6831c77cfcea5457e17084)
REM AIRSS Version 0.9.1 bugfix July 2018 build 013d7b7c2542+ Fri, 06 Jul 2018 19:26:36 +0100
REM compiler GCC version 9.2.1 20190827 (Red Hat 9.2.1-1)
REM options -cpp -mtune=generic -march=x86-64 -g -O0 -fpre-include=/usr/include/finclude/math-vector-fortran.h
REM seed 1317510105 -732213927 1097591715 1095421047 1772499996 1383131449 1403787909 1020460417 -1776237046 358394090 -941180966 -1872172063 -1128712928 -243839912 -1810494906 -115621386 -1520363039 -37059336 -1801035719 -2027278231 -1175717794 -163791296 -1947762378 -1579420287 -1020391480 -623958519 974539694 -565205972 -484273246 843351304 1735425465 -1181651564 980556395
REM
CELL 1.54180   50.00000   50.00000   50.00000   90.00000   90.00000   90.00000
LATT -1
SFAC C  
C      1  0.4488940000000  0.3973620000000  0.4706270000000 1.0
C      1  0.5483590000000  0.6012010000000  0.5302870000000 1.0
C      1  0.5156490000000  0.5214640000000  0.3666150000000 1.0
C      1  0.4852020000000  0.4814650000000  0.6373640000000 1.0
C      1  0.4167660000000  0.4522670000000  0.5392710000000 1.0
C      1  0.6025170000000  0.5780180000000  0.4737480000000 1.0
C      1  0.5246880000000  0.5474850000000  0.5521140000000 1.0
C      1  0.4721070000000  0.4482190000000  0.4427020000000 1.0
C      1  0.4870490000000  0.5207300000000  0.6063140000000 1.0
C      1  0.5120250000000  0.4787140000000  0.3924120000000 1.0
C      1  0.5764110000000  0.5040280000000  0.4164150000000 1.0
C      1  0.4209050000000  0.4965760000000  0.5895670000000 1.0
C      1  0.5807620000000  0.5225370000000  0.5188610000000 1.0
C      1  0.4139230000000  0.4753660000000  0.4756670000000 1.0
C      1  0.4914620000000  0.3904950000000  0.4375350000000 1.0
C      1  0.5058460000000  0.6033870000000  0.5614550000000 1.0
C      1  0.4365780000000  0.4997370000000  0.4080830000000 1.0
C      1  0.5627560000000  0.4996040000000  0.5886950000000 1.0
C      1  0.4396090000000  0.4725520000000  0.5932050000000 1.0
C      1  0.5605740000000  0.5282010000000  0.4114150000000 1.0
C      1  0.5074700000000  0.5783790000000  0.4732330000000 1.0
C      1  0.4972310000000  0.4175440000000  0.5275290000000 1.0
C      1  0.4904850000000  0.5152280000000  0.5290330000000 1.0
C      1  0.5055220000000  0.4772200000000  0.4698410000000 1.0
C      1  0.5161950000000  0.4639240000000  0.5333960000000 1.0
C      1  0.4819480000000  0.5309200000000  0.4656070000000 1.0
C      1  0.4696240000000  0.3959480000000  0.4223810000000 1.0
C      1  0.5272280000000  0.5999880000000  0.5776220000000 1.0
C      1  0.4039150000000  0.4587820000000  0.5156530000000 1.0
C      1  0.5950810000000  0.5506890000000  0.4818890000000 1.0
C      1  0.4284270000000  0.5747430000000  0.5403770000000 1.0
C      1  0.5731590000000  0.4215080000000  0.4595930000000 1.0
C      1  0.4722620000000  0.4988540000000  0.3733360000000 1.0
C      1  0.5280510000000  0.5020470000000  0.6252250000000 1.0
C      1  0.4197840000000  0.5919570000000  0.5199990000000 1.0
C      1  0.5834480000000  0.4061570000000  0.4806130000000 1.0
C      1  0.5465240000000  0.4413400000000  0.6149000000000 1.0
C      1  0.4581700000000  0.5632390000000  0.3808260000000 1.0
C      1  0.5515040000000  0.4854470000000  0.4907940000000 1.0
C      1  0.4465520000000  0.5103410000000  0.5073330000000 1.0
C      1  0.5366360000000  0.3974200000000  0.5079570000000 1.0
C      1  0.4687610000000  0.5984110000000  0.4944130000000 1.0
C      1  0.5453960000000  0.5359400000000  0.4343550000000 1.0
C      1  0.4529700000000  0.4651520000000  0.5686700000000 1.0
C      1  0.4671930000000  0.4532890000000  0.5145860000000 1.0
C      1  0.5294970000000  0.5295480000000  0.4792970000000 1.0
C      1  0.5423690000000  0.5025570000000  0.5330410000000 1.0
C      1  0.4537190000000  0.4940110000000  0.4641060000000 1.0
C      1  0.4773610000000  0.6198950000000  0.4106390000000 1.0
C      1  0.5357220000000  0.3890450000000  0.5976240000000 1.0
C      1  0.4323330000000  0.4786670000000  0.4547330000000 1.0
C      1  0.5626520000000  0.5208030000000  0.5394740000000 1.0
C      1  0.4016790000000  0.5389020000000  0.4657010000000 1.0
C      1  0.6003840000000  0.4639830000000  0.5312470000000 1.0
C      1  0.4892430000000  0.4665310000000  0.4304370000000 1.0
C      1  0.5086530000000  0.5293350000000  0.5665250000000 1.0
C      1  0.4870430000000  0.6115400000000  0.5136940000000 1.0
C      1  0.5121010000000  0.3822830000000  0.4880440000000 1.0
C      1  0.3900040000000  0.4913110000000  0.4383020000000 1.0
C      1  0.6086460000000  0.5109380000000  0.5578850000000 1.0
C      1  0.5035600000000  0.5219740000000  0.4803740000000 1.0
C      1  0.4921660000000  0.4683860000000  0.5174290000000 1.0
C      1  0.5604900000000  0.6369910000000  0.4993790000000 1.0
C      1  0.4345530000000  0.3792990000000  0.5139080000000 1.0
C      1  0.4344040000000  0.5252150000000  0.5481620000000 1.0
C      1  0.5616300000000  0.4676060000000  0.4502780000000 1.0
C      1  0.5011540000000  0.4993270000000  0.3752990000000 1.0
C      1  0.4990300000000  0.5023680000000  0.6252530000000 1.0
C      1  0.4985260000000  0.6151770000000  0.3941220000000 1.0
C      1  0.5132450000000  0.3900930000000  0.6131910000000 1.0
C      1  0.5244660000000  0.4242010000000  0.4553250000000 1.0
C      1  0.4760720000000  0.5692100000000  0.5429520000000 1.0
C      1  0.4537700000000  0.3755200000000  0.4923470000000 1.0
C      1  0.5404570000000  0.6266670000000  0.5167090000000 1.0
C      1  0.5482390000000  0.4793670000000  0.5731750000000 1.0
C      1  0.4516540000000  0.5187630000000  0.4245100000000 1.0
C      1  0.5884550000000  0.5595040000000  0.5527590000000 1.0
C      1  0.4080470000000  0.4398680000000  0.4428450000000 1.0
C      1  0.5291180000000  0.5587340000000  0.4340460000000 1.0
C      1  0.4701200000000  0.4420570000000  0.5600180000000 1.0
C      1  0.4754870000000  0.4563530000000  0.6285330000000 1.0
C      1  0.5277870000000  0.5457730000000  0.3746930000000 1.0
C      1  0.4294530000000  0.5504300000000  0.5981810000000 1.0
C      1  0.5716460000000  0.4503390000000  0.4034650000000 1.0
C      1  0.4353190000000  0.4744210000000  0.5466900000000 1.0
C      1  0.5449600000000  0.5196790000000  0.4576950000000 1.0
C      1  0.5860740000000  0.4552110000000  0.5544390000000 1.0
C      1  0.4175100000000  0.5475420000000  0.4435120000000 1.0
C      1  0.5636140000000  0.4550180000000  0.5713290000000 1.0
C      1  0.4383650000000  0.5442470000000  0.4249360000000 1.0
C      1  0.4845310000000  0.5799850000000  0.4326860000000 1.0
C      1  0.5162840000000  0.4207390000000  0.5705540000000 1.0
C      1  0.4512170000000  0.4514100000000  0.4912790000000 1.0
C      1  0.5430160000000  0.5425370000000  0.5004640000000 1.0
C      1  0.4501400000000  0.4588040000000  0.6157660000000 1.0
C      1  0.5527060000000  0.5417070000000  0.3877840000000 1.0
C      1  0.4761570000000  0.4157220000000  0.4767190000000 1.0
C      1  0.5249430000000  0.5826830000000  0.5203580000000 1.0
C      1  0.5030890000000  0.5050190000000  0.5535430000000 1.0
C      1  0.4941960000000  0.4896700000000  0.4456450000000 1.0
C      1  0.5438810000000  0.4095320000000  0.5768320000000 1.0
C      1  0.4674750000000  0.6025730000000  0.4308950000000 1.0
C      1  0.3892610000000  0.4836800000000  0.5142140000000 1.0
C      1  0.6084820000000  0.5243020000000  0.4840850000000 1.0
C      1  0.5519240000000  0.4584340000000  0.5008990000000 1.0
C      1  0.4486950000000  0.5378180000000  0.4987030000000 1.0
C      1  0.4423860000000  0.5599100000000  0.4020680000000 1.0
C      1  0.5563930000000  0.4341960000000  0.5892690000000 1.0
C      1  0.5341000000000  0.4465450000000  0.5193310000000 1.0
C      1  0.4673400000000  0.5499830000000  0.4808880000000 1.0
C      1  0.6006860000000  0.4565460000000  0.4807320000000 1.0
C      1  0.3990660000000  0.5442660000000  0.5172700000000 1.0
C      1  0.5329470000000  0.4976160000000  0.5073520000000 1.0
C      1  0.4624400000000  0.4952440000000  0.4906620000000 1.0
C      1  0.5678620000000  0.5409030000000  0.5592250000000 1.0
C      1  0.4291520000000  0.4575900000000  0.4352250000000 1.0
C      1  0.4471190000000  0.4131920000000  0.4247310000000 1.0
C      1  0.5498950000000  0.5836750000000  0.5734500000000 1.0
C      1  0.4472910000000  0.6048070000000  0.4511450000000 1.0
C      1  0.5591800000000  0.4003770000000  0.5518140000000 1.0
C      1  0.4433200000000  0.5704010000000  0.5847770000000 1.0
C      1  0.5590470000000  0.4282080000000  0.4150880000000 1.0
C      1  0.4509270000000  0.4433650000000  0.4213520000000 1.0
C      1  0.5458240000000  0.5539310000000  0.5732870000000 1.0
C      1  0.4429210000000  0.5981690000000  0.4789000000000 1.0
C      1  0.5628310000000  0.4008340000000  0.5229190000000 1.0
C      1  0.5354500000000  0.4770400000000  0.4096350000000 1.0
C      1  0.4628570000000  0.5211350000000  0.5899620000000 1.0
C      1  0.3935920000000  0.4933040000000  0.4861830000000 1.0
C      1  0.6051860000000  0.5116050000000  0.5101950000000 1.0
C      1  0.4086230000000  0.4972480000000  0.4158630000000 1.0
C      1  0.5902850000000  0.5037220000000  0.5798400000000 1.0
C      1  0.4197380000000  0.5477790000000  0.5372250000000 1.0
C      1  0.5805380000000  0.4490210000000  0.4613020000000 1.0
C      1  0.4946460000000  0.4077560000000  0.6223400000000 1.0
C      1  0.5140290000000  0.5956030000000  0.3834510000000 1.0
C      1  0.5872890000000  0.5043380000000  0.4449270000000 1.0
C      1  0.3987280000000  0.4972900000000  0.5668200000000 1.0
C      1  0.4806420000000  0.4080860000000  0.5069410000000 1.0
C      1  0.5293630000000  0.5854280000000  0.4893960000000 1.0
C      1  0.4665450000000  0.4418090000000  0.4693290000000 1.0
C      1  0.5303140000000  0.5536280000000  0.5246710000000 1.0
C      1  0.5572540000000  0.5818790000000  0.4821830000000 1.0
C      1  0.4571340000000  0.4364430000000  0.5349960000000 1.0
C      1  0.3862850000000  0.5005680000000  0.5384220000000 1.0
C      1  0.6096030000000  0.5045790000000  0.4630860000000 1.0
C      1  0.4827050000000  0.5631170000000  0.3703950000000 1.0
C      1  0.5229960000000  0.4447600000000  0.6274200000000 1.0
C      1  0.3898170000000  0.5112020000000  0.4630320000000 1.0
C      1  0.6106490000000  0.4926830000000  0.5325060000000 1.0
C      1  0.4907380000000  0.4630300000000  0.4026910000000 1.0
C      1  0.5077660000000  0.5352690000000  0.5938280000000 1.0
C      1  0.4522410000000  0.4849600000000  0.3889020000000 1.0
C      1  0.5471590000000  0.5147190000000  0.6077550000000 1.0
C      1  0.4344750000000  0.5217220000000  0.5983820000000 1.0
C      1  0.5646660000000  0.4790410000000  0.4041630000000 1.0
C      1  0.4257480000000  0.4002420000000  0.5289860000000 1.0
C      1  0.5783780000000  0.6247520000000  0.4830410000000 1.0
C      1  0.3794900000000  0.5268200000000  0.5280680000000 1.0
C      1  0.6170960000000  0.4782810000000  0.4723120000000 1.0
C      1  0.4599220000000  0.5290200000000  0.5614690000000 1.0
C      1  0.5363580000000  0.4651270000000  0.4368880000000 1.0
C      1  0.5195410000000  0.4532330000000  0.4582590000000 1.0
C      1  0.4770130000000  0.5400140000000  0.5394140000000 1.0
C      1  0.5624190000000  0.4950290000000  0.4625110000000 1.0
C      1  0.4366150000000  0.5006830000000  0.5327940000000 1.0
C      1  0.4814880000000  0.5743920000000  0.4845780000000 1.0
C      1  0.5233300000000  0.4209600000000  0.5173080000000 1.0
C      1  0.4958110000000  0.4357720000000  0.6270790000000 1.0
C      1  0.5102020000000  0.5687400000000  0.3750220000000 1.0
C      1  0.5033010000000  0.4030480000000  0.4628690000000 1.0
C      1  0.4971240000000  0.5907950000000  0.5349190000000 1.0
C      1  0.4510310000000  0.5770150000000  0.5575300000000 1.0
C      1  0.5508210000000  0.4185070000000  0.4417470000000 1.0
C      1  0.5265300000000  0.4861300000000  0.5522300000000 1.0
C      1  0.4713310000000  0.5100730000000  0.4463170000000 1.0
C      1  0.6118410000000  0.5412770000000  0.5539920000000 1.0
C      1  0.3853650000000  0.4600490000000  0.4423550000000 1.0
C      1  0.4047440000000  0.5560970000000  0.4901350000000 1.0
C      1  0.5973950000000  0.4450300000000  0.5081650000000 1.0
C      1  0.4297260000000  0.4104830000000  0.4489450000000 1.0
C      1  0.5670730000000  0.5886710000000  0.5500640000000 1.0
C      1  0.4833470000000  0.3791080000000  0.5013720000000 1.0
C      1  0.5111300000000  0.6294410000000  0.5115570000000 1.0
C      1  0.4939740000000  0.4260720000000  0.5555510000000 1.0
C      1  0.5084630000000  0.5734020000000  0.4454560000000 1.0
C      1  0.5807470000000  0.5976460000000  0.4760430000000 1.0
C      1  0.4305520000000  0.4268870000000  0.5370850000000 1.0
C      1  0.5839550000000  0.4165650000000  0.5079410000000 1.0
C      1  0.4202610000000  0.5833240000000  0.4921070000000 1.0
C      1  0.4620410000000  0.4586580000000  0.3968690000000 1.0
C      1  0.5363600000000  0.5399420000000  0.5987030000000 1.0
C      1  0.4226030000000  0.4557540000000  0.4935850000000 1.0
C      1  0.5667270000000  0.5551830000000  0.4902200000000 1.0
C      1  0.4959000000000  0.4941450000000  0.5006790000000 1.0
END
