TITL C-74083-3671-41 -2.87180563223447e-07 125000 -307.799502951647 0 0 52 (C1) n - 1
REM
REM in /home/nfs/bkarasulu/CARBON/AIRSS/Generating-Clusters/LCBOP/Higher-Symm/SD-CG/FIRE-CG
REM
REM
REM
REM
REM
REM ./C.cell (b20cbc046b6831c77cfcea5457e17084)
REM AIRSS Version 0.9.1 bugfix July 2018 build 013d7b7c2542+ Fri, 06 Jul 2018 19:26:36 +0100
REM compiler GCC version 9.2.1 20190827 (Red Hat 9.2.1-1)
REM options -cpp -mtune=generic -march=x86-64 -g -O0 -fpre-include=/usr/include/finclude/math-vector-fortran.h
REM seed 2126003188 1937851653 -1168958363 1188251890 849116275 1132670951 -1504016693 1967097637 2010434373 1870342178 887598133 -1116274472 -1105461373 -301271920 -1496456160 1302988730 1726703970 -1529225724 1701045147 194974457 239801837 -1200799801 -1046320322 1409779875 -68232563 1443142896 1361862159 1198163720 158863618 1645152494 1615303899 898268977 -833551347
REM
CELL 1.54180   50.00000   50.00000   50.00000   90.00000   90.00000   90.00000
LATT -1
SFAC C  
C      1  0.5865520000000  0.4598140000000  0.4957810000000 1.0
C      1  0.4503990000000  0.4620330000000  0.4307600000000 1.0
C      1  0.4624810000000  0.4647940000000  0.5793830000000 1.0
C      1  0.5339680000000  0.4877070000000  0.4850190000000 1.0
C      1  0.4977890000000  0.4909670000000  0.5391950000000 1.0
C      1  0.4728940000000  0.4934750000000  0.4785360000000 1.0
C      1  0.4826250000000  0.5128230000000  0.5892430000000 1.0
C      1  0.5850230000000  0.5049700000000  0.4686320000000 1.0
C      1  0.4366650000000  0.5127310000000  0.4388200000000 1.0
C      1  0.4964000000000  0.5222400000000  0.4391920000000 1.0
C      1  0.5549490000000  0.5199790000000  0.5227380000000 1.0
C      1  0.4550080000000  0.5237920000000  0.5370900000000 1.0
C      1  0.4267920000000  0.5209320000000  0.4638470000000 1.0
C      1  0.5100880000000  0.5180190000000  0.5859440000000 1.0
C      1  0.5690760000000  0.5064580000000  0.4442800000000 1.0
C      1  0.4395440000000  0.5285460000000  0.5141140000000 1.0
C      1  0.5237610000000  0.5283970000000  0.4370940000000 1.0
C      1  0.5470870000000  0.5236570000000  0.5493700000000 1.0
C      1  0.4377130000000  0.5534240000000  0.4124140000000 1.0
C      1  0.4639470000000  0.5560120000000  0.6010680000000 1.0
C      1  0.5615090000000  0.5453470000000  0.4657870000000 1.0
C      1  0.4192180000000  0.5373690000000  0.5668690000000 1.0
C      1  0.4877830000000  0.5277990000000  0.3917870000000 1.0
C      1  0.5973950000000  0.5443940000000  0.5259030000000 1.0
C      1  0.5794870000000  0.5302480000000  0.4829010000000 1.0
C      1  0.4507090000000  0.5316260000000  0.4226860000000 1.0
C      1  0.4640680000000  0.5340450000000  0.5847240000000 1.0
C      1  0.5780590000000  0.5321280000000  0.5110990000000 1.0
C      1  0.4458170000000  0.5320740000000  0.5628250000000 1.0
C      1  0.4785180000000  0.5275260000000  0.4175840000000 1.0
C      1  0.5258380000000  0.4661770000000  0.4714280000000 1.0
C      1  0.4638430000000  0.4726860000000  0.4926940000000 1.0
C      1  0.5119910000000  0.4683390000000  0.5387750000000 1.0
C      1  0.5695670000000  0.4444770000000  0.5095570000000 1.0
C      1  0.4569700000000  0.4497060000000  0.5580570000000 1.0
C      1  0.4697010000000  0.4449710000000  0.4376960000000 1.0
C      1  0.5184960000000  0.4466150000000  0.5219830000000 1.0
C      1  0.5069930000000  0.4454180000000  0.4743910000000 1.0
C      1  0.4719560000000  0.4502230000000  0.5077310000000 1.0
C      1  0.4905140000000  0.4380690000000  0.4529450000000 1.0
C      1  0.5452810000000  0.4387170000000  0.5191350000000 1.0
C      1  0.4596290000000  0.4439260000000  0.5321070000000 1.0
C      1  0.4378040000000  0.4855210000000  0.4318430000000 1.0
C      1  0.4727270000000  0.4865440000000  0.5909950000000 1.0
C      1  0.5927460000000  0.4811700000000  0.4809720000000 1.0
C      1  0.4790280000000  0.5094120000000  0.5351200000000 1.0
C      1  0.4864140000000  0.5096320000000  0.4622350000000 1.0
C      1  0.5397610000000  0.5038470000000  0.5053820000000 1.0
C      1  0.4289310000000  0.5270390000000  0.4897200000000 1.0
C      1  0.5505580000000  0.5289790000000  0.4444030000000 1.0
C      1  0.5319160000000  0.5225820000000  0.5712770000000 1.0
C      1  0.4987320000000  0.4415250000000  0.5016640000000 1.0
END
