TITL C-74085-4933-17 3790.05884318171 125000 -329.192065127047 0 0 56 (C2) n - 1
REM
REM in /home/nfs/bkarasulu/CARBON/AIRSS/Generating-Clusters/LCBOP/Higher-Symm/SD-CG/FIRE-CG
REM
REM
REM
REM
REM
REM ./C.cell (b20cbc046b6831c77cfcea5457e17084)
REM AIRSS Version 0.9.1 bugfix July 2018 build 013d7b7c2542+ Fri, 06 Jul 2018 19:26:36 +0100
REM compiler GCC version 9.2.1 20190827 (Red Hat 9.2.1-1)
REM options -cpp -mtune=generic -march=x86-64 -g -O0 -fpre-include=/usr/include/finclude/math-vector-fortran.h
REM seed 616848045 348627809 -1919545087 -1652326000 756344740 353408950 2020667164 1139331204 1180987214 635778000 -464467955 1837112403 1870031349 -1936055991 -329533662 542810948 -1825097158 764127627 -515286987 -623487819 -1366379342 -959637247 -1855564556 1393838987 -895002944 -1148216833 -403115265 -1162800330 578025577 -111985899 912121892 1597126593 -830683896
REM
CELL 1.54180   50.00000   50.00000   50.00000   90.00000   90.00000   90.00000
LATT -1
SFAC C  
C      1  0.5378130000000  0.4771380000000  0.5268930000000 1.0
C      1  0.4535150000000  0.4776980000000  0.4688240000000 1.0
C      1  0.5373440000000  0.5231630000000  0.5264000000000 1.0
C      1  0.4533540000000  0.5225710000000  0.4682710000000 1.0
C      1  0.5466430000000  0.4774290000000  0.4682680000000 1.0
C      1  0.4626580000000  0.4768370000000  0.5264030000000 1.0
C      1  0.5464820000000  0.5223020000000  0.4688200000000 1.0
C      1  0.4621890000000  0.5228620000000  0.5268960000000 1.0
C      1  0.4371950000000  0.5142080000000  0.5160380000000 1.0
C      1  0.5685940000000  0.5179730000000  0.4857970000000 1.0
C      1  0.4372910000000  0.4840940000000  0.5143690000000 1.0
C      1  0.5703190000000  0.4806080000000  0.4820230000000 1.0
C      1  0.4296790000000  0.5193930000000  0.4820270000000 1.0
C      1  0.5627100000000  0.5159060000000  0.5143640000000 1.0
C      1  0.4314050000000  0.4820270000000  0.4858030000000 1.0
C      1  0.5628070000000  0.4857910000000  0.5160320000000 1.0
C      1  0.5336350000000  0.5179710000000  0.4425680000000 1.0
C      1  0.4718780000000  0.5151850000000  0.5535800000000 1.0
C      1  0.5332380000000  0.4821400000000  0.4423700000000 1.0
C      1  0.4717560000000  0.4846450000000  0.5532390000000 1.0
C      1  0.5282480000000  0.5153550000000  0.5532370000000 1.0
C      1  0.4667580000000  0.5178600000000  0.4423720000000 1.0
C      1  0.5281270000000  0.4848150000000  0.5535780000000 1.0
C      1  0.4663610000000  0.4820290000000  0.4425710000000 1.0
C      1  0.4854950000000  0.4593210000000  0.5599740000000 1.0
C      1  0.5142810000000  0.4588500000000  0.4433830000000 1.0
C      1  0.4856720000000  0.5406010000000  0.5599540000000 1.0
C      1  0.5148020000000  0.5412660000000  0.4434000000000 1.0
C      1  0.4851930000000  0.4587340000000  0.4434010000000 1.0
C      1  0.5143320000000  0.4593990000000  0.5599540000000 1.0
C      1  0.4857140000000  0.5411500000000  0.4433840000000 1.0
C      1  0.5145100000000  0.5406790000000  0.5599730000000 1.0
C      1  0.5285600000000  0.5710650000000  0.4892760000000 1.0
C      1  0.4713180000000  0.5719420000000  0.5167850000000 1.0
C      1  0.5282780000000  0.4289500000000  0.4891890000000 1.0
C      1  0.4711680000000  0.4279920000000  0.5168640000000 1.0
C      1  0.5288340000000  0.5720080000000  0.5168630000000 1.0
C      1  0.4717210000000  0.5710510000000  0.4891900000000 1.0
C      1  0.5286840000000  0.4280580000000  0.5167830000000 1.0
C      1  0.4714390000000  0.4289350000000  0.4892780000000 1.0
C      1  0.4860020000000  0.4740210000000  0.5087100000000 1.0
C      1  0.5247820000000  0.4855730000000  0.4853900000000 1.0
C      1  0.4851580000000  0.5262120000000  0.5088130000000 1.0
C      1  0.5237970000000  0.5139390000000  0.4853540000000 1.0
C      1  0.4762020000000  0.4860610000000  0.4853550000000 1.0
C      1  0.5148430000000  0.4737880000000  0.5088120000000 1.0
C      1  0.4752160000000  0.5144270000000  0.4853920000000 1.0
C      1  0.5139990000000  0.5259790000000  0.5087090000000 1.0
C      1  0.4747250000000  0.4366790000000  0.5430150000000 1.0
C      1  0.5243350000000  0.4378100000000  0.4632780000000 1.0
C      1  0.4748300000000  0.5631620000000  0.5429130000000 1.0
C      1  0.5247520000000  0.5622710000000  0.4633290000000 1.0
C      1  0.4752450000000  0.4377280000000  0.4633300000000 1.0
C      1  0.5251730000000  0.4368380000000  0.5429120000000 1.0
C      1  0.4756620000000  0.5621910000000  0.4632790000000 1.0
C      1  0.5252780000000  0.5633210000000  0.5430140000000 1.0
END
