TITL C-74086-5274-373 0.399131532273775 125000 -360.412367942079 0 0 59 (C1) n - 1
REM
REM in /home/nfs/bkarasulu/CARBON/AIRSS/Generating-Clusters/LCBOP/Higher-Symm/SD-CG/FIRE-CG
REM
REM
REM
REM
REM
REM ./C.cell (b20cbc046b6831c77cfcea5457e17084)
REM AIRSS Version 0.9.1 bugfix July 2018 build 013d7b7c2542+ Fri, 06 Jul 2018 19:26:36 +0100
REM compiler GCC version 9.2.1 20190827 (Red Hat 9.2.1-1)
REM options -cpp -mtune=generic -march=x86-64 -g -O0 -fpre-include=/usr/include/finclude/math-vector-fortran.h
REM seed -942914915 -538542334 -630810896 2023759574 1021137599 -679131800 -122746160 -962582269 -1520730088 267316705 931116838 -1668344346 -1992681641 613399895 2121122213 1648034424 -184703223 1490147646 -430375775 -1056350622 1235146590 -92213969 1974951642 -1689536667 -908054923 -1389676328 1734235310 -322234452 -1462291521 852291497 1808894404 368763780 2073119056
REM
CELL 1.54180   50.00000   50.00000   50.00000   90.00000   90.00000   90.00000
LATT -1
SFAC C  
C      1  0.4649870000000  0.5891590000000  0.5189870000000 1.0
C      1  0.5034510000000  0.4541560000000  0.5891700000000 1.0
C      1  0.5025080000000  0.4382100000000  0.5677110000000 1.0
C      1  0.4315460000000  0.5086200000000  0.5116530000000 1.0
C      1  0.5381440000000  0.4146210000000  0.4835730000000 1.0
C      1  0.4733160000000  0.4811050000000  0.5147690000000 1.0
C      1  0.5102170000000  0.5302010000000  0.4503710000000 1.0
C      1  0.5122620000000  0.5785560000000  0.5099050000000 1.0
C      1  0.4509510000000  0.4759040000000  0.4753940000000 1.0
C      1  0.5643810000000  0.5226000000000  0.5591260000000 1.0
C      1  0.5871180000000  0.4206770000000  0.4620380000000 1.0
C      1  0.4438930000000  0.4978350000000  0.5595910000000 1.0
C      1  0.4717870000000  0.5172530000000  0.3915280000000 1.0
C      1  0.4753780000000  0.4668960000000  0.3838790000000 1.0
C      1  0.4731890000000  0.4932060000000  0.3801650000000 1.0
C      1  0.4920400000000  0.5417210000000  0.5580840000000 1.0
C      1  0.5608840000000  0.5118960000000  0.5333320000000 1.0
C      1  0.4842400000000  0.4574990000000  0.5016070000000 1.0
C      1  0.4917440000000  0.5693910000000  0.5534670000000 1.0
C      1  0.5172590000000  0.4871650000000  0.5349120000000 1.0
C      1  0.4717760000000  0.4947340000000  0.5621120000000 1.0
C      1  0.5284340000000  0.5994770000000  0.5029170000000 1.0
C      1  0.4905350000000  0.5822520000000  0.5282180000000 1.0
C      1  0.5164980000000  0.5304220000000  0.5173330000000 1.0
C      1  0.4694220000000  0.5324370000000  0.4149520000000 1.0
C      1  0.4879380000000  0.5015020000000  0.5846780000000 1.0
C      1  0.5166580000000  0.5467460000000  0.4720180000000 1.0
C      1  0.5114830000000  0.4774120000000  0.4506850000000 1.0
C      1  0.4256140000000  0.5338860000000  0.4449230000000 1.0
C      1  0.4986270000000  0.4791270000000  0.5979340000000 1.0
C      1  0.5985450000000  0.4444230000000  0.4714860000000 1.0
C      1  0.4792850000000  0.4479420000000  0.4022460000000 1.0
C      1  0.5341990000000  0.5085780000000  0.5247170000000 1.0
C      1  0.4993540000000  0.4333010000000  0.5416720000000 1.0
C      1  0.5510390000000  0.5298970000000  0.5811370000000 1.0
C      1  0.5180130000000  0.5032160000000  0.4506530000000 1.0
C      1  0.5615000000000  0.4138670000000  0.4710490000000 1.0
C      1  0.4926280000000  0.5260280000000  0.5337490000000 1.0
C      1  0.4997030000000  0.4372780000000  0.5137950000000 1.0
C      1  0.4230520000000  0.5316990000000  0.4974560000000 1.0
C      1  0.4848050000000  0.4441460000000  0.4280810000000 1.0
C      1  0.4276440000000  0.5053300000000  0.5394570000000 1.0
C      1  0.4742290000000  0.4585220000000  0.4740400000000 1.0
C      1  0.4175890000000  0.5303510000000  0.4700110000000 1.0
C      1  0.5000950000000  0.5273790000000  0.5818220000000 1.0
C      1  0.5262450000000  0.5319690000000  0.5910950000000 1.0
C      1  0.4261420000000  0.5572010000000  0.5087080000000 1.0
C      1  0.4875690000000  0.4954220000000  0.5363740000000 1.0
C      1  0.4911500000000  0.4579510000000  0.4515630000000 1.0
C      1  0.6005800000000  0.4046060000000  0.4445190000000 1.0
C      1  0.4499360000000  0.4906920000000  0.5000790000000 1.0
C      1  0.5956240000000  0.4875050000000  0.5009180000000 1.0
C      1  0.4440600000000  0.5366780000000  0.4260180000000 1.0
C      1  0.5168110000000  0.5522090000000  0.4995110000000 1.0
C      1  0.5173630000000  0.4221960000000  0.4981850000000 1.0
C      1  0.6012610000000  0.4671670000000  0.4848470000000 1.0
C      1  0.4410750000000  0.5786390000000  0.5137200000000 1.0
C      1  0.4921440000000  0.5381320000000  0.4304260000000 1.0
C      1  0.5820800000000  0.5030120000000  0.5176330000000 1.0
END
