TITL C-74082-2733-434 90544.9902136634 125000 -890.171703684119 0 0 143 (C1) n - 1
REM
REM in /home/nfs/bkarasulu/CARBON/AIRSS/Generating-Clusters/LCBOP/Higher-Symm/SD-CG/FIRE-CG
REM
REM
REM
REM
REM
REM ./C.cell (b20cbc046b6831c77cfcea5457e17084)
REM AIRSS Version 0.9.1 bugfix July 2018 build 013d7b7c2542+ Fri, 06 Jul 2018 19:26:36 +0100
REM compiler GCC version 9.2.1 20190827 (Red Hat 9.2.1-1)
REM options -cpp -mtune=generic -march=x86-64 -g -O0 -fpre-include=/usr/include/finclude/math-vector-fortran.h
REM seed -1205936595 907579896 -1498415604 -440072877 1286377417 624758706 1750347110 -1233830881 -1836404910 1739180541 366055236 -1224446563 -903231621 -1641960682 1107455760 75655602 1434702828 -1045059595 -778115257 1183608960 254845631 906644547 -1215065643 2112374356 -806089807 -1704794775 -1181751958 -900472671 1164650197 987661652 1515735680 -1610175775 -52696899
REM
CELL 1.54180   50.00000   50.00000   50.00000   90.00000   90.00000   90.00000
LATT -1
SFAC C  
C      1  0.6063730000000  0.4784350000000  0.4902970000000 1.0
C      1  0.4266520000000  0.4690020000000  0.4120930000000 1.0
C      1  0.4711480000000  0.4692400000000  0.6044360000000 1.0
C      1  0.4915530000000  0.4219910000000  0.5153150000000 1.0
C      1  0.5221080000000  0.4173800000000  0.4975250000000 1.0
C      1  0.4890160000000  0.4205260000000  0.4789270000000 1.0
C      1  0.4793770000000  0.3422170000000  0.4766970000000 1.0
C      1  0.4762780000000  0.3462820000000  0.5041950000000 1.0
C      1  0.4983770000000  0.3424770000000  0.5209480000000 1.0
C      1  0.5806580000000  0.5689230000000  0.5471510000000 1.0
C      1  0.5055910000000  0.5568520000000  0.4141170000000 1.0
C      1  0.4130420000000  0.5758470000000  0.5415030000000 1.0
C      1  0.5576020000000  0.5379040000000  0.4809700000000 1.0
C      1  0.4528010000000  0.5355070000000  0.4620750000000 1.0
C      1  0.4709320000000  0.5489050000000  0.5316400000000 1.0
C      1  0.4943580000000  0.5898710000000  0.5731840000000 1.0
C      1  0.5720990000000  0.5951980000000  0.4682650000000 1.0
C      1  0.4376640000000  0.5900300000000  0.4547010000000 1.0
C      1  0.5203000000000  0.3531280000000  0.5314790000000 1.0
C      1  0.4876660000000  0.3522690000000  0.4535090000000 1.0
C      1  0.4546840000000  0.3611350000000  0.5140300000000 1.0
C      1  0.5098530000000  0.5152540000000  0.5349960000000 1.0
C      1  0.5212600000000  0.5095530000000  0.4689320000000 1.0
C      1  0.4602250000000  0.5018540000000  0.4937400000000 1.0
C      1  0.5846740000000  0.4738720000000  0.4715690000000 1.0
C      1  0.4146990000000  0.4613090000000  0.4381240000000 1.0
C      1  0.4992570000000  0.4616130000000  0.5986790000000 1.0
C      1  0.5001150000000  0.6097960000000  0.5284870000000 1.0
C      1  0.5271880000000  0.6109920000000  0.4849090000000 1.0
C      1  0.4756400000000  0.6065830000000  0.4833290000000 1.0
C      1  0.6085410000000  0.5566990000000  0.4870930000000 1.0
C      1  0.4378530000000  0.5494120000000  0.4211890000000 1.0
C      1  0.4656970000000  0.5488890000000  0.5806460000000 1.0
C      1  0.4343780000000  0.5828290000000  0.4835680000000 1.0
C      1  0.5222360000000  0.5863820000000  0.5644910000000 1.0
C      1  0.5498450000000  0.5880590000000  0.4496360000000 1.0
C      1  0.5669110000000  0.5562960000000  0.5006800000000 1.0
C      1  0.4617690000000  0.5487750000000  0.4377620000000 1.0
C      1  0.4557440000000  0.5561540000000  0.5546930000000 1.0
C      1  0.4644670000000  0.4230740000000  0.5877210000000 1.0
C      1  0.6002430000000  0.4289170000000  0.4907030000000 1.0
C      1  0.4439770000000  0.4220970000000  0.4141760000000 1.0
C      1  0.5049660000000  0.4134030000000  0.4124430000000 1.0
C      1  0.4265580000000  0.4269080000000  0.5376570000000 1.0
C      1  0.5707650000000  0.4050710000000  0.5493970000000 1.0
C      1  0.5483140000000  0.4117920000000  0.5061910000000 1.0
C      1  0.4775010000000  0.4166100000000  0.4532730000000 1.0
C      1  0.4752830000000  0.4202960000000  0.5379740000000 1.0
C      1  0.5203640000000  0.4801900000000  0.6018790000000 1.0
C      1  0.5811840000000  0.4856770000000  0.4467560000000 1.0
C      1  0.4026860000000  0.4824560000000  0.4537550000000 1.0
C      1  0.5261690000000  0.5003590000000  0.5824010000000 1.0
C      1  0.5619650000000  0.5056750000000  0.4436220000000 1.0
C      1  0.4185510000000  0.4996520000000  0.4704630000000 1.0
C      1  0.6205460000000  0.4498610000000  0.5295000000000 1.0
C      1  0.4592780000000  0.4509160000000  0.3785470000000 1.0
C      1  0.4254250000000  0.4498040000000  0.5987020000000 1.0
C      1  0.4634060000000  0.4939780000000  0.5893550000000 1.0
C      1  0.6011360000000  0.5038140000000  0.5050590000000 1.0
C      1  0.4418340000000  0.4942800000000  0.4157370000000 1.0
C      1  0.5022880000000  0.4285440000000  0.3906180000000 1.0
C      1  0.4171520000000  0.4507170000000  0.5491950000000 1.0
C      1  0.5924090000000  0.4185320000000  0.5571880000000 1.0
C      1  0.5054350000000  0.5580420000000  0.6073870000000 1.0
C      1  0.5986230000000  0.5654530000000  0.4416750000000 1.0
C      1  0.3986290000000  0.5618430000000  0.4466430000000 1.0
C      1  0.5631580000000  0.4741190000000  0.5157390000000 1.0
C      1  0.4536270000000  0.4709810000000  0.4585450000000 1.0
C      1  0.4935340000000  0.4757640000000  0.5565460000000 1.0
C      1  0.4240700000000  0.5277400000000  0.4677300000000 1.0
C      1  0.5366690000000  0.5245660000000  0.5913330000000 1.0
C      1  0.5674030000000  0.5316000000000  0.4538870000000 1.0
C      1  0.4935500000000  0.4010840000000  0.4348830000000 1.0
C      1  0.4486200000000  0.4101160000000  0.5334910000000 1.0
C      1  0.5518490000000  0.3965180000000  0.5304580000000 1.0
C      1  0.5306830000000  0.5513620000000  0.5963630000000 1.0
C      1  0.5748250000000  0.5516860000000  0.4350390000000 1.0
C      1  0.4047830000000  0.5486740000000  0.4713070000000 1.0
C      1  0.4850390000000  0.5681220000000  0.5903670000000 1.0
C      1  0.5969410000000  0.5768880000000  0.4683340000000 1.0
C      1  0.4227920000000  0.5719890000000  0.4344240000000 1.0
C      1  0.4814840000000  0.4290330000000  0.5650010000000 1.0
C      1  0.5729100000000  0.4210200000000  0.4946730000000 1.0
C      1  0.4521560000000  0.4261010000000  0.4416640000000 1.0
C      1  0.4849420000000  0.4432200000000  0.3764530000000 1.0
C      1  0.4101270000000  0.4506160000000  0.5765390000000 1.0
C      1  0.6117530000000  0.4356980000000  0.5504830000000 1.0
C      1  0.4532860000000  0.4463950000000  0.6013250000000 1.0
C      1  0.6122760000000  0.4528120000000  0.5028030000000 1.0
C      1  0.4402790000000  0.4468810000000  0.3989820000000 1.0
C      1  0.6162290000000  0.4131650000000  0.4747840000000 1.0
C      1  0.4385520000000  0.3974960000000  0.4036150000000 1.0
C      1  0.4599260000000  0.3975710000000  0.5964270000000 1.0
C      1  0.4812060000000  0.6063120000000  0.5518690000000 1.0
C      1  0.5572770000000  0.6098340000000  0.4900780000000 1.0
C      1  0.4646640000000  0.6033910000000  0.4549810000000 1.0
C      1  0.4944740000000  0.3734260000000  0.4389220000000 1.0
C      1  0.4455920000000  0.3838420000000  0.5244260000000 1.0
C      1  0.5380140000000  0.3726240000000  0.5344010000000 1.0
C      1  0.4422880000000  0.4859910000000  0.4797520000000 1.0
C      1  0.5130160000000  0.4968050000000  0.5567950000000 1.0
C      1  0.5349740000000  0.4987910000000  0.4452520000000 1.0
C      1  0.5619120000000  0.4677980000000  0.4880290000000 1.0
C      1  0.4378610000000  0.4481660000000  0.4519530000000 1.0
C      1  0.4983170000000  0.4512600000000  0.5706940000000 1.0
C      1  0.5678600000000  0.6025320000000  0.5151680000000 1.0
C      1  0.4810650000000  0.5929100000000  0.4344830000000 1.0
C      1  0.4530540000000  0.6036940000000  0.5510790000000 1.0
C      1  0.4669170000000  0.4854110000000  0.5619500000000 1.0
C      1  0.5769280000000  0.4991590000000  0.5212960000000 1.0
C      1  0.4628200000000  0.4867670000000  0.4353120000000 1.0
C      1  0.5517230000000  0.4595170000000  0.5356750000000 1.0
C      1  0.5147090000000  0.4903790000000  0.4269880000000 1.0
C      1  0.4263920000000  0.4749660000000  0.5382460000000 1.0
C      1  0.4753800000000  0.5653190000000  0.5089520000000 1.0
C      1  0.5220060000000  0.5688210000000  0.5186490000000 1.0
C      1  0.5098230000000  0.5684320000000  0.4722340000000 1.0
C      1  0.5213880000000  0.5906820000000  0.5362490000000 1.0
C      1  0.5250750000000  0.5906230000000  0.4636630000000 1.0
C      1  0.4595110000000  0.5857850000000  0.4972140000000 1.0
C      1  0.5325600000000  0.5197750000000  0.5184590000000 1.0
C      1  0.4940380000000  0.5111290000000  0.4621420000000 1.0
C      1  0.4637290000000  0.5039500000000  0.5206250000000 1.0
C      1  0.5413500000000  0.5712340000000  0.5789630000000 1.0
C      1  0.5532610000000  0.5690500000000  0.4288290000000 1.0
C      1  0.4120010000000  0.5672670000000  0.4916690000000 1.0
C      1  0.4025120000000  0.5695280000000  0.5177260000000 1.0
C      1  0.5679660000000  0.5701640000000  0.5706150000000 1.0
C      1  0.5318940000000  0.5612630000000  0.4126820000000 1.0
C      1  0.4887690000000  0.4967490000000  0.4371830000000 1.0
C      1  0.4503550000000  0.4891250000000  0.5399850000000 1.0
C      1  0.5584050000000  0.5180330000000  0.5309460000000 1.0
C      1  0.4826480000000  0.5231860000000  0.5297010000000 1.0
C      1  0.5348980000000  0.5221740000000  0.4898290000000 1.0
C      1  0.4720980000000  0.5204120000000  0.4762340000000 1.0
C      1  0.5737100000000  0.5753000000000  0.5208910000000 1.0
C      1  0.4830670000000  0.5651180000000  0.4284000000000 1.0
C      1  0.4387880000000  0.5791340000000  0.5518220000000 1.0
C      1  0.6095540000000  0.5306390000000  0.4968990000000 1.0
C      1  0.4338770000000  0.5220380000000  0.4112010000000 1.0
C      1  0.4620770000000  0.5225060000000  0.5920140000000 1.0
C      1  0.5004200000000  0.6147980000000  0.4988420000000 1.0
C      1  0.5023410000000  0.5635150000000  0.4989300000000 1.0
END
