TITL C-74084-3399-155 0.00610029736905582 125000 -880.674556764099 0 0 145 (C1) n - 1
REM
REM in /home/nfs/bkarasulu/CARBON/AIRSS/Generating-Clusters/LCBOP/Higher-Symm/SD-CG/FIRE-CG
REM
REM
REM
REM
REM
REM ./C.cell (b20cbc046b6831c77cfcea5457e17084)
REM AIRSS Version 0.9.1 bugfix July 2018 build 013d7b7c2542+ Fri, 06 Jul 2018 19:26:36 +0100
REM compiler GCC version 9.2.1 20190827 (Red Hat 9.2.1-1)
REM options -cpp -mtune=generic -march=x86-64 -g -O0 -fpre-include=/usr/include/finclude/math-vector-fortran.h
REM seed -1527225424 -968521203 33621927 1779390882 -761797839 1674314224 705030921 1967550011 574723050 -2139535431 -1001344500 224743059 -248123603 -1394380526 -1506712892 -298403087 591451370 1180047817 -1682960521 -2919123 2021420708 36066374 492016312 2095389941 -874559733 18430706 -180899185 -381921438 837579890 1091394691 -1713270616 -1243677021 -116222316
REM
CELL 1.54180   50.00000   50.00000   50.00000   90.00000   90.00000   90.00000
LATT -1
SFAC C  
C      1  0.4572860000000  0.5080620000000  0.4433700000000 1.0
C      1  0.5337120000000  0.5030390000000  0.5437490000000 1.0
C      1  0.4399110000000  0.5502010000000  0.4992780000000 1.0
C      1  0.5570890000000  0.4444650000000  0.5054490000000 1.0
C      1  0.6239040000000  0.5228710000000  0.5043540000000 1.0
C      1  0.4008250000000  0.5078670000000  0.5136020000000 1.0
C      1  0.4830820000000  0.3815570000000  0.5225890000000 1.0
C      1  0.5130990000000  0.6102430000000  0.4838040000000 1.0
C      1  0.5618220000000  0.4847210000000  0.5833750000000 1.0
C      1  0.4388300000000  0.5121920000000  0.4221950000000 1.0
C      1  0.5288510000000  0.4349870000000  0.4709660000000 1.0
C      1  0.4793670000000  0.5579190000000  0.5190770000000 1.0
C      1  0.5168130000000  0.5086660000000  0.4082230000000 1.0
C      1  0.4693790000000  0.4874930000000  0.5749350000000 1.0
C      1  0.4389380000000  0.4376340000000  0.4357580000000 1.0
C      1  0.5560050000000  0.5656280000000  0.5645310000000 1.0
C      1  0.4898800000000  0.4599460000000  0.5351640000000 1.0
C      1  0.5172020000000  0.5365930000000  0.4531090000000 1.0
C      1  0.3908730000000  0.5151860000000  0.4656050000000 1.0
C      1  0.6181840000000  0.4343550000000  0.5625580000000 1.0
C      1  0.5024680000000  0.4524780000000  0.6008810000000 1.0
C      1  0.4907030000000  0.5481990000000  0.3999020000000 1.0
C      1  0.5982180000000  0.5630080000000  0.4999530000000 1.0
C      1  0.3953990000000  0.4679430000000  0.4922430000000 1.0
C      1  0.4395320000000  0.4208680000000  0.4841190000000 1.0
C      1  0.5426290000000  0.5841510000000  0.5148520000000 1.0
C      1  0.4898060000000  0.5377610000000  0.4562040000000 1.0
C      1  0.5120750000000  0.4619130000000  0.5172150000000 1.0
C      1  0.4768700000000  0.5513950000000  0.6132660000000 1.0
C      1  0.5148120000000  0.4401340000000  0.3754550000000 1.0
C      1  0.5324770000000  0.4086840000000  0.5215690000000 1.0
C      1  0.4626340000000  0.5865610000000  0.4786090000000 1.0
C      1  0.5797540000000  0.5575840000000  0.5213120000000 1.0
C      1  0.4157500000000  0.4584990000000  0.4748810000000 1.0
C      1  0.5808840000000  0.5619710000000  0.4481770000000 1.0
C      1  0.4137040000000  0.4515100000000  0.5423080000000 1.0
C      1  0.4883410000000  0.5991390000000  0.4720930000000 1.0
C      1  0.5066820000000  0.3967330000000  0.5297640000000 1.0
C      1  0.5901830000000  0.5677070000000  0.4729090000000 1.0
C      1  0.3983290000000  0.4566690000000  0.5197620000000 1.0
C      1  0.5246050000000  0.6059500000000  0.5097610000000 1.0
C      1  0.4819200000000  0.3610190000000  0.5048720000000 1.0
C      1  0.5376470000000  0.5685470000000  0.4209080000000 1.0
C      1  0.4562380000000  0.4366040000000  0.5726340000000 1.0
C      1  0.5442170000000  0.4205100000000  0.5478920000000 1.0
C      1  0.4483420000000  0.5761670000000  0.4537330000000 1.0
C      1  0.4770310000000  0.5017050000000  0.3823010000000 1.0
C      1  0.5194680000000  0.4960410000000  0.6243370000000 1.0
C      1  0.5643190000000  0.4378840000000  0.5606190000000 1.0
C      1  0.4281410000000  0.5549130000000  0.4449400000000 1.0
C      1  0.4644040000000  0.5286100000000  0.4606510000000 1.0
C      1  0.5497350000000  0.4819290000000  0.5365560000000 1.0
C      1  0.5238620000000  0.4833120000000  0.3970940000000 1.0
C      1  0.4745210000000  0.5062280000000  0.5953560000000 1.0
C      1  0.5209670000000  0.4237160000000  0.5661650000000 1.0
C      1  0.4701080000000  0.5773290000000  0.4329390000000 1.0
C      1  0.5756320000000  0.5126770000000  0.5029350000000 1.0
C      1  0.4438920000000  0.4872700000000  0.5045610000000 1.0
C      1  0.4601780000000  0.5707710000000  0.5020340000000 1.0
C      1  0.5395730000000  0.4228090000000  0.4962850000000 1.0
C      1  0.5162500000000  0.5624260000000  0.4019680000000 1.0
C      1  0.4756410000000  0.4434090000000  0.5936930000000 1.0
C      1  0.4624040000000  0.4662270000000  0.4646520000000 1.0
C      1  0.5423390000000  0.5294450000000  0.5370390000000 1.0
C      1  0.5408810000000  0.5660610000000  0.4915310000000 1.0
C      1  0.4555820000000  0.4296160000000  0.5048040000000 1.0
C      1  0.5281750000000  0.5202550000000  0.4319380000000 1.0
C      1  0.4891230000000  0.4811350000000  0.5551680000000 1.0
C      1  0.4773020000000  0.4058830000000  0.4273550000000 1.0
C      1  0.5116370000000  0.5885840000000  0.5742660000000 1.0
C      1  0.4703890000000  0.4388580000000  0.5279830000000 1.0
C      1  0.5302390000000  0.5594630000000  0.4660270000000 1.0
C      1  0.4244200000000  0.5522820000000  0.5443840000000 1.0
C      1  0.5873700000000  0.4662090000000  0.4737130000000 1.0
C      1  0.5083420000000  0.5206410000000  0.4980990000000 1.0
C      1  0.5030200000000  0.4709180000000  0.4919050000000 1.0
C      1  0.4943930000000  0.5876350000000  0.4444320000000 1.0
C      1  0.4985110000000  0.4116600000000  0.5547530000000 1.0
C      1  0.6028890000000  0.5054730000000  0.4971040000000 1.0
C      1  0.4253470000000  0.4981980000000  0.5234070000000 1.0
C      1  0.5034620000000  0.4480400000000  0.4733530000000 1.0
C      1  0.5011760000000  0.5457290000000  0.5053900000000 1.0
C      1  0.5087060000000  0.4716330000000  0.6206450000000 1.0
C      1  0.4939100000000  0.5204820000000  0.3952450000000 1.0
C      1  0.5473230000000  0.4494030000000  0.4533700000000 1.0
C      1  0.4721820000000  0.5418080000000  0.5428460000000 1.0
C      1  0.6230690000000  0.5498440000000  0.5034520000000 1.0
C      1  0.3912030000000  0.4973940000000  0.4889790000000 1.0
C      1  0.6440840000000  0.4346310000000  0.5655110000000 1.0
C      1  0.3708840000000  0.5099860000000  0.4471250000000 1.0
C      1  0.4267520000000  0.4866540000000  0.4157580000000 1.0
C      1  0.5675830000000  0.5117710000000  0.5808270000000 1.0
C      1  0.5376310000000  0.5382900000000  0.6043390000000 1.0
C      1  0.4574600000000  0.4577140000000  0.3938120000000 1.0
C      1  0.4887720000000  0.5275830000000  0.6072980000000 1.0
C      1  0.5063940000000  0.4642070000000  0.3850010000000 1.0
C      1  0.4083870000000  0.5379240000000  0.4589020000000 1.0
C      1  0.5918960000000  0.4346780000000  0.5592580000000 1.0
C      1  0.5585790000000  0.5401560000000  0.5834250000000 1.0
C      1  0.4375310000000  0.4592630000000  0.4146360000000 1.0
C      1  0.4402150000000  0.5417420000000  0.4196280000000 1.0
C      1  0.5513720000000  0.4578350000000  0.5792320000000 1.0
C      1  0.4406460000000  0.4709440000000  0.4818830000000 1.0
C      1  0.5674180000000  0.5317270000000  0.5223950000000 1.0
C      1  0.4663410000000  0.4270330000000  0.4404290000000 1.0
C      1  0.5266340000000  0.5687170000000  0.5637910000000 1.0
C      1  0.5569890000000  0.5212640000000  0.4316870000000 1.0
C      1  0.4431760000000  0.4839880000000  0.5653130000000 1.0
C      1  0.4010180000000  0.5804550000000  0.5838160000000 1.0
C      1  0.6321380000000  0.4826310000000  0.4653660000000 1.0
C      1  0.4790240000000  0.4731360000000  0.3838690000000 1.0
C      1  0.5161660000000  0.5221060000000  0.6137470000000 1.0
C      1  0.3702040000000  0.5747530000000  0.5015210000000 1.0
C      1  0.6211230000000  0.4096120000000  0.5014180000000 1.0
C      1  0.3933930000000  0.5648240000000  0.5080660000000 1.0
C      1  0.6027150000000  0.4279990000000  0.4998800000000 1.0
C      1  0.4961150000000  0.4803520000000  0.4355910000000 1.0
C      1  0.4962280000000  0.5300080000000  0.5524230000000 1.0
C      1  0.5405300000000  0.4618800000000  0.5203270000000 1.0
C      1  0.4538560000000  0.5283110000000  0.4866960000000 1.0
C      1  0.4717270000000  0.4850400000000  0.4462580000000 1.0
C      1  0.5064160000000  0.5028820000000  0.5514170000000 1.0
C      1  0.4684850000000  0.4185640000000  0.5514140000000 1.0
C      1  0.5258410000000  0.5827610000000  0.4453420000000 1.0
C      1  0.4646310000000  0.5050020000000  0.4994980000000 1.0
C      1  0.5555670000000  0.5041340000000  0.4863870000000 1.0
C      1  0.4247010000000  0.4342640000000  0.4619420000000 1.0
C      1  0.5627710000000  0.5756520000000  0.5360810000000 1.0
C      1  0.4179530000000  0.5549540000000  0.5165930000000 1.0
C      1  0.5827130000000  0.4465300000000  0.4939100000000 1.0
C      1  0.5682300000000  0.4954290000000  0.4383740000000 1.0
C      1  0.4356990000000  0.5056760000000  0.5484850000000 1.0
C      1  0.4351680000000  0.4560430000000  0.5619650000000 1.0
C      1  0.5619970000000  0.5508870000000  0.4294140000000 1.0
C      1  0.5328430000000  0.6074570000000  0.4617690000000 1.0
C      1  0.4604550000000  0.3924880000000  0.5376390000000 1.0
C      1  0.6082110000000  0.4847170000000  0.4783890000000 1.0
C      1  0.4122220000000  0.5668370000000  0.5646310000000 1.0
C      1  0.5678290000000  0.4698710000000  0.4527290000000 1.0
C      1  0.4452490000000  0.5331900000000  0.5493960000000 1.0
C      1  0.4786770000000  0.4425240000000  0.4611080000000 1.0
C      1  0.5200120000000  0.5459020000000  0.5485590000000 1.0
C      1  0.4661230000000  0.5566760000000  0.4129110000000 1.0
C      1  0.5246880000000  0.4454570000000  0.5842450000000 1.0
C      1  0.4920880000000  0.4978240000000  0.4945090000000 1.0
END
