TITL C-74084-3399-404 -1.89807528001946e-05 125000 -530.388365331013 0 0 88 (C1) n - 1
REM
REM in /home/nfs/bkarasulu/CARBON/AIRSS/Generating-Clusters/LCBOP/Higher-Symm/SD-CG/FIRE-CG
REM
REM
REM
REM
REM
REM ./C.cell (b20cbc046b6831c77cfcea5457e17084)
REM AIRSS Version 0.9.1 bugfix July 2018 build 013d7b7c2542+ Fri, 06 Jul 2018 19:26:36 +0100
REM compiler GCC version 9.2.1 20190827 (Red Hat 9.2.1-1)
REM options -cpp -mtune=generic -march=x86-64 -g -O0 -fpre-include=/usr/include/finclude/math-vector-fortran.h
REM seed -1591087743 527538730 -1844210964 1045242380 2007314259 1822720429 -850955818 1878071139 494055291 1798285498 -392815443 1956518618 -553269507 1094964059 -1568234637 -1548778774 1695931268 2002319953 643473921 -536367773 1867490829 233327883 892509892 -38734685 1272196515 374313082 -853898516 -1014364404 1652462185 1908317732 -134142262 1625662234 2143412721
REM
CELL 1.54180   50.00000   50.00000   50.00000   90.00000   90.00000   90.00000
LATT -1
SFAC C  
C      1  0.4457870000000  0.5003460000000  0.5641240000000 1.0
C      1  0.5917620000000  0.5568210000000  0.5006870000000 1.0
C      1  0.4686290000000  0.4621790000000  0.4218270000000 1.0
C      1  0.4932520000000  0.4433700000000  0.6569960000000 1.0
C      1  0.4272390000000  0.5465510000000  0.5593790000000 1.0
C      1  0.5765220000000  0.4777420000000  0.3975290000000 1.0
C      1  0.5785670000000  0.4638610000000  0.4454020000000 1.0
C      1  0.4409180000000  0.5001790000000  0.5358040000000 1.0
C      1  0.5306870000000  0.5599230000000  0.4569910000000 1.0
C      1  0.5671220000000  0.5200690000000  0.4878620000000 1.0
C      1  0.4967560000000  0.4694750000000  0.4772270000000 1.0
C      1  0.5575380000000  0.5654940000000  0.4644240000000 1.0
C      1  0.5728070000000  0.4736870000000  0.5224150000000 1.0
C      1  0.4388050000000  0.5538830000000  0.5051810000000 1.0
C      1  0.4862770000000  0.5804710000000  0.4529440000000 1.0
C      1  0.4843290000000  0.5152520000000  0.5276020000000 1.0
C      1  0.4971360000000  0.4546620000000  0.5593070000000 1.0
C      1  0.4368500000000  0.5155460000000  0.4717550000000 1.0
C      1  0.5295140000000  0.4359770000000  0.4745500000000 1.0
C      1  0.4508940000000  0.4730180000000  0.5730290000000 1.0
C      1  0.4684500000000  0.4223800000000  0.5272610000000 1.0
C      1  0.4057860000000  0.4839500000000  0.4954560000000 1.0
C      1  0.5146930000000  0.5831640000000  0.4543330000000 1.0
C      1  0.5161750000000  0.4885050000000  0.4727640000000 1.0
C      1  0.4723990000000  0.4789530000000  0.4862310000000 1.0
C      1  0.5509960000000  0.5283890000000  0.4206100000000 1.0
C      1  0.5835840000000  0.5307610000000  0.5084090000000 1.0
C      1  0.5736940000000  0.4747460000000  0.4716960000000 1.0
C      1  0.5016330000000  0.4922140000000  0.5305860000000 1.0
C      1  0.5015730000000  0.4412810000000  0.4775990000000 1.0
C      1  0.4303540000000  0.5561920000000  0.5324410000000 1.0
C      1  0.4771380000000  0.4606900000000  0.5800150000000 1.0
C      1  0.4289990000000  0.4569950000000  0.5627860000000 1.0
C      1  0.5807390000000  0.5408880000000  0.5789020000000 1.0
C      1  0.5738930000000  0.4827850000000  0.4241050000000 1.0
C      1  0.4579380000000  0.5123510000000  0.5171420000000 1.0
C      1  0.4494110000000  0.5740840000000  0.4885690000000 1.0
C      1  0.5658810000000  0.5085520000000  0.4360090000000 1.0
C      1  0.5296820000000  0.5259870000000  0.5187130000000 1.0
C      1  0.4417890000000  0.4471910000000  0.4771590000000 1.0
C      1  0.4054900000000  0.5539870000000  0.5742970000000 1.0
C      1  0.4487580000000  0.5269700000000  0.4485450000000 1.0
C      1  0.4881270000000  0.4673470000000  0.5351240000000 1.0
C      1  0.5331030000000  0.5774980000000  0.5341890000000 1.0
C      1  0.5164710000000  0.5336700000000  0.4542590000000 1.0
C      1  0.5517410000000  0.5631200000000  0.5469960000000 1.0
C      1  0.5070980000000  0.5595420000000  0.4118420000000 1.0
C      1  0.4746490000000  0.5826660000000  0.4793750000000 1.0
C      1  0.4676140000000  0.4508430000000  0.5226930000000 1.0
C      1  0.5787480000000  0.5697240000000  0.4805300000000 1.0
C      1  0.5692620000000  0.5419500000000  0.5541160000000 1.0
C      1  0.5131540000000  0.5855710000000  0.5182400000000 1.0
C      1  0.5340380000000  0.4366630000000  0.5254940000000 1.0
C      1  0.5231280000000  0.5151340000000  0.4738690000000 1.0
C      1  0.4218150000000  0.4904830000000  0.4724400000000 1.0
C      1  0.4962480000000  0.5214980000000  0.4372100000000 1.0
C      1  0.5444380000000  0.4425230000000  0.4984700000000 1.0
C      1  0.4880370000000  0.4490780000000  0.6320990000000 1.0
C      1  0.4883630000000  0.5356380000000  0.5471260000000 1.0
C      1  0.4579390000000  0.4095920000000  0.5488860000000 1.0
C      1  0.4806320000000  0.4082670000000  0.5058870000000 1.0
C      1  0.5648340000000  0.4631630000000  0.4966780000000 1.0
C      1  0.5207320000000  0.4400920000000  0.5496000000000 1.0
C      1  0.5939720000000  0.4622190000000  0.5355940000000 1.0
C      1  0.5174550000000  0.4511490000000  0.4276140000000 1.0
C      1  0.5333330000000  0.4386210000000  0.4460560000000 1.0
C      1  0.4473320000000  0.5287590000000  0.5708380000000 1.0
C      1  0.4319470000000  0.4669940000000  0.4585140000000 1.0
C      1  0.4032900000000  0.4703560000000  0.5187610000000 1.0
C      1  0.4553590000000  0.4604320000000  0.4992300000000 1.0
C      1  0.4564890000000  0.4245250000000  0.4684100000000 1.0
C      1  0.4934040000000  0.5883360000000  0.5003700000000 1.0
C      1  0.4827370000000  0.4548500000000  0.6067930000000 1.0
C      1  0.5298480000000  0.5004950000000  0.5325840000000 1.0
C      1  0.5714920000000  0.5037760000000  0.4655300000000 1.0
C      1  0.5747110000000  0.5216430000000  0.5345910000000 1.0
C      1  0.5591050000000  0.4959630000000  0.5343540000000 1.0
C      1  0.4960690000000  0.4693180000000  0.4221170000000 1.0
C      1  0.4824700000000  0.5630320000000  0.4294290000000 1.0
C      1  0.4736860000000  0.5392430000000  0.5695950000000 1.0
C      1  0.5003970000000  0.4971800000000  0.4238670000000 1.0
C      1  0.5399300000000  0.5247570000000  0.4931220000000 1.0
C      1  0.4718870000000  0.5367410000000  0.4359260000000 1.0
C      1  0.5312570000000  0.5452890000000  0.4105770000000 1.0
C      1  0.4821600000000  0.4204160000000  0.4803080000000 1.0
C      1  0.4116220000000  0.4590550000000  0.5419120000000 1.0
C      1  0.4445390000000  0.4661430000000  0.4332450000000 1.0
C      1  0.4448910000000  0.5271280000000  0.4968770000000 1.0
END
