TITL C-74080-5790-364 0.226342241685389 125000 -145.236630626966 0 0 25 (Cs) n - 1
REM
REM in /home/nfs/bkarasulu/CARBON/AIRSS/Generating-Clusters/LCBOP/Higher-Symm/SD-CG/FIRE-CG
REM
REM
REM
REM
REM
REM ./C.cell (b20cbc046b6831c77cfcea5457e17084)
REM AIRSS Version 0.9.1 bugfix July 2018 build 013d7b7c2542+ Fri, 06 Jul 2018 19:26:36 +0100
REM compiler GCC version 9.2.1 20190827 (Red Hat 9.2.1-1)
REM options -cpp -mtune=generic -march=x86-64 -g -O0 -fpre-include=/usr/include/finclude/math-vector-fortran.h
REM seed 730169594 -1522794920 907596165 445976324 567485964 1185045666 -515272336 -1760726493 2114987670 -510389421 1768579640 -1733284994 -510552911 -1976648952 -1084863431 122932934 -1355291462 -1230686456 -780740510 -1193443782 811352721 -685906312 899338910 -26468394 352168986 -1404784420 1038365482 -1348851058 1138623413 -1310952153 -1657271118 1963900337 1555445787
REM
CELL 1.54180   50.00000   50.00000   50.00000   90.00000   90.00000   90.00000
LATT -1
SFAC C  
C      1  0.4940880000000  0.5499670000000  0.5763790000000 1.0
C      1  0.4356890000000  0.4862450000000  0.4392730000000 1.0
C      1  0.4705240000000  0.5512840000000  0.5642990000000 1.0
C      1  0.4619970000000  0.4768550000000  0.4400910000000 1.0
C      1  0.5707490000000  0.5075250000000  0.5546370000000 1.0
C      1  0.5679840000000  0.4943130000000  0.5318350000000 1.0
C      1  0.4258560000000  0.5306360000000  0.5043700000000 1.0
C      1  0.5684950000000  0.5229110000000  0.5778950000000 1.0
C      1  0.5314270000000  0.4489530000000  0.4372540000000 1.0
C      1  0.4229660000000  0.5174590000000  0.4815500000000 1.0
C      1  0.5517390000000  0.4714800000000  0.4855230000000 1.0
C      1  0.4189460000000  0.4792750000000  0.4180410000000 1.0
C      1  0.4503490000000  0.5482900000000  0.5473610000000 1.0
C      1  0.4351140000000  0.5412040000000  0.5268520000000 1.0
C      1  0.5441350000000  0.5355150000000  0.5833920000000 1.0
C      1  0.5614930000000  0.4824990000000  0.5090260000000 1.0
C      1  0.4872260000000  0.4701840000000  0.4446080000000 1.0
C      1  0.4262370000000  0.5026480000000  0.4598240000000 1.0
C      1  0.5133930000000  0.4651200000000  0.4522610000000 1.0
C      1  0.5671480000000  0.4548770000000  0.4682390000000 1.0
C      1  0.5251520000000  0.4755640000000  0.4760500000000 1.0
C      1  0.4033260000000  0.4727640000000  0.3982210000000 1.0
C      1  0.5897080000000  0.5255770000000  0.5949330000000 1.0
C      1  0.5570350000000  0.4443240000000  0.4452660000000 1.0
C      1  0.5192230000000  0.5445320000000  0.5828180000000 1.0
END
