TITL C-74082-2733-350 287.671564007487 125000 -890.436406999091 0 0 146 (C1) n - 1
REM
REM in /home/nfs/bkarasulu/CARBON/AIRSS/Generating-Clusters/LCBOP/Higher-Symm/SD-CG/FIRE-CG
REM
REM
REM
REM
REM
REM ./C.cell (b20cbc046b6831c77cfcea5457e17084)
REM AIRSS Version 0.9.1 bugfix July 2018 build 013d7b7c2542+ Fri, 06 Jul 2018 19:26:36 +0100
REM compiler GCC version 9.2.1 20190827 (Red Hat 9.2.1-1)
REM options -cpp -mtune=generic -march=x86-64 -g -O0 -fpre-include=/usr/include/finclude/math-vector-fortran.h
REM seed -1378700505 -457471117 -519897498 -1215695703 662093478 -1685496109 842079383 373460511 1377177709 1826182963 1167034113 1893686053 -560921918 -1665970894 -1025850517 -1835609486 -1977421428 -1918025630 -561938054 2143628965 -229786617 -2130445497 -2135219040 286375178 108731372 -138642731 988089907 -1632084249 -1617624247 -959810233 1463332086 741906245 -592914239
REM
CELL 1.54180   50.00000   50.00000   50.00000   90.00000   90.00000   90.00000
LATT -1
SFAC C  
C      1  0.4305680000000  0.5587930000000  0.5105400000000 1.0
C      1  0.3779150000000  0.5384760000000  0.5084500000000 1.0
C      1  0.5151540000000  0.4131360000000  0.5213210000000 1.0
C      1  0.4420440000000  0.3957570000000  0.5072600000000 1.0
C      1  0.4266730000000  0.4414070000000  0.4293380000000 1.0
C      1  0.4151310000000  0.5223940000000  0.4802780000000 1.0
C      1  0.4830750000000  0.4491080000000  0.4641960000000 1.0
C      1  0.5380730000000  0.5772360000000  0.4385410000000 1.0
C      1  0.4895490000000  0.4517280000000  0.4929920000000 1.0
C      1  0.4371510000000  0.4662010000000  0.4381710000000 1.0
C      1  0.3902510000000  0.4723520000000  0.5959050000000 1.0
C      1  0.4418390000000  0.4844740000000  0.4998450000000 1.0
C      1  0.6174630000000  0.4861440000000  0.4533960000000 1.0
C      1  0.5111710000000  0.4829120000000  0.4592630000000 1.0
C      1  0.4646210000000  0.5311840000000  0.4829490000000 1.0
C      1  0.6057820000000  0.5400190000000  0.5059740000000 1.0
C      1  0.5272940000000  0.4852080000000  0.4832260000000 1.0
C      1  0.5768370000000  0.4924210000000  0.3954120000000 1.0
C      1  0.4232340000000  0.5100060000000  0.5833780000000 1.0
C      1  0.5572940000000  0.4590590000000  0.4537980000000 1.0
C      1  0.4060360000000  0.4937670000000  0.5986970000000 1.0
C      1  0.4461720000000  0.4169880000000  0.5534860000000 1.0
C      1  0.4878810000000  0.5066370000000  0.6201530000000 1.0
C      1  0.4698590000000  0.5086020000000  0.4665400000000 1.0
C      1  0.5585660000000  0.4761680000000  0.5632620000000 1.0
C      1  0.6166470000000  0.5156770000000  0.5174330000000 1.0
C      1  0.4557580000000  0.4761250000000  0.5865340000000 1.0
C      1  0.5075340000000  0.4560730000000  0.4500420000000 1.0
C      1  0.5318070000000  0.4253230000000  0.5441130000000 1.0
C      1  0.5765900000000  0.5021500000000  0.4700500000000 1.0
C      1  0.6306250000000  0.4756030000000  0.3153120000000 1.0
C      1  0.5562480000000  0.4944030000000  0.3766580000000 1.0
C      1  0.5502470000000  0.4680050000000  0.4832730000000 1.0
C      1  0.5019870000000  0.5448950000000  0.5917740000000 1.0
C      1  0.4605200000000  0.5850840000000  0.4800020000000 1.0
C      1  0.5172360000000  0.4601390000000  0.5700150000000 1.0
C      1  0.3898380000000  0.4361130000000  0.4791330000000 1.0
C      1  0.4277760000000  0.5538030000000  0.5613270000000 1.0
C      1  0.5359890000000  0.4971040000000  0.3604890000000 1.0
C      1  0.6049090000000  0.4361290000000  0.5008180000000 1.0
C      1  0.4861330000000  0.5951400000000  0.4897600000000 1.0
C      1  0.4158150000000  0.4971620000000  0.4964550000000 1.0
C      1  0.5301520000000  0.6145240000000  0.4827180000000 1.0
C      1  0.4678170000000  0.4171520000000  0.5738070000000 1.0
C      1  0.5178820000000  0.5576770000000  0.5500200000000 1.0
C      1  0.5775610000000  0.5335370000000  0.4238360000000 1.0
C      1  0.5103820000000  0.5808830000000  0.5355780000000 1.0
C      1  0.5543970000000  0.5013390000000  0.5797160000000 1.0
C      1  0.4161130000000  0.5513330000000  0.5349020000000 1.0
C      1  0.5312330000000  0.4187120000000  0.4691370000000 1.0
C      1  0.5615130000000  0.5771860000000  0.4804760000000 1.0
C      1  0.4923860000000  0.4778810000000  0.6179280000000 1.0
C      1  0.5101420000000  0.5867470000000  0.4477550000000 1.0
C      1  0.5085040000000  0.4373400000000  0.5841770000000 1.0
C      1  0.4886250000000  0.5533330000000  0.4186800000000 1.0
C      1  0.5125780000000  0.5404770000000  0.4274420000000 1.0
C      1  0.4651050000000  0.5059640000000  0.5466790000000 1.0
C      1  0.5529970000000  0.6020540000000  0.4897610000000 1.0
C      1  0.5572230000000  0.5512000000000  0.4900560000000 1.0
C      1  0.5859970000000  0.5514860000000  0.4469570000000 1.0
C      1  0.5962030000000  0.4614190000000  0.4989410000000 1.0
C      1  0.3935690000000  0.4773410000000  0.5321880000000 1.0
C      1  0.3875150000000  0.4643130000000  0.4795660000000 1.0
C      1  0.5605900000000  0.5279380000000  0.4733080000000 1.0
C      1  0.6114230000000  0.4763020000000  0.3642370000000 1.0
C      1  0.4734380000000  0.4618460000000  0.6027740000000 1.0
C      1  0.4174030000000  0.4204100000000  0.4435400000000 1.0
C      1  0.3935680000000  0.4788690000000  0.4550800000000 1.0
C      1  0.4643000000000  0.4874400000000  0.5218180000000 1.0
C      1  0.5070790000000  0.5325860000000  0.5407350000000 1.0
C      1  0.4808240000000  0.4367760000000  0.5917080000000 1.0
C      1  0.5245210000000  0.4116260000000  0.4944280000000 1.0
C      1  0.5658990000000  0.5283350000000  0.5741210000000 1.0
C      1  0.5410730000000  0.4534620000000  0.5544160000000 1.0
C      1  0.4360160000000  0.5462640000000  0.4412980000000 1.0
C      1  0.3933220000000  0.5327870000000  0.5318120000000 1.0
C      1  0.3947660000000  0.4788280000000  0.5031890000000 1.0
C      1  0.5322870000000  0.4408070000000  0.4503750000000 1.0
C      1  0.4730450000000  0.5509360000000  0.5876100000000 1.0
C      1  0.4396740000000  0.5832160000000  0.4995520000000 1.0
C      1  0.4087960000000  0.4168650000000  0.4703020000000 1.0
C      1  0.5746610000000  0.4812770000000  0.4930410000000 1.0
C      1  0.6054940000000  0.5094120000000  0.4649160000000 1.0
C      1  0.4853700000000  0.5408900000000  0.5233960000000 1.0
C      1  0.4565190000000  0.4857520000000  0.4742690000000 1.0
C      1  0.5587660000000  0.5427070000000  0.5164680000000 1.0
C      1  0.4590700000000  0.4636410000000  0.4568770000000 1.0
C      1  0.4344460000000  0.4552200000000  0.5057650000000 1.0
C      1  0.5979060000000  0.4992630000000  0.5292640000000 1.0
C      1  0.4243480000000  0.5191590000000  0.4508290000000 1.0
C      1  0.3916400000000  0.5053870000000  0.5415740000000 1.0
C      1  0.4585010000000  0.4028940000000  0.5291300000000 1.0
C      1  0.3887860000000  0.5355030000000  0.4836550000000 1.0
C      1  0.5325020000000  0.5011790000000  0.6005480000000 1.0
C      1  0.6018890000000  0.4160340000000  0.4830650000000 1.0
C      1  0.4237670000000  0.4011420000000  0.4883500000000 1.0
C      1  0.6067650000000  0.4632660000000  0.4391020000000 1.0
C      1  0.4008970000000  0.4545640000000  0.5502310000000 1.0
C      1  0.4598650000000  0.5702640000000  0.4543230000000 1.0
C      1  0.4161440000000  0.5370910000000  0.5806630000000 1.0
C      1  0.4225240000000  0.4343440000000  0.5508060000000 1.0
C      1  0.4655510000000  0.5225560000000  0.6264590000000 1.0
C      1  0.5234660000000  0.5567220000000  0.5774520000000 1.0
C      1  0.6113990000000  0.4631640000000  0.4112870000000 1.0
C      1  0.4947870000000  0.5048280000000  0.4532090000000 1.0
C      1  0.4468980000000  0.4979190000000  0.5711650000000 1.0
C      1  0.4185050000000  0.4893960000000  0.4432180000000 1.0
C      1  0.5653550000000  0.4891460000000  0.4437400000000 1.0
C      1  0.4629120000000  0.5355450000000  0.5401800000000 1.0
C      1  0.5127540000000  0.5321780000000  0.4832660000000 1.0
C      1  0.5104140000000  0.5287020000000  0.4535350000000 1.0
C      1  0.6211820000000  0.4759330000000  0.3396090000000 1.0
C      1  0.4842670000000  0.5737010000000  0.4384650000000 1.0
C      1  0.6041840000000  0.5387340000000  0.4704160000000 1.0
C      1  0.5583800000000  0.5469050000000  0.4073980000000 1.0
C      1  0.5848550000000  0.4458870000000  0.4484350000000 1.0
C      1  0.5740190000000  0.5045530000000  0.4210800000000 1.0
C      1  0.3869140000000  0.4557390000000  0.5750850000000 1.0
C      1  0.4780170000000  0.4607600000000  0.5176810000000 1.0
C      1  0.4965740000000  0.5069600000000  0.5521140000000 1.0
C      1  0.5351030000000  0.5554420000000  0.4199450000000 1.0
C      1  0.4567540000000  0.5522730000000  0.5627760000000 1.0
C      1  0.5913030000000  0.4202900000000  0.4585610000000 1.0
C      1  0.5711610000000  0.4964240000000  0.5185870000000 1.0
C      1  0.6001730000000  0.4770860000000  0.3896720000000 1.0
C      1  0.5166440000000  0.4144880000000  0.5683380000000 1.0
C      1  0.4913790000000  0.4025880000000  0.5610290000000 1.0
C      1  0.4946640000000  0.5921410000000  0.5168010000000 1.0
C      1  0.5848840000000  0.5465170000000  0.5272070000000 1.0
C      1  0.5062100000000  0.4844720000000  0.5639010000000 1.0
C      1  0.5853470000000  0.5379340000000  0.5549710000000 1.0
C      1  0.5094760000000  0.5204970000000  0.6054100000000 1.0
C      1  0.4548900000000  0.4437720000000  0.5191190000000 1.0
C      1  0.5648760000000  0.5738300000000  0.4521370000000 1.0
C      1  0.4587560000000  0.5443900000000  0.6116900000000 1.0
C      1  0.4883280000000  0.4020840000000  0.5316550000000 1.0
C      1  0.4382090000000  0.5376790000000  0.4925710000000 1.0
C      1  0.5498430000000  0.5497260000000  0.5845140000000 1.0
C      1  0.4667390000000  0.5436740000000  0.3707920000000 1.0
C      1  0.5072210000000  0.6022810000000  0.4717390000000 1.0
C      1  0.4758000000000  0.5488750000000  0.3946700000000 1.0
C      1  0.4240100000000  0.5564580000000  0.4190110000000 1.0
C      1  0.5276170000000  0.5102990000000  0.4974320000000 1.0
C      1  0.5492010000000  0.5152650000000  0.5170560000000 1.0
C      1  0.4880620000000  0.5398530000000  0.4960470000000 1.0
C      1  0.5218490000000  0.4770500000000  0.6141150000000 1.0
END
