TITL C-74081-2727-206 186.972924863954 125000 -645.620604502783 0 0 108 (C1) n - 1
REM
REM in /home/nfs/bkarasulu/CARBON/AIRSS/Generating-Clusters/LCBOP/Higher-Symm/SD-CG/FIRE-CG
REM
REM
REM
REM
REM
REM ./C.cell (b20cbc046b6831c77cfcea5457e17084)
REM AIRSS Version 0.9.1 bugfix July 2018 build 013d7b7c2542+ Fri, 06 Jul 2018 19:26:36 +0100
REM compiler GCC version 9.2.1 20190827 (Red Hat 9.2.1-1)
REM options -cpp -mtune=generic -march=x86-64 -g -O0 -fpre-include=/usr/include/finclude/math-vector-fortran.h
REM seed 1192327226 -799390480 274150110 -984914963 699277475 1581265837 1960642081 -1397002472 -1967619747 -155595172 568025649 -714258376 -1066448637 -2043810468 2084779632 506783824 -368363958 858379254 -1234486223 701498765 688559157 -367055514 2088082133 -1943977014 -1806020799 475492470 -1683524395 -525182097 399147935 -32987888 -1888132565 -947130886 -1922998903
REM
CELL 1.54180   50.00000   50.00000   50.00000   90.00000   90.00000   90.00000
LATT -1
SFAC C  
C      1  0.4508800000000  0.5503640000000  0.5384730000000 1.0
C      1  0.5909480000000  0.5289870000000  0.5355160000000 1.0
C      1  0.5055350000000  0.4154670000000  0.5202240000000 1.0
C      1  0.5310720000000  0.5321760000000  0.4118780000000 1.0
C      1  0.5019150000000  0.4621930000000  0.4040220000000 1.0
C      1  0.4585770000000  0.5156360000000  0.4151500000000 1.0
C      1  0.4880350000000  0.5494390000000  0.4314420000000 1.0
C      1  0.5442850000000  0.4870190000000  0.4242720000000 1.0
C      1  0.4585810000000  0.4697840000000  0.4255590000000 1.0
C      1  0.5056190000000  0.5337680000000  0.4872370000000 1.0
C      1  0.5211440000000  0.4787720000000  0.4678570000000 1.0
C      1  0.4739030000000  0.4874170000000  0.4815060000000 1.0
C      1  0.5392130000000  0.5490930000000  0.4340170000000 1.0
C      1  0.5154290000000  0.4438850000000  0.4232550000000 1.0
C      1  0.4360380000000  0.5143280000000  0.4336050000000 1.0
C      1  0.5809580000000  0.4774670000000  0.4542750000000 1.0
C      1  0.4402770000000  0.4355420000000  0.4538710000000 1.0
C      1  0.4735160000000  0.5840950000000  0.4602280000000 1.0
C      1  0.4726740000000  0.4585190000000  0.4810940000000 1.0
C      1  0.4749790000000  0.5311930000000  0.4802280000000 1.0
C      1  0.5426340000000  0.4904200000000  0.4824440000000 1.0
C      1  0.4734880000000  0.5944540000000  0.5781830000000 1.0
C      1  0.5376450000000  0.5164980000000  0.5888270000000 1.0
C      1  0.4609810000000  0.4234080000000  0.5716320000000 1.0
C      1  0.5868450000000  0.5353350000000  0.5083520000000 1.0
C      1  0.5011610000000  0.4023800000000  0.4952570000000 1.0
C      1  0.4322390000000  0.5493380000000  0.5171280000000 1.0
C      1  0.5252740000000  0.4620160000000  0.5718060000000 1.0
C      1  0.4510200000000  0.4886510000000  0.5597700000000 1.0
C      1  0.5297020000000  0.5619050000000  0.5550900000000 1.0
C      1  0.4240840000000  0.4790840000000  0.5664170000000 1.0
C      1  0.5438150000000  0.5868100000000  0.5584960000000 1.0
C      1  0.5495560000000  0.4577160000000  0.5858550000000 1.0
C      1  0.5645310000000  0.4521490000000  0.4483320000000 1.0
C      1  0.4273970000000  0.4644930000000  0.4604890000000 1.0
C      1  0.5025010000000  0.5768750000000  0.4645970000000 1.0
C      1  0.5444140000000  0.6061220000000  0.5392080000000 1.0
C      1  0.5746320000000  0.4553050000000  0.5759060000000 1.0
C      1  0.4071100000000  0.4613750000000  0.5546400000000 1.0
C      1  0.4861890000000  0.4778410000000  0.4226570000000 1.0
C      1  0.4802280000000  0.5212560000000  0.4335130000000 1.0
C      1  0.5251510000000  0.5082490000000  0.4259660000000 1.0
C      1  0.4085640000000  0.4289510000000  0.5134000000000 1.0
C      1  0.5105530000000  0.6102170000000  0.5031020000000 1.0
C      1  0.5935910000000  0.4601340000000  0.5275240000000 1.0
C      1  0.5174710000000  0.5209170000000  0.4591890000000 1.0
C      1  0.5025830000000  0.4783730000000  0.4478600000000 1.0
C      1  0.4755720000000  0.5088100000000  0.4617710000000 1.0
C      1  0.5080250000000  0.4406880000000  0.5319800000000 1.0
C      1  0.4734330000000  0.4978180000000  0.5099110000000 1.0
C      1  0.5207640000000  0.5267600000000  0.5147180000000 1.0
C      1  0.5324920000000  0.5505620000000  0.5282540000000 1.0
C      1  0.5288110000000  0.4563300000000  0.5438910000000 1.0
C      1  0.4507780000000  0.4880620000000  0.5284730000000 1.0
C      1  0.5055890000000  0.5635990000000  0.4899620000000 1.0
C      1  0.5629580000000  0.4276030000000  0.4620910000000 1.0
C      1  0.4271530000000  0.4720470000000  0.4895260000000 1.0
C      1  0.4768970000000  0.5561890000000  0.5341000000000 1.0
C      1  0.5388550000000  0.4784650000000  0.5281700000000 1.0
C      1  0.4589320000000  0.4583920000000  0.5263320000000 1.0
C      1  0.4422920000000  0.5651480000000  0.4942190000000 1.0
C      1  0.5839010000000  0.5145340000000  0.4890760000000 1.0
C      1  0.4782360000000  0.4111040000000  0.4795250000000 1.0
C      1  0.4815010000000  0.5985980000000  0.5080410000000 1.0
C      1  0.5819600000000  0.4700760000000  0.5040480000000 1.0
C      1  0.4365460000000  0.4228820000000  0.5019150000000 1.0
C      1  0.4889930000000  0.5733960000000  0.5840230000000 1.0
C      1  0.5134350000000  0.5047760000000  0.5889390000000 1.0
C      1  0.4672900000000  0.4476250000000  0.5811760000000 1.0
C      1  0.4201200000000  0.5231080000000  0.5115460000000 1.0
C      1  0.5726070000000  0.5600100000000  0.5030520000000 1.0
C      1  0.5252000000000  0.3966100000000  0.4811840000000 1.0
C      1  0.4547730000000  0.4080470000000  0.5506150000000 1.0
C      1  0.4662350000000  0.6099410000000  0.5575730000000 1.0
C      1  0.5618160000000  0.5212130000000  0.5784060000000 1.0
C      1  0.4687950000000  0.6123350000000  0.5310030000000 1.0
C      1  0.5806860000000  0.5245010000000  0.5597900000000 1.0
C      1  0.4481150000000  0.4066110000000  0.5246870000000 1.0
C      1  0.4599540000000  0.5891060000000  0.4864090000000 1.0
C      1  0.5915720000000  0.4861700000000  0.4815270000000 1.0
C      1  0.4478850000000  0.4140140000000  0.4751500000000 1.0
C      1  0.5134000000000  0.5622050000000  0.4418630000000 1.0
C      1  0.5419430000000  0.4577320000000  0.4297240000000 1.0
C      1  0.4358950000000  0.4845620000000  0.4397380000000 1.0
C      1  0.5576650000000  0.5157450000000  0.4765790000000 1.0
C      1  0.4873450000000  0.4368360000000  0.4687900000000 1.0
C      1  0.4496370000000  0.5437720000000  0.4764310000000 1.0
C      1  0.4911530000000  0.5705420000000  0.5146230000000 1.0
C      1  0.5537510000000  0.4755230000000  0.5048180000000 1.0
C      1  0.4478460000000  0.4509810000000  0.5005510000000 1.0
C      1  0.5602850000000  0.5252910000000  0.4495320000000 1.0
C      1  0.4902390000000  0.4351960000000  0.4399860000000 1.0
C      1  0.4417870000000  0.5449520000000  0.4489150000000 1.0
C      1  0.4741040000000  0.4749090000000  0.5746670000000 1.0
C      1  0.5087220000000  0.5585680000000  0.5734810000000 1.0
C      1  0.5030850000000  0.4803230000000  0.5790810000000 1.0
C      1  0.4011660000000  0.4438010000000  0.5349820000000 1.0
C      1  0.5360540000000  0.5981400000000  0.5127130000000 1.0
C      1  0.5899840000000  0.4558250000000  0.5538260000000 1.0
C      1  0.5467860000000  0.5698480000000  0.5104040000000 1.0
C      1  0.5476870000000  0.4076680000000  0.4715090000000 1.0
C      1  0.4267620000000  0.4948250000000  0.5097180000000 1.0
C      1  0.5201280000000  0.5004050000000  0.5258230000000 1.0
C      1  0.4873420000000  0.4595340000000  0.5291360000000 1.0
C      1  0.4955890000000  0.4873910000000  0.5244440000000 1.0
C      1  0.5685310000000  0.4990780000000  0.4364670000000 1.0
C      1  0.4610490000000  0.4411840000000  0.4324730000000 1.0
C      1  0.4629530000000  0.5646120000000  0.4392930000000 1.0
END
