TITL C-74085-4933-152 -0.0102021312787402 125000 -660.044447409117 0 0 110 (C1) n - 1
REM
REM in /home/nfs/bkarasulu/CARBON/AIRSS/Generating-Clusters/LCBOP/Higher-Symm/SD-CG/FIRE-CG
REM
REM
REM
REM
REM
REM ./C.cell (b20cbc046b6831c77cfcea5457e17084)
REM AIRSS Version 0.9.1 bugfix July 2018 build 013d7b7c2542+ Fri, 06 Jul 2018 19:26:36 +0100
REM compiler GCC version 9.2.1 20190827 (Red Hat 9.2.1-1)
REM options -cpp -mtune=generic -march=x86-64 -g -O0 -fpre-include=/usr/include/finclude/math-vector-fortran.h
REM seed -1947199008 1177416872 1708875877 -24249598 -816867254 1117895421 -1424615525 -1276238167 622296808 -1719855573 -1569680540 667899152 1243210833 -1624673499 -1541909017 -553249926 -1396475370 1834841737 -81021820 -1186664327 -1905771389 -1767234475 -376688328 1767932000 166755270 1776869210 -1797319479 1959423128 113864087 -616753 -275896722 -1722848193 -417477317
REM
CELL 1.54180   50.00000   50.00000   50.00000   90.00000   90.00000   90.00000
LATT -1
SFAC C  
C      1  0.3958440000000  0.3948190000000  0.4744880000000 1.0
C      1  0.6037200000000  0.6024570000000  0.5180170000000 1.0
C      1  0.5418430000000  0.5924310000000  0.5365080000000 1.0
C      1  0.4578030000000  0.4001680000000  0.4611480000000 1.0
C      1  0.5383040000000  0.4769440000000  0.6020830000000 1.0
C      1  0.4855300000000  0.5125890000000  0.3961210000000 1.0
C      1  0.3810420000000  0.3728470000000  0.4743920000000 1.0
C      1  0.6190200000000  0.6238530000000  0.5211750000000 1.0
C      1  0.5094890000000  0.4031630000000  0.4525890000000 1.0
C      1  0.4885480000000  0.5913820000000  0.5390340000000 1.0
C      1  0.3665380000000  0.3511850000000  0.4743290000000 1.0
C      1  0.6340000000000  0.6449590000000  0.5243010000000 1.0
C      1  0.4961640000000  0.4278640000000  0.4979870000000 1.0
C      1  0.5432150000000  0.5602840000000  0.4948310000000 1.0
C      1  0.5324790000000  0.4147970000000  0.4599910000000 1.0
C      1  0.4627410000000  0.5856550000000  0.5343250000000 1.0
C      1  0.4091870000000  0.5338190000000  0.5286530000000 1.0
C      1  0.5729750000000  0.4681310000000  0.4640480000000 1.0
C      1  0.4778830000000  0.5162730000000  0.6138020000000 1.0
C      1  0.5514050000000  0.4841620000000  0.4016830000000 1.0
C      1  0.4419280000000  0.5089890000000  0.4142720000000 1.0
C      1  0.5791540000000  0.4897040000000  0.5820240000000 1.0
C      1  0.4141840000000  0.6053120000000  0.4892510000000 1.0
C      1  0.5618360000000  0.4200790000000  0.5284170000000 1.0
C      1  0.5282150000000  0.3915530000000  0.5116140000000 1.0
C      1  0.4562020000000  0.5865570000000  0.4730500000000 1.0
C      1  0.4085760000000  0.4555830000000  0.5142180000000 1.0
C      1  0.5865510000000  0.5450560000000  0.4702900000000 1.0
C      1  0.4582130000000  0.5187330000000  0.3930150000000 1.0
C      1  0.5662620000000  0.4738880000000  0.6017520000000 1.0
C      1  0.5319190000000  0.5178440000000  0.5483090000000 1.0
C      1  0.4772430000000  0.4697380000000  0.4487670000000 1.0
C      1  0.4402410000000  0.5241960000000  0.4380630000000 1.0
C      1  0.5894700000000  0.4787550000000  0.5583320000000 1.0
C      1  0.4773870000000  0.5316370000000  0.5164920000000 1.0
C      1  0.5175530000000  0.4680540000000  0.5118970000000 1.0
C      1  0.4319520000000  0.5491930000000  0.5207000000000 1.0
C      1  0.5551570000000  0.4537970000000  0.4811920000000 1.0
C      1  0.5479220000000  0.4258490000000  0.4809760000000 1.0
C      1  0.4407040000000  0.5765590000000  0.5188270000000 1.0
C      1  0.4827940000000  0.4682730000000  0.5489410000000 1.0
C      1  0.5042380000000  0.5207780000000  0.4773930000000 1.0
C      1  0.5472850000000  0.5351260000000  0.5067450000000 1.0
C      1  0.4536400000000  0.4701770000000  0.4897110000000 1.0
C      1  0.4830160000000  0.5153890000000  0.4593880000000 1.0
C      1  0.5122820000000  0.4691050000000  0.5425810000000 1.0
C      1  0.4765330000000  0.5824260000000  0.4561660000000 1.0
C      1  0.5058100000000  0.3891030000000  0.5263050000000 1.0
C      1  0.4975460000000  0.5034520000000  0.6015170000000 1.0
C      1  0.5271570000000  0.4910900000000  0.4098000000000 1.0
C      1  0.5838670000000  0.4930920000000  0.4625310000000 1.0
C      1  0.4027360000000  0.5073820000000  0.5249600000000 1.0
C      1  0.4510330000000  0.5324350000000  0.5084330000000 1.0
C      1  0.5448210000000  0.4704370000000  0.5026240000000 1.0
C      1  0.5641220000000  0.4889420000000  0.5131460000000 1.0
C      1  0.4433310000000  0.5161670000000  0.4868870000000 1.0
C      1  0.4982570000000  0.4549460000000  0.4945340000000 1.0
C      1  0.5018870000000  0.5247570000000  0.5058540000000 1.0
C      1  0.3707280000000  0.6340030000000  0.4820880000000 1.0
C      1  0.5286020000000  0.4465760000000  0.5542980000000 1.0
C      1  0.4397280000000  0.4387690000000  0.4410610000000 1.0
C      1  0.5657270000000  0.5544840000000  0.5512840000000 1.0
C      1  0.5284600000000  0.5757770000000  0.4521360000000 1.0
C      1  0.4641890000000  0.4192510000000  0.5410630000000 1.0
C      1  0.5656260000000  0.5769450000000  0.5344280000000 1.0
C      1  0.4359520000000  0.4178750000000  0.4592590000000 1.0
C      1  0.4127630000000  0.4842860000000  0.5112920000000 1.0
C      1  0.5819450000000  0.5174530000000  0.4772010000000 1.0
C      1  0.5486890000000  0.4103330000000  0.5054390000000 1.0
C      1  0.4368910000000  0.5896780000000  0.4934860000000 1.0
C      1  0.4842760000000  0.4001240000000  0.5378730000000 1.0
C      1  0.5010920000000  0.5781160000000  0.4462720000000 1.0
C      1  0.5213450000000  0.4938340000000  0.5592490000000 1.0
C      1  0.4890700000000  0.4943040000000  0.4406360000000 1.0
C      1  0.4580710000000  0.5289470000000  0.6250450000000 1.0
C      1  0.5751560000000  0.4775970000000  0.3931750000000 1.0
C      1  0.5740890000000  0.5548570000000  0.4466730000000 1.0
C      1  0.4209840000000  0.4414500000000  0.5356000000000 1.0
C      1  0.5799670000000  0.4570220000000  0.6190190000000 1.0
C      1  0.4480430000000  0.5328790000000  0.3714130000000 1.0
C      1  0.5151800000000  0.5946370000000  0.5392530000000 1.0
C      1  0.4837250000000  0.3964520000000  0.4554100000000 1.0
C      1  0.4536050000000  0.4618160000000  0.4340920000000 1.0
C      1  0.5547430000000  0.5306150000000  0.5610080000000 1.0
C      1  0.5930310000000  0.4409080000000  0.6347940000000 1.0
C      1  0.4382970000000  0.5462490000000  0.3512780000000 1.0
C      1  0.5504260000000  0.5648590000000  0.4380450000000 1.0
C      1  0.4367750000000  0.4169830000000  0.5310190000000 1.0
C      1  0.5185020000000  0.4910600000000  0.5879200000000 1.0
C      1  0.5011840000000  0.4993380000000  0.4154670000000 1.0
C      1  0.4347770000000  0.4901350000000  0.4939570000000 1.0
C      1  0.5663350000000  0.5147770000000  0.5010270000000 1.0
C      1  0.5289290000000  0.5182610000000  0.4655950000000 1.0
C      1  0.4706810000000  0.4931550000000  0.5513740000000 1.0
C      1  0.5701560000000  0.5162930000000  0.5796410000000 1.0
C      1  0.4409640000000  0.4809770000000  0.4176820000000 1.0
C      1  0.5505230000000  0.4319530000000  0.5497140000000 1.0
C      1  0.3922980000000  0.6197920000000  0.4856130000000 1.0
C      1  0.4043650000000  0.4396360000000  0.4910140000000 1.0
C      1  0.5917290000000  0.5632260000000  0.4921490000000 1.0
C      1  0.5352890000000  0.5821430000000  0.4791600000000 1.0
C      1  0.4654770000000  0.4463290000000  0.5527090000000 1.0
C      1  0.4120990000000  0.4175590000000  0.4749720000000 1.0
C      1  0.5867340000000  0.5803780000000  0.5147270000000 1.0
C      1  0.4373000000000  0.4543650000000  0.5554970000000 1.0
C      1  0.5357850000000  0.6083180000000  0.4868730000000 1.0
C      1  0.4551910000000  0.5217080000000  0.4618130000000 1.0
C      1  0.5824520000000  0.4805560000000  0.5326040000000 1.0
C      1  0.4781230000000  0.4650300000000  0.4772170000000 1.0
C      1  0.5251830000000  0.5259940000000  0.5219010000000 1.0
END
