TITL C-74084-3399-320 0.00698366721623671 125000 -295.566670639108 0 0 56 (Ci) n - 1
REM
REM in /home/nfs/bkarasulu/CARBON/AIRSS/Generating-Clusters/LCBOP/Higher-Symm/SD-CG/FIRE-CG
REM
REM
REM
REM
REM
REM ./C.cell (b20cbc046b6831c77cfcea5457e17084)
REM AIRSS Version 0.9.1 bugfix July 2018 build 013d7b7c2542+ Fri, 06 Jul 2018 19:26:36 +0100
REM compiler GCC version 9.2.1 20190827 (Red Hat 9.2.1-1)
REM options -cpp -mtune=generic -march=x86-64 -g -O0 -fpre-include=/usr/include/finclude/math-vector-fortran.h
REM seed -1366332636 -981455444 -1335294000 -44640972 -127006791 2012397775 157597987 -26382144 -787892259 -998448885 -925165184 1642730889 -377867308 1880101526 2075271121 -648736257 -1266027619 774855364 1433978504 -1548856346 -974061718 -1080185110 1873280668 1167626933 1342370621 -1715607316 -919266996 619215730 -349639319 -1969538581 6252655 81607353 1930108965
REM
CELL 1.54180   50.00000   50.00000   50.00000   90.00000   90.00000   90.00000
LATT -1
SFAC C  
C      1  0.4991020000000  0.5424130000000  0.5651230000000 1.0
C      1  0.5648380000000  0.5422940000000  0.5017770000000 1.0
C      1  0.5013810000000  0.5413410000000  0.4346970000000 1.0
C      1  0.4343370000000  0.5423330000000  0.4983940000000 1.0
C      1  0.4986190000000  0.4586590000000  0.5653030000000 1.0
C      1  0.5656630000000  0.4576670000000  0.5016060000000 1.0
C      1  0.5008980000000  0.4575870000000  0.4348770000000 1.0
C      1  0.4351620000000  0.4577060000000  0.4982230000000 1.0
C      1  0.4561090000000  0.4668850000000  0.5407170000000 1.0
C      1  0.5410380000000  0.4673680000000  0.5437670000000 1.0
C      1  0.5427630000000  0.4670930000000  0.4572710000000 1.0
C      1  0.4587400000000  0.4669390000000  0.4567610000000 1.0
C      1  0.4572370000000  0.5329070000000  0.5427290000000 1.0
C      1  0.5412600000000  0.5330610000000  0.5432390000000 1.0
C      1  0.5438910000000  0.5331150000000  0.4592830000000 1.0
C      1  0.4589620000000  0.5326320000000  0.4562330000000 1.0
C      1  0.4791330000000  0.5183110000000  0.4370110000000 1.0
C      1  0.4358490000000  0.5177760000000  0.5204500000000 1.0
C      1  0.5211020000000  0.5194920000000  0.5630980000000 1.0
C      1  0.5632990000000  0.5196840000000  0.4795500000000 1.0
C      1  0.4788980000000  0.4805080000000  0.4369020000000 1.0
C      1  0.4367010000000  0.4803160000000  0.5204500000000 1.0
C      1  0.5208670000000  0.4816890000000  0.5629890000000 1.0
C      1  0.5641510000000  0.4822240000000  0.4795500000000 1.0
C      1  0.4804800000000  0.4775920000000  0.4928480000000 1.0
C      1  0.4932350000000  0.4771090000000  0.5205350000000 1.0
C      1  0.5218210000000  0.4765740000000  0.5058980000000 1.0
C      1  0.5067410000000  0.4771350000000  0.4793330000000 1.0
C      1  0.4781790000000  0.5234260000000  0.4941020000000 1.0
C      1  0.4932590000000  0.5228650000000  0.5206670000000 1.0
C      1  0.5195200000000  0.5224080000000  0.5071520000000 1.0
C      1  0.5067650000000  0.5228910000000  0.4794650000000 1.0
C      1  0.4787640000000  0.4306280000000  0.4888440000000 1.0
C      1  0.4879900000000  0.4307050000000  0.5208050000000 1.0
C      1  0.5203500000000  0.4307300000000  0.5124730000000 1.0
C      1  0.5122330000000  0.4305220000000  0.4780520000000 1.0
C      1  0.4796500000000  0.5692700000000  0.4875270000000 1.0
C      1  0.4877670000000  0.5694780000000  0.5219480000000 1.0
C      1  0.5212360000000  0.5693720000000  0.5111560000000 1.0
C      1  0.5120100000000  0.5692950000000  0.4791950000000 1.0
C      1  0.4557570000000  0.5566370000000  0.4751830000000 1.0
C      1  0.4767520000000  0.5563940000000  0.5460710000000 1.0
C      1  0.5452780000000  0.5563850000000  0.5235260000000 1.0
C      1  0.5244450000000  0.5565450000000  0.4554710000000 1.0
C      1  0.4547220000000  0.4436150000000  0.4764740000000 1.0
C      1  0.4755550000000  0.4434550000000  0.5445290000000 1.0
C      1  0.5442430000000  0.4433630000000  0.5248170000000 1.0
C      1  0.5232480000000  0.4436060000000  0.4539290000000 1.0
C      1  0.5405750000000  0.5131120000000  0.5229190000000 1.0
C      1  0.5234690000000  0.5131840000000  0.4592620000000 1.0
C      1  0.4585200000000  0.5131880000000  0.4771750000000 1.0
C      1  0.4772470000000  0.5131430000000  0.5415970000000 1.0
C      1  0.5414800000000  0.4868120000000  0.5228250000000 1.0
C      1  0.5227530000000  0.4868570000000  0.4584030000000 1.0
C      1  0.4594250000000  0.4868880000000  0.4770810000000 1.0
C      1  0.4765310000000  0.4868160000000  0.5407380000000 1.0
END
