TITL C-74079-2735-332 16247.5768059947 125000 -1154.4905567993 0 0 186 (C1) n - 1
REM
REM in /home/nfs/bkarasulu/CARBON/AIRSS/Generating-Clusters/LCBOP/Higher-Symm/SD-CG/FIRE-CG
REM
REM
REM
REM
REM
REM ./C.cell (b20cbc046b6831c77cfcea5457e17084)
REM AIRSS Version 0.9.1 bugfix July 2018 build 013d7b7c2542+ Fri, 06 Jul 2018 19:26:36 +0100
REM compiler GCC version 9.2.1 20190827 (Red Hat 9.2.1-1)
REM options -cpp -mtune=generic -march=x86-64 -g -O0 -fpre-include=/usr/include/finclude/math-vector-fortran.h
REM seed -1829537302 -1124038378 1120137588 -1856206509 -403366614 1124934675 1788242538 -1027614936 577562624 960936733 -190750437 -1564220598 1519369423 -2010225103 -1312108847 1975354335 -1825351206 1219219438 -666911480 -1191687364 -914225076 -2074857105 1198879905 -2052002459 -1077910846 -1184384705 -1446788077 -551348050 -1972296046 -1940225834 -1140433571 1800726375 1231868746
REM
CELL 1.54180   50.00000   50.00000   50.00000   90.00000   90.00000   90.00000
LATT -1
SFAC C  
C      1  0.4387720000000  0.5057410000000  0.5269250000000 1.0
C      1  0.6000950000000  0.5794420000000  0.5643010000000 1.0
C      1  0.5321000000000  0.6061300000000  0.4188530000000 1.0
C      1  0.5687050000000  0.5619880000000  0.4125450000000 1.0
C      1  0.6333150000000  0.5056440000000  0.5615580000000 1.0
C      1  0.4735300000000  0.4002660000000  0.5026870000000 1.0
C      1  0.4365080000000  0.4963330000000  0.4542850000000 1.0
C      1  0.5863080000000  0.6562050000000  0.4139880000000 1.0
C      1  0.3840150000000  0.5342860000000  0.5549620000000 1.0
C      1  0.4929200000000  0.5083290000000  0.4540140000000 1.0
C      1  0.5700680000000  0.5608990000000  0.4991070000000 1.0
C      1  0.4581120000000  0.3913940000000  0.4773210000000 1.0
C      1  0.4256290000000  0.5865780000000  0.5473570000000 1.0
C      1  0.4795600000000  0.5416020000000  0.5203240000000 1.0
C      1  0.5426440000000  0.5512840000000  0.4971790000000 1.0
C      1  0.4352490000000  0.5369870000000  0.6096060000000 1.0
C      1  0.4910860000000  0.4952220000000  0.5782160000000 1.0
C      1  0.4305790000000  0.5544540000000  0.4227040000000 1.0
C      1  0.6006950000000  0.4663600000000  0.5480190000000 1.0
C      1  0.5843690000000  0.4740260000000  0.5712650000000 1.0
C      1  0.4859990000000  0.4200290000000  0.5521040000000 1.0
C      1  0.5233910000000  0.5147440000000  0.5332310000000 1.0
C      1  0.5278470000000  0.5684500000000  0.4777930000000 1.0
C      1  0.4009920000000  0.5124260000000  0.5607890000000 1.0
C      1  0.4983280000000  0.6122640000000  0.5141030000000 1.0
C      1  0.3600260000000  0.5186450000000  0.4714970000000 1.0
C      1  0.5482820000000  0.3811280000000  0.5076730000000 1.0
C      1  0.5856530000000  0.5178720000000  0.4373650000000 1.0
C      1  0.5782660000000  0.4571220000000  0.3910240000000 1.0
C      1  0.5950660000000  0.4241190000000  0.4871550000000 1.0
C      1  0.5450840000000  0.5963440000000  0.5906630000000 1.0
C      1  0.3990920000000  0.4410580000000  0.5406760000000 1.0
C      1  0.3951330000000  0.4408850000000  0.4211960000000 1.0
C      1  0.5567510000000  0.4123240000000  0.5458930000000 1.0
C      1  0.5733870000000  0.5849880000000  0.4294230000000 1.0
C      1  0.5003140000000  0.4441940000000  0.5114380000000 1.0
C      1  0.3721430000000  0.4595780000000  0.4889030000000 1.0
C      1  0.5649720000000  0.4287890000000  0.4483220000000 1.0
C      1  0.5257910000000  0.4049310000000  0.4709400000000 1.0
C      1  0.3640990000000  0.4520820000000  0.4631900000000 1.0
C      1  0.5548350000000  0.4251430000000  0.4209190000000 1.0
C      1  0.3667170000000  0.4764400000000  0.5336670000000 1.0
C      1  0.4210530000000  0.5017360000000  0.4799950000000 1.0
C      1  0.3723250000000  0.5254560000000  0.4487820000000 1.0
C      1  0.5169680000000  0.5725400000000  0.5424160000000 1.0
C      1  0.5340970000000  0.4931670000000  0.4322010000000 1.0
C      1  0.4573510000000  0.4788570000000  0.4648560000000 1.0
C      1  0.5330630000000  0.5270960000000  0.5079420000000 1.0
C      1  0.5725600000000  0.5876090000000  0.5093970000000 1.0
C      1  0.5430720000000  0.5642970000000  0.4001890000000 1.0
C      1  0.5866120000000  0.5007890000000  0.4596790000000 1.0
C      1  0.4437200000000  0.3872730000000  0.5443050000000 1.0
C      1  0.4283290000000  0.5851920000000  0.4821050000000 1.0
C      1  0.6104880000000  0.4870640000000  0.4682310000000 1.0
C      1  0.3607010000000  0.4795410000000  0.5059930000000 1.0
C      1  0.4219080000000  0.4391290000000  0.4314090000000 1.0
C      1  0.4441050000000  0.4639530000000  0.4845880000000 1.0
C      1  0.4902400000000  0.4488390000000  0.5408510000000 1.0
C      1  0.4323500000000  0.4059040000000  0.4760390000000 1.0
C      1  0.4338020000000  0.5468390000000  0.5078680000000 1.0
C      1  0.4788090000000  0.4550130000000  0.6069050000000 1.0
C      1  0.5257320000000  0.4238630000000  0.4141280000000 1.0
C      1  0.3904140000000  0.5282850000000  0.4293420000000 1.0
C      1  0.6094500000000  0.5471580000000  0.4741470000000 1.0
C      1  0.4283380000000  0.4765040000000  0.5788910000000 1.0
C      1  0.5659020000000  0.4804940000000  0.3951630000000 1.0
C      1  0.5238850000000  0.5084430000000  0.4887530000000 1.0
C      1  0.4997310000000  0.5238930000000  0.6274260000000 1.0
C      1  0.4795750000000  0.4991020000000  0.5050850000000 1.0
C      1  0.4222880000000  0.6105370000000  0.5599770000000 1.0
C      1  0.6127060000000  0.5105230000000  0.5785230000000 1.0
C      1  0.4417190000000  0.4583210000000  0.4211140000000 1.0
C      1  0.4670810000000  0.4470860000000  0.4098940000000 1.0
C      1  0.5904520000000  0.4364790000000  0.4618220000000 1.0
C      1  0.5420020000000  0.4724150000000  0.5143800000000 1.0
C      1  0.4552670000000  0.5541190000000  0.5268350000000 1.0
C      1  0.5127840000000  0.5119990000000  0.4348410000000 1.0
C      1  0.4494720000000  0.5703480000000  0.5500100000000 1.0
C      1  0.4711590000000  0.5005430000000  0.3778000000000 1.0
C      1  0.5039840000000  0.4910970000000  0.4947750000000 1.0
C      1  0.5074290000000  0.5624590000000  0.4317260000000 1.0
C      1  0.4173680000000  0.5695970000000  0.5030390000000 1.0
C      1  0.5013140000000  0.3926670000000  0.5134980000000 1.0
C      1  0.5636790000000  0.5218740000000  0.5788380000000 1.0
C      1  0.5075120000000  0.4053410000000  0.5390810000000 1.0
C      1  0.5854330000000  0.5011260000000  0.5803270000000 1.0
C      1  0.4435980000000  0.5588900000000  0.5966610000000 1.0
C      1  0.5762550000000  0.4293770000000  0.5567380000000 1.0
C      1  0.5851000000000  0.5608540000000  0.4737460000000 1.0
C      1  0.4262370000000  0.4205720000000  0.4525890000000 1.0
C      1  0.5290990000000  0.4846090000000  0.5371030000000 1.0
C      1  0.6004740000000  0.4290090000000  0.5129080000000 1.0
C      1  0.4765290000000  0.4290390000000  0.6009360000000 1.0
C      1  0.4838970000000  0.4812260000000  0.4573690000000 1.0
C      1  0.6092900000000  0.5367910000000  0.5209060000000 1.0
C      1  0.4768940000000  0.4152890000000  0.5779900000000 1.0
C      1  0.4301020000000  0.5080670000000  0.4078480000000 1.0
C      1  0.4781730000000  0.5830090000000  0.4724890000000 1.0
C      1  0.6422320000000  0.4959220000000  0.5380010000000 1.0
C      1  0.4737620000000  0.4798260000000  0.5949300000000 1.0
C      1  0.4898720000000  0.5620610000000  0.5802190000000 1.0
C      1  0.6178570000000  0.5293270000000  0.4942990000000 1.0
C      1  0.5738260000000  0.6335210000000  0.4169550000000 1.0
C      1  0.5477990000000  0.5903030000000  0.4710110000000 1.0
C      1  0.4615310000000  0.5661840000000  0.5762310000000 1.0
C      1  0.5802300000000  0.5373780000000  0.4198140000000 1.0
C      1  0.4657830000000  0.4927960000000  0.5312400000000 1.0
C      1  0.5604630000000  0.6096570000000  0.4213710000000 1.0
C      1  0.3545530000000  0.5037630000000  0.4930820000000 1.0
C      1  0.5087570000000  0.5633370000000  0.6020470000000 1.0
C      1  0.4485430000000  0.5129490000000  0.6151930000000 1.0
C      1  0.4763090000000  0.4199850000000  0.4165760000000 1.0
C      1  0.5414330000000  0.4900600000000  0.4045760000000 1.0
C      1  0.5727260000000  0.4325430000000  0.4003330000000 1.0
C      1  0.4066520000000  0.4332580000000  0.5139900000000 1.0
C      1  0.6247910000000  0.5013050000000  0.4895330000000 1.0
C      1  0.5239240000000  0.6156990000000  0.5263480000000 1.0
C      1  0.3876160000000  0.4659140000000  0.5503760000000 1.0
C      1  0.4796580000000  0.4296650000000  0.4948760000000 1.0
C      1  0.5712850000000  0.5793880000000  0.4568170000000 1.0
C      1  0.4177660000000  0.4736490000000  0.4890670000000 1.0
C      1  0.5023230000000  0.4097260000000  0.4551900000000 1.0
C      1  0.4786860000000  0.5269660000000  0.4963550000000 1.0
C      1  0.4880140000000  0.4317130000000  0.4665140000000 1.0
C      1  0.4974800000000  0.5294020000000  0.5421950000000 1.0
C      1  0.5425540000000  0.4283450000000  0.4659940000000 1.0
C      1  0.5475080000000  0.4493930000000  0.5925790000000 1.0
C      1  0.5248390000000  0.4550450000000  0.5000420000000 1.0
C      1  0.4504100000000  0.5814150000000  0.4639970000000 1.0
C      1  0.4344460000000  0.4871240000000  0.4266440000000 1.0
C      1  0.5533100000000  0.5902720000000  0.5642140000000 1.0
C      1  0.5032800000000  0.5537540000000  0.5569660000000 1.0
C      1  0.3741320000000  0.4460350000000  0.4391890000000 1.0
C      1  0.4058300000000  0.5755210000000  0.5292780000000 1.0
C      1  0.5329750000000  0.5950720000000  0.5443760000000 1.0
C      1  0.4877410000000  0.5325120000000  0.4701180000000 1.0
C      1  0.5089520000000  0.5359690000000  0.4214350000000 1.0
C      1  0.5851100000000  0.5285650000000  0.5337780000000 1.0
C      1  0.5286360000000  0.4554680000000  0.4694600000000 1.0
C      1  0.5306630000000  0.4212050000000  0.5452060000000 1.0
C      1  0.4246030000000  0.4122490000000  0.5046760000000 1.0
C      1  0.4558260000000  0.4451870000000  0.4998320000000 1.0
C      1  0.5630160000000  0.4875860000000  0.5022740000000 1.0
C      1  0.5638540000000  0.4904680000000  0.4731490000000 1.0
C      1  0.6388590000000  0.4904260000000  0.5117050000000 1.0
C      1  0.5228740000000  0.5796030000000  0.4149130000000 1.0
C      1  0.5366140000000  0.5213170000000  0.5927000000000 1.0
C      1  0.5619890000000  0.3901260000000  0.5291470000000 1.0
C      1  0.5960020000000  0.4399070000000  0.5380990000000 1.0
C      1  0.4473460000000  0.4012420000000  0.5213700000000 1.0
C      1  0.5750690000000  0.5055150000000  0.5205370000000 1.0
C      1  0.6077860000000  0.4596290000000  0.4591410000000 1.0
C      1  0.5170930000000  0.4554280000000  0.5533630000000 1.0
C      1  0.4995230000000  0.4573280000000  0.4597000000000 1.0
C      1  0.4296640000000  0.5188400000000  0.5020530000000 1.0
C      1  0.5433830000000  0.6256410000000  0.5085340000000 1.0
C      1  0.4159440000000  0.5309500000000  0.4176840000000 1.0
C      1  0.5711820000000  0.4491300000000  0.5778540000000 1.0
C      1  0.5140830000000  0.4432190000000  0.3961760000000 1.0
C      1  0.5242800000000  0.3898650000000  0.4953380000000 1.0
C      1  0.4267790000000  0.5163820000000  0.5498910000000 1.0
C      1  0.4897310000000  0.4589450000000  0.3954950000000 1.0
C      1  0.3868670000000  0.5576080000000  0.5411670000000 1.0
C      1  0.4816530000000  0.5069580000000  0.5538180000000 1.0
C      1  0.5236780000000  0.4545870000000  0.5813200000000 1.0
C      1  0.4437750000000  0.5712330000000  0.4386340000000 1.0
C      1  0.4468930000000  0.5086600000000  0.3854490000000 1.0
C      1  0.5433010000000  0.4790920000000  0.4564070000000 1.0
C      1  0.3902270000000  0.4373750000000  0.3945170000000 1.0
C      1  0.4651090000000  0.4649390000000  0.5424610000000 1.0
C      1  0.4434580000000  0.4601840000000  0.5603060000000 1.0
C      1  0.5715870000000  0.5412230000000  0.5571780000000 1.0
C      1  0.5571220000000  0.6064620000000  0.4937990000000 1.0
C      1  0.4932140000000  0.4849840000000  0.3848170000000 1.0
C      1  0.4017800000000  0.4841910000000  0.5682990000000 1.0
C      1  0.4852110000000  0.6009630000000  0.4935160000000 1.0
C      1  0.5022410000000  0.4112870000000  0.4269880000000 1.0
C      1  0.5199650000000  0.4942180000000  0.3861950000000 1.0
C      1  0.5741870000000  0.5700800000000  0.5613620000000 1.0
C      1  0.5182520000000  0.5005150000000  0.5846120000000 1.0
C      1  0.4464740000000  0.4898540000000  0.5979390000000 1.0
C      1  0.5188180000000  0.5376970000000  0.6107810000000 1.0
C      1  0.5251170000000  0.5859480000000  0.6054280000000 1.0
C      1  0.3990300000000  0.4539720000000  0.4954830000000 1.0
C      1  0.4737450000000  0.5162750000000  0.6290050000000 1.0
C      1  0.5002330000000  0.5626980000000  0.4628500000000 1.0
END
