TITL C-74086-5274-304 24363.6276367043 125000 -888.066558277599 0 0 143 (C1) n - 1
REM
REM in /home/nfs/bkarasulu/CARBON/AIRSS/Generating-Clusters/LCBOP/Higher-Symm/SD-CG/FIRE-CG
REM
REM
REM
REM
REM
REM ./C.cell (b20cbc046b6831c77cfcea5457e17084)
REM AIRSS Version 0.9.1 bugfix July 2018 build 013d7b7c2542+ Fri, 06 Jul 2018 19:26:36 +0100
REM compiler GCC version 9.2.1 20190827 (Red Hat 9.2.1-1)
REM options -cpp -mtune=generic -march=x86-64 -g -O0 -fpre-include=/usr/include/finclude/math-vector-fortran.h
REM seed -1567939306 773426327 1148587218 -1752790221 -791866895 -1228303038 -1883560920 2046582875 -1752145790 -259965844 -948192759 -1597488599 -1516148765 -845455636 1043665884 1008641742 -1422757076 321476749 -1984999069 -315199177 1861817540 -568436518 1060925126 -1259894071 -163220526 482519145 -144589061 -788022930 878548649 1403408840 971332586 -1395590170 -26385387
REM
CELL 1.54180   50.00000   50.00000   50.00000   90.00000   90.00000   90.00000
LATT -1
SFAC C  
C      1  0.4551430000000  0.5021530000000  0.4481380000000 1.0
C      1  0.5322770000000  0.4972950000000  0.5545810000000 1.0
C      1  0.5143340000000  0.5557390000000  0.4706720000000 1.0
C      1  0.4868660000000  0.5550760000000  0.5245700000000 1.0
C      1  0.5943470000000  0.4548670000000  0.5326760000000 1.0
C      1  0.4066260000000  0.4363870000000  0.4768910000000 1.0
C      1  0.5856950000000  0.4670570000000  0.5666580000000 1.0
C      1  0.4079900000000  0.4490200000000  0.4505890000000 1.0
C      1  0.4325270000000  0.4794020000000  0.5160980000000 1.0
C      1  0.5657000000000  0.4868090000000  0.4869230000000 1.0
C      1  0.3917790000000  0.5329870000000  0.4155370000000 1.0
C      1  0.6068070000000  0.5153650000000  0.5730870000000 1.0
C      1  0.4752190000000  0.4572330000000  0.4122180000000 1.0
C      1  0.5136120000000  0.4574020000000  0.5957000000000 1.0
C      1  0.5707820000000  0.4092800000000  0.5305950000000 1.0
C      1  0.4486970000000  0.4083920000000  0.4655030000000 1.0
C      1  0.4638830000000  0.4380620000000  0.5771040000000 1.0
C      1  0.5296140000000  0.4455890000000  0.4239810000000 1.0
C      1  0.5914860000000  0.4878450000000  0.4374210000000 1.0
C      1  0.4068910000000  0.4830460000000  0.5692050000000 1.0
C      1  0.5065340000000  0.5739450000000  0.5889600000000 1.0
C      1  0.4968030000000  0.5878360000000  0.4053660000000 1.0
C      1  0.4331470000000  0.5433870000000  0.5873230000000 1.0
C      1  0.5588550000000  0.5378720000000  0.4054200000000 1.0
C      1  0.4261880000000  0.4166430000000  0.4839100000000 1.0
C      1  0.5847180000000  0.4309830000000  0.5182890000000 1.0
C      1  0.4063710000000  0.4689410000000  0.5201380000000 1.0
C      1  0.5937150000000  0.4801280000000  0.4868450000000 1.0
C      1  0.5410660000000  0.4478460000000  0.5862610000000 1.0
C      1  0.4514000000000  0.4403530000000  0.4239740000000 1.0
C      1  0.5573460000000  0.5711310000000  0.5347960000000 1.0
C      1  0.4558160000000  0.5858740000000  0.4668350000000 1.0
C      1  0.5275660000000  0.6112000000000  0.4773790000000 1.0
C      1  0.4936600000000  0.6116920000000  0.5259560000000 1.0
C      1  0.4715850000000  0.5452150000000  0.4548120000000 1.0
C      1  0.5250610000000  0.5430560000000  0.5477520000000 1.0
C      1  0.4339810000000  0.4113070000000  0.5127200000000 1.0
C      1  0.5720680000000  0.4262690000000  0.4843130000000 1.0
C      1  0.4894680000000  0.5044380000000  0.6116410000000 1.0
C      1  0.5023270000000  0.5018250000000  0.3923570000000 1.0
C      1  0.5165730000000  0.5437660000000  0.6252810000000 1.0
C      1  0.4889610000000  0.5486310000000  0.3775820000000 1.0
C      1  0.4907060000000  0.4682400000000  0.5296940000000 1.0
C      1  0.5037580000000  0.4704940000000  0.4708960000000 1.0
C      1  0.5649680000000  0.5386430000000  0.4914300000000 1.0
C      1  0.4302550000000  0.5326530000000  0.5162850000000 1.0
C      1  0.4229430000000  0.4409390000000  0.4270910000000 1.0
C      1  0.5690880000000  0.4536670000000  0.5853270000000 1.0
C      1  0.5729790000000  0.4978820000000  0.5346210000000 1.0
C      1  0.4119500000000  0.4773250000000  0.4529560000000 1.0
C      1  0.4977480000000  0.5232990000000  0.3741090000000 1.0
C      1  0.4989120000000  0.5238490000000  0.6302420000000 1.0
C      1  0.5078320000000  0.4275240000000  0.5598740000000 1.0
C      1  0.4912050000000  0.4221800000000  0.4417690000000 1.0
C      1  0.4665450000000  0.3929430000000  0.4832620000000 1.0
C      1  0.5469320000000  0.4009210000000  0.5167330000000 1.0
C      1  0.4404120000000  0.5595280000000  0.5127980000000 1.0
C      1  0.5624760000000  0.5557470000000  0.4692660000000 1.0
C      1  0.5219170000000  0.3952400000000  0.5281040000000 1.0
C      1  0.4924540000000  0.3877460000000  0.4740140000000 1.0
C      1  0.5061400000000  0.4094530000000  0.4622170000000 1.0
C      1  0.5010990000000  0.4118740000000  0.5375960000000 1.0
C      1  0.4617290000000  0.4025830000000  0.5095800000000 1.0
C      1  0.5470570000000  0.4125580000000  0.4906090000000 1.0
C      1  0.5692880000000  0.5530870000000  0.5156910000000 1.0
C      1  0.4394340000000  0.5742670000000  0.4881590000000 1.0
C      1  0.5473520000000  0.5571000000000  0.5585070000000 1.0
C      1  0.4588090000000  0.5678220000000  0.4429370000000 1.0
C      1  0.4768580000000  0.5107410000000  0.4850910000000 1.0
C      1  0.5160260000000  0.5091710000000  0.5161120000000 1.0
C      1  0.4922250000000  0.4954560000000  0.5238080000000 1.0
C      1  0.5017290000000  0.4980470000000  0.4765220000000 1.0
C      1  0.4254570000000  0.4960570000000  0.5834410000000 1.0
C      1  0.5697010000000  0.4950840000000  0.4234150000000 1.0
C      1  0.5244560000000  0.4240930000000  0.4777510000000 1.0
C      1  0.4797620000000  0.4208450000000  0.5214490000000 1.0
C      1  0.5445610000000  0.4541910000000  0.5395160000000 1.0
C      1  0.4518990000000  0.4638370000000  0.4761120000000 1.0
C      1  0.4146630000000  0.5389020000000  0.4032760000000 1.0
C      1  0.5832630000000  0.5019890000000  0.5804710000000 1.0
C      1  0.4765610000000  0.6041620000000  0.4774270000000 1.0
C      1  0.5421640000000  0.5940360000000  0.5240080000000 1.0
C      1  0.5595320000000  0.5168380000000  0.5915000000000 1.0
C      1  0.4426780000000  0.5360380000000  0.4039370000000 1.0
C      1  0.5446190000000  0.6037110000000  0.4971510000000 1.0
C      1  0.4760740000000  0.6114600000000  0.5053170000000 1.0
C      1  0.4794650000000  0.4999010000000  0.4332920000000 1.0
C      1  0.5095140000000  0.4981850000000  0.5704470000000 1.0
C      1  0.3966560000000  0.4519760000000  0.4992250000000 1.0
C      1  0.6044420000000  0.4761160000000  0.5136000000000 1.0
C      1  0.5491090000000  0.5458240000000  0.5859410000000 1.0
C      1  0.4576180000000  0.5596770000000  0.4138930000000 1.0
C      1  0.5122940000000  0.4878680000000  0.5989910000000 1.0
C      1  0.4761780000000  0.4889150000000  0.4051290000000 1.0
C      1  0.4517360000000  0.4610140000000  0.5040530000000 1.0
C      1  0.5474460000000  0.4655370000000  0.4869540000000 1.0
C      1  0.5008060000000  0.4429130000000  0.4232200000000 1.0
C      1  0.4920720000000  0.4409990000000  0.5807080000000 1.0
C      1  0.5537400000000  0.4405600000000  0.4362900000000 1.0
C      1  0.4429040000000  0.4296740000000  0.5617390000000 1.0
C      1  0.5385840000000  0.5658050000000  0.4586520000000 1.0
C      1  0.4615060000000  0.5667910000000  0.5311630000000 1.0
C      1  0.5238090000000  0.4526290000000  0.4788800000000 1.0
C      1  0.4736370000000  0.4489570000000  0.5184000000000 1.0
C      1  0.5532050000000  0.5124200000000  0.4873570000000 1.0
C      1  0.4419570000000  0.5065430000000  0.5176190000000 1.0
C      1  0.5401750000000  0.4999370000000  0.6057120000000 1.0
C      1  0.4536480000000  0.5096120000000  0.3960860000000 1.0
C      1  0.5517290000000  0.4810190000000  0.5429090000000 1.0
C      1  0.4394040000000  0.4817200000000  0.4579510000000 1.0
C      1  0.5317070000000  0.5189890000000  0.5362850000000 1.0
C      1  0.4598600000000  0.5231620000000  0.4664280000000 1.0
C      1  0.4603430000000  0.5751080000000  0.5591970000000 1.0
C      1  0.5392380000000  0.5761740000000  0.4319350000000 1.0
C      1  0.5186750000000  0.5912170000000  0.4203160000000 1.0
C      1  0.4842970000000  0.5804570000000  0.5746740000000 1.0
C      1  0.5037700000000  0.5169770000000  0.4356200000000 1.0
C      1  0.4885860000000  0.5193780000000  0.5668870000000 1.0
C      1  0.5024820000000  0.6098010000000  0.4669860000000 1.0
C      1  0.5177970000000  0.6037440000000  0.5354170000000 1.0
C      1  0.4296570000000  0.4205880000000  0.5395320000000 1.0
C      1  0.5715260000000  0.4347970000000  0.4566870000000 1.0
C      1  0.4992430000000  0.5408210000000  0.4513240000000 1.0
C      1  0.4967320000000  0.5415020000000  0.5487630000000 1.0
C      1  0.5565810000000  0.5630590000000  0.4140070000000 1.0
C      1  0.4382870000000  0.5662200000000  0.5743310000000 1.0
C      1  0.6008010000000  0.5001570000000  0.5288850000000 1.0
C      1  0.3920320000000  0.4961430000000  0.4491430000000 1.0
C      1  0.5246820000000  0.5094960000000  0.4895900000000 1.0
C      1  0.4696140000000  0.5069710000000  0.5118050000000 1.0
C      1  0.4715030000000  0.5144180000000  0.5902280000000 1.0
C      1  0.5215570000000  0.5089300000000  0.4140500000000 1.0
C      1  0.4797140000000  0.5672960000000  0.3969090000000 1.0
C      1  0.5259890000000  0.5565630000000  0.6017840000000 1.0
C      1  0.3968640000000  0.4731920000000  0.5462770000000 1.0
C      1  0.6040740000000  0.4818280000000  0.4606410000000 1.0
C      1  0.5497890000000  0.5123010000000  0.4131340000000 1.0
C      1  0.4432740000000  0.5171360000000  0.5890180000000 1.0
C      1  0.6160750000000  0.5141460000000  0.5476250000000 1.0
C      1  0.3830150000000  0.5164980000000  0.4345710000000 1.0
C      1  0.5340300000000  0.4379000000000  0.5597660000000 1.0
C      1  0.4624500000000  0.4210450000000  0.4431960000000 1.0
C      1  0.5022170000000  0.5576580000000  0.4985140000000 1.0
END
