TITL C-74079-2735-340 -3.95682779882301e-07 125000 -693.99492035624 0 0 113 (C1) n - 1
REM
REM in /home/nfs/bkarasulu/CARBON/AIRSS/Generating-Clusters/LCBOP/Higher-Symm/SD-CG/FIRE-CG
REM
REM
REM
REM
REM
REM ./C.cell (b20cbc046b6831c77cfcea5457e17084)
REM AIRSS Version 0.9.1 bugfix July 2018 build 013d7b7c2542+ Fri, 06 Jul 2018 19:26:36 +0100
REM compiler GCC version 9.2.1 20190827 (Red Hat 9.2.1-1)
REM options -cpp -mtune=generic -march=x86-64 -g -O0 -fpre-include=/usr/include/finclude/math-vector-fortran.h
REM seed -251473106 762352751 809342196 -891681975 -1177315773 -703663703 1621800587 -1708632643 -2037165335 -649000265 1599114325 -946678786 480640489 -1340156394 -1697867279 -392867505 -1218596080 -774373214 -937890130 1395307301 1466377692 490067457 1438799972 -1052723922 -1608727106 -1923454593 1088300026 -1725731718 441806852 -1308510853 2091389166 -1398844665 695277804
REM
CELL 1.54180   50.00000   50.00000   50.00000   90.00000   90.00000   90.00000
LATT -1
SFAC C  
C      1  0.5096830000000  0.4681430000000  0.5606160000000 1.0
C      1  0.5279620000000  0.5081900000000  0.4423400000000 1.0
C      1  0.4868570000000  0.5275570000000  0.5581910000000 1.0
C      1  0.4684110000000  0.4882800000000  0.4471380000000 1.0
C      1  0.5558100000000  0.4326410000000  0.5618770000000 1.0
C      1  0.5593980000000  0.5571780000000  0.4343760000000 1.0
C      1  0.4434130000000  0.5719130000000  0.5592840000000 1.0
C      1  0.4363630000000  0.4418100000000  0.4370690000000 1.0
C      1  0.5459770000000  0.5098350000000  0.4198020000000 1.0
C      1  0.4861070000000  0.5480150000000  0.5791990000000 1.0
C      1  0.4509530000000  0.4887880000000  0.4244350000000 1.0
C      1  0.5097350000000  0.4480400000000  0.5814880000000 1.0
C      1  0.4696540000000  0.5528570000000  0.4566570000000 1.0
C      1  0.4501190000000  0.4672310000000  0.5385390000000 1.0
C      1  0.5327980000000  0.4462550000000  0.4562750000000 1.0
C      1  0.5490770000000  0.5279180000000  0.5475970000000 1.0
C      1  0.4335030000000  0.5138530000000  0.5091250000000 1.0
C      1  0.5013540000000  0.4403610000000  0.4916530000000 1.0
C      1  0.5529660000000  0.4960760000000  0.5089530000000 1.0
C      1  0.5018890000000  0.5517700000000  0.4944690000000 1.0
C      1  0.5416950000000  0.4024360000000  0.5092950000000 1.0
C      1  0.5953190000000  0.5437280000000  0.4832170000000 1.0
C      1  0.4646470000000  0.5981740000000  0.5078180000000 1.0
C      1  0.4078800000000  0.4592070000000  0.4885600000000 1.0
C      1  0.5759190000000  0.4716140000000  0.4315000000000 1.0
C      1  0.5281850000000  0.5737130000000  0.5681330000000 1.0
C      1  0.4257670000000  0.5304890000000  0.4315010000000 1.0
C      1  0.4712860000000  0.4195730000000  0.5667900000000 1.0
C      1  0.4414500000000  0.4290320000000  0.4619120000000 1.0
C      1  0.5691450000000  0.4372450000000  0.5366320000000 1.0
C      1  0.5560510000000  0.5695020000000  0.4597710000000 1.0
C      1  0.4294370000000  0.5717220000000  0.5342350000000 1.0
C      1  0.5768470000000  0.4777130000000  0.5062060000000 1.0
C      1  0.5204300000000  0.5752810000000  0.4950140000000 1.0
C      1  0.4138530000000  0.5345130000000  0.5060650000000 1.0
C      1  0.4809670000000  0.4183710000000  0.4929240000000 1.0
C      1  0.4732940000000  0.5308550000000  0.4158340000000 1.0
C      1  0.4646550000000  0.4679420000000  0.5819910000000 1.0
C      1  0.5289050000000  0.4652010000000  0.4142650000000 1.0
C      1  0.5289450000000  0.5262670000000  0.5876330000000 1.0
C      1  0.5295800000000  0.5894270000000  0.5431560000000 1.0
C      1  0.4104990000000  0.5304250000000  0.4560480000000 1.0
C      1  0.4733750000000  0.4049160000000  0.5415460000000 1.0
C      1  0.5909010000000  0.4724330000000  0.4566550000000 1.0
C      1  0.4659110000000  0.4151940000000  0.4682010000000 1.0
C      1  0.5818060000000  0.4624300000000  0.5305330000000 1.0
C      1  0.5316390000000  0.5812930000000  0.4689610000000 1.0
C      1  0.4102320000000  0.5513770000000  0.5286790000000 1.0
C      1  0.5033630000000  0.5410710000000  0.5376270000000 1.0
C      1  0.4579470000000  0.5044910000000  0.4689650000000 1.0
C      1  0.4972860000000  0.4539960000000  0.5386930000000 1.0
C      1  0.5417610000000  0.4943090000000  0.4636770000000 1.0
C      1  0.3984940000000  0.5043700000000  0.4618360000000 1.0
C      1  0.4975080000000  0.3890810000000  0.5373390000000 1.0
C      1  0.6064850000000  0.4966420000000  0.4607560000000 1.0
C      1  0.5068490000000  0.6070700000000  0.5388250000000 1.0
C      1  0.5814930000000  0.4606400000000  0.4819820000000 1.0
C      1  0.5401020000000  0.5802640000000  0.5171430000000 1.0
C      1  0.4156250000000  0.5477780000000  0.4797950000000 1.0
C      1  0.4629500000000  0.4153780000000  0.5163280000000 1.0
C      1  0.5249080000000  0.4593150000000  0.5010080000000 1.0
C      1  0.5364420000000  0.5210440000000  0.5025620000000 1.0
C      1  0.4753140000000  0.5376990000000  0.5015690000000 1.0
C      1  0.4797180000000  0.4774320000000  0.5004400000000 1.0
C      1  0.4855590000000  0.4608950000000  0.4781990000000 1.0
C      1  0.5341750000000  0.4782970000000  0.5231060000000 1.0
C      1  0.5185300000000  0.5318720000000  0.4807540000000 1.0
C      1  0.4581550000000  0.5223470000000  0.5216810000000 1.0
C      1  0.5484930000000  0.4246120000000  0.4664170000000 1.0
C      1  0.5902610000000  0.5653930000000  0.5245630000000 1.0
C      1  0.4564560000000  0.5764700000000  0.4652320000000 1.0
C      1  0.4290480000000  0.4505280000000  0.5303780000000 1.0
C      1  0.6063260000000  0.5483970000000  0.5096480000000 1.0
C      1  0.4703870000000  0.5978040000000  0.4792560000000 1.0
C      1  0.4052240000000  0.4606230000000  0.5177080000000 1.0
C      1  0.5377770000000  0.4013810000000  0.4803290000000 1.0
C      1  0.4389880000000  0.5837270000000  0.5096660000000 1.0
C      1  0.4263570000000  0.4360540000000  0.4852980000000 1.0
C      1  0.5640870000000  0.4218200000000  0.5124900000000 1.0
C      1  0.5737360000000  0.5641390000000  0.4815640000000 1.0
C      1  0.4804190000000  0.4424450000000  0.5827180000000 1.0
C      1  0.5531300000000  0.4815580000000  0.4159810000000 1.0
C      1  0.5151830000000  0.5522440000000  0.5839130000000 1.0
C      1  0.4476670000000  0.5170160000000  0.4181010000000 1.0
C      1  0.4748520000000  0.4640880000000  0.5247280000000 1.0
C      1  0.5349680000000  0.4689720000000  0.4745380000000 1.0
C      1  0.5298120000000  0.5338490000000  0.5279070000000 1.0
C      1  0.4657000000000  0.5311440000000  0.4748550000000 1.0
C      1  0.5671270000000  0.5741850000000  0.5094490000000 1.0
C      1  0.4322750000000  0.5715930000000  0.4822540000000 1.0
C      1  0.4378260000000  0.4287740000000  0.5122900000000 1.0
C      1  0.5700920000000  0.4340520000000  0.4852550000000 1.0
C      1  0.4893810000000  0.5660220000000  0.5333270000000 1.0
C      1  0.4366550000000  0.4964720000000  0.4863250000000 1.0
C      1  0.5121350000000  0.4309020000000  0.5328180000000 1.0
C      1  0.5645630000000  0.5102050000000  0.4696200000000 1.0
C      1  0.4376800000000  0.4640250000000  0.4214940000000 1.0
C      1  0.5350260000000  0.4342930000000  0.5798740000000 1.0
C      1  0.5577840000000  0.5354910000000  0.4180650000000 1.0
C      1  0.4628380000000  0.5644400000000  0.5769560000000 1.0
C      1  0.4885330000000  0.5412420000000  0.4380720000000 1.0
C      1  0.4563860000000  0.4858670000000  0.5598020000000 1.0
C      1  0.5129610000000  0.4563660000000  0.4368210000000 1.0
C      1  0.5391390000000  0.5088490000000  0.5663550000000 1.0
C      1  0.5915770000000  0.5189030000000  0.4705670000000 1.0
C      1  0.4843240000000  0.5936480000000  0.5275510000000 1.0
C      1  0.4127140000000  0.4843770000000  0.4764420000000 1.0
C      1  0.5198550000000  0.4040130000000  0.5273020000000 1.0
C      1  0.4887080000000  0.4679600000000  0.4505870000000 1.0
C      1  0.5297260000000  0.4852660000000  0.5517220000000 1.0
C      1  0.5114450000000  0.5286120000000  0.4521740000000 1.0
C      1  0.4653830000000  0.5119910000000  0.5484650000000 1.0
C      1  0.4945280000000  0.4998300000000  0.5025030000000 1.0
END
