TITL C-74079-2735-130 -3.19042876577297e-07 125000 -178.662575663104 0 0 32 (C1) n - 1
REM
REM in /home/nfs/bkarasulu/CARBON/AIRSS/Generating-Clusters/LCBOP/Higher-Symm/SD-CG/FIRE-CG
REM
REM
REM
REM
REM
REM ./C.cell (b20cbc046b6831c77cfcea5457e17084)
REM AIRSS Version 0.9.1 bugfix July 2018 build 013d7b7c2542+ Fri, 06 Jul 2018 19:26:36 +0100
REM compiler GCC version 9.2.1 20190827 (Red Hat 9.2.1-1)
REM options -cpp -mtune=generic -march=x86-64 -g -O0 -fpre-include=/usr/include/finclude/math-vector-fortran.h
REM seed -983515822 -1619447899 -1657777449 234476333 -2061651456 1439623447 419798980 873769391 412397103 695953740 -1905200486 -446758814 244281733 -850471868 -411691739 870337815 909246832 275950756 658084055 1779262142 -563731166 1676412780 1951777470 1924035869 -792080968 874923568 266416204 -1398912957 1192298053 -997161147 -1439444304 1073325512 -603779072
REM
CELL 1.54180   50.00000   50.00000   50.00000   90.00000   90.00000   90.00000
LATT -1
SFAC C  
C      1  0.5460390000000  0.5034640000000  0.5072310000000 1.0
C      1  0.5198000000000  0.4563160000000  0.5066700000000 1.0
C      1  0.4654800000000  0.4718370000000  0.5098980000000 1.0
C      1  0.4666120000000  0.5248340000000  0.5113200000000 1.0
C      1  0.5122430000000  0.5463170000000  0.5048300000000 1.0
C      1  0.5722700000000  0.4961160000000  0.5059430000000 1.0
C      1  0.5402760000000  0.4385400000000  0.5033660000000 1.0
C      1  0.4401110000000  0.4618660000000  0.5092690000000 1.0
C      1  0.4421880000000  0.5367500000000  0.5133010000000 1.0
C      1  0.5167570000000  0.5729820000000  0.5027970000000 1.0
C      1  0.4815240000000  0.4731540000000  0.5335590000000 1.0
C      1  0.4845730000000  0.5205390000000  0.5336480000000 1.0
C      1  0.5109430000000  0.5307120000000  0.5289750000000 1.0
C      1  0.5337920000000  0.5140490000000  0.5307750000000 1.0
C      1  0.5055390000000  0.4588020000000  0.5309560000000 1.0
C      1  0.4786260000000  0.4833770000000  0.4350630000000 1.0
C      1  0.4768530000000  0.5126710000000  0.4346480000000 1.0
C      1  0.5042490000000  0.5232250000000  0.4324440000000 1.0
C      1  0.5229000000000  0.5005040000000  0.4325280000000 1.0
C      1  0.5069890000000  0.4759340000000  0.4337080000000 1.0
C      1  0.4667900000000  0.4729600000000  0.4591880000000 1.0
C      1  0.4640010000000  0.5223570000000  0.4587880000000 1.0
C      1  0.5099310000000  0.5405270000000  0.4545980000000 1.0
C      1  0.5409300000000  0.5020360000000  0.4552460000000 1.0
C      1  0.5143170000000  0.4604530000000  0.4568300000000 1.0
C      1  0.5106930000000  0.4744160000000  0.4841140000000 1.0
C      1  0.4795350000000  0.4827610000000  0.4854340000000 1.0
C      1  0.4781290000000  0.5146710000000  0.4850570000000 1.0
C      1  0.5075480000000  0.5271330000000  0.4818140000000 1.0
C      1  0.5274830000000  0.5017150000000  0.4831930000000 1.0
C      1  0.4750000000000  0.4972990000000  0.5757550000000 1.0
C      1  0.4801810000000  0.4969990000000  0.5490330000000 1.0
END
