TITL C-74083-3671-207 3.79646812537756e-05 125000 -658.483234805536 0 0 106 (C1) n - 1
REM
REM in /home/nfs/bkarasulu/CARBON/AIRSS/Generating-Clusters/LCBOP/Higher-Symm/SD-CG/FIRE-CG
REM
REM
REM
REM
REM
REM ./C.cell (b20cbc046b6831c77cfcea5457e17084)
REM AIRSS Version 0.9.1 bugfix July 2018 build 013d7b7c2542+ Fri, 06 Jul 2018 19:26:36 +0100
REM compiler GCC version 9.2.1 20190827 (Red Hat 9.2.1-1)
REM options -cpp -mtune=generic -march=x86-64 -g -O0 -fpre-include=/usr/include/finclude/math-vector-fortran.h
REM seed 1925801580 1362440406 -761691798 1852735407 1424520661 -787636710 1491333248 753055120 1770929856 1841463830 -769888789 2002822191 971926649 1413610814 1605911035 -1057130541 -525995565 1884355400 942014426 -1634493061 1183424392 1277928988 -455886221 -1926348721 1969488250 926488372 -265549097 1600521854 1783273781 -641031595 261952328 965972078 646758495
REM
CELL 1.54180   50.00000   50.00000   50.00000   90.00000   90.00000   90.00000
LATT -1
SFAC C  
C      1  0.5545660000000  0.5834820000000  0.5322590000000 1.0
C      1  0.4503130000000  0.5834120000000  0.4686730000000 1.0
C      1  0.5417000000000  0.4180750000000  0.5245880000000 1.0
C      1  0.4580950000000  0.4177160000000  0.4727400000000 1.0
C      1  0.4431780000000  0.5797340000000  0.5288790000000 1.0
C      1  0.5743940000000  0.5799690000000  0.4701770000000 1.0
C      1  0.4588130000000  0.4204290000000  0.5276870000000 1.0
C      1  0.5395060000000  0.4225890000000  0.4699130000000 1.0
C      1  0.5613260000000  0.4674590000000  0.4711250000000 1.0
C      1  0.4415240000000  0.4661010000000  0.5258810000000 1.0
C      1  0.5605110000000  0.5356340000000  0.4791760000000 1.0
C      1  0.4410470000000  0.5336960000000  0.5210800000000 1.0
C      1  0.4377460000000  0.4639540000000  0.4711730000000 1.0
C      1  0.5565520000000  0.4642330000000  0.5261040000000 1.0
C      1  0.4390090000000  0.5347960000000  0.4692680000000 1.0
C      1  0.5568700000000  0.5352780000000  0.5290970000000 1.0
C      1  0.4500840000000  0.3975960000000  0.5412110000000 1.0
C      1  0.5440000000000  0.3982600000000  0.4573520000000 1.0
C      1  0.4387120000000  0.5779830000000  0.5577170000000 1.0
C      1  0.5618540000000  0.5816790000000  0.4461510000000 1.0
C      1  0.5557650000000  0.3949350000000  0.5351040000000 1.0
C      1  0.4537380000000  0.3931210000000  0.4606020000000 1.0
C      1  0.5578020000000  0.5969960000000  0.5576780000000 1.0
C      1  0.4476940000000  0.5981130000000  0.4447420000000 1.0
C      1  0.4637310000000  0.5700830000000  0.5714530000000 1.0
C      1  0.5372940000000  0.5728140000000  0.4347720000000 1.0
C      1  0.4629530000000  0.3783010000000  0.5546000000000 1.0
C      1  0.5345520000000  0.3757140000000  0.4468350000000 1.0
C      1  0.5333570000000  0.6012230000000  0.5703620000000 1.0
C      1  0.4680130000000  0.6042340000000  0.4278110000000 1.0
C      1  0.5386530000000  0.3782100000000  0.5485420000000 1.0
C      1  0.4643100000000  0.3714940000000  0.4492140000000 1.0
C      1  0.5709640000000  0.5119400000000  0.5229740000000 1.0
C      1  0.4241590000000  0.5122320000000  0.4765950000000 1.0
C      1  0.5736590000000  0.4852840000000  0.5214050000000 1.0
C      1  0.4217030000000  0.4854890000000  0.4774710000000 1.0
C      1  0.4254320000000  0.5120810000000  0.5156920000000 1.0
C      1  0.5749130000000  0.5130300000000  0.4838750000000 1.0
C      1  0.4244730000000  0.4857230000000  0.5160730000000 1.0
C      1  0.5773600000000  0.4867040000000  0.4832430000000 1.0
C      1  0.5145070000000  0.5577930000000  0.5161920000000 1.0
C      1  0.4774760000000  0.5521090000000  0.4865810000000 1.0
C      1  0.5132980000000  0.4684270000000  0.5096800000000 1.0
C      1  0.4770630000000  0.4547480000000  0.4886100000000 1.0
C      1  0.4846190000000  0.5542800000000  0.5151940000000 1.0
C      1  0.5207120000000  0.5607590000000  0.4862240000000 1.0
C      1  0.4869700000000  0.4578260000000  0.5165480000000 1.0
C      1  0.5190370000000  0.4619720000000  0.4824030000000 1.0
C      1  0.5297960000000  0.4717570000000  0.5317690000000 1.0
C      1  0.4660040000000  0.4713110000000  0.4687440000000 1.0
C      1  0.5280870000000  0.5364630000000  0.5340080000000 1.0
C      1  0.4684610000000  0.5341510000000  0.4661920000000 1.0
C      1  0.4685340000000  0.4736260000000  0.5351580000000 1.0
C      1  0.5344670000000  0.4770950000000  0.4638480000000 1.0
C      1  0.4690720000000  0.5321100000000  0.5284920000000 1.0
C      1  0.5323250000000  0.5373680000000  0.4741650000000 1.0
C      1  0.5131190000000  0.4337950000000  0.4733040000000 1.0
C      1  0.4873810000000  0.4287060000000  0.5274840000000 1.0
C      1  0.5062350000000  0.5811120000000  0.4702480000000 1.0
C      1  0.4727870000000  0.5798380000000  0.5282110000000 1.0
C      1  0.4848330000000  0.4290040000000  0.4763570000000 1.0
C      1  0.5120420000000  0.4140990000000  0.5323230000000 1.0
C      1  0.4782200000000  0.5790950000000  0.4755620000000 1.0
C      1  0.5248500000000  0.5826220000000  0.5298910000000 1.0
C      1  0.5111890000000  0.5916920000000  0.5545160000000 1.0
C      1  0.4946850000000  0.5998760000000  0.4272770000000 1.0
C      1  0.5118980000000  0.3883330000000  0.5476420000000 1.0
C      1  0.4867010000000  0.3591390000000  0.4417090000000 1.0
C      1  0.4841770000000  0.5841090000000  0.5552070000000 1.0
C      1  0.5140260000000  0.5870370000000  0.4433540000000 1.0
C      1  0.4893920000000  0.3753080000000  0.5574690000000 1.0
C      1  0.5132900000000  0.3608160000000  0.4408540000000 1.0
C      1  0.4788570000000  0.5251170000000  0.4168670000000 1.0
C      1  0.5216390000000  0.5224280000000  0.5838760000000 1.0
C      1  0.4726270000000  0.4799150000000  0.4213130000000 1.0
C      1  0.5280830000000  0.4768790000000  0.5815300000000 1.0
C      1  0.5334360000000  0.5450830000000  0.4275370000000 1.0
C      1  0.4666430000000  0.5426440000000  0.5771840000000 1.0
C      1  0.5191650000000  0.4930440000000  0.4150600000000 1.0
C      1  0.4813610000000  0.4897070000000  0.5874470000000 1.0
C      1  0.4870500000000  0.5318250000000  0.4441130000000 1.0
C      1  0.5122980000000  0.5291910000000  0.5571680000000 1.0
C      1  0.4828550000000  0.4795300000000  0.4480600000000 1.0
C      1  0.5167820000000  0.4753420000000  0.5555470000000 1.0
C      1  0.5177620000000  0.5265500000000  0.4495410000000 1.0
C      1  0.4827210000000  0.5216540000000  0.5524500000000 1.0
C      1  0.5178080000000  0.4941210000000  0.4457740000000 1.0
C      1  0.4828960000000  0.4898800000000  0.5565990000000 1.0
C      1  0.5591880000000  0.4399900000000  0.4829060000000 1.0
C      1  0.4405870000000  0.4389550000000  0.5144850000000 1.0
C      1  0.5712880000000  0.5603280000000  0.4902420000000 1.0
C      1  0.4329900000000  0.5601250000000  0.5108130000000 1.0
C      1  0.4378850000000  0.4367260000000  0.4846580000000 1.0
C      1  0.5570440000000  0.4389960000000  0.5122170000000 1.0
C      1  0.4335910000000  0.5620670000000  0.4812840000000 1.0
C      1  0.5668510000000  0.5613490000000  0.5188800000000 1.0
C      1  0.5501410000000  0.5168930000000  0.5877740000000 1.0
C      1  0.4504920000000  0.5193780000000  0.4121660000000 1.0
C      1  0.5538510000000  0.4893520000000  0.5861340000000 1.0
C      1  0.4468550000000  0.4918930000000  0.4152040000000 1.0
C      1  0.4544970000000  0.5276420000000  0.5971240000000 1.0
C      1  0.5459890000000  0.5311700000000  0.4066610000000 1.0
C      1  0.4599260000000  0.5014880000000  0.6010570000000 1.0
C      1  0.5405610000000  0.5051770000000  0.4016050000000 1.0
C      1  0.4917820000000  0.4988530000000  0.4079920000000 1.0
C      1  0.5089240000000  0.4964050000000  0.5942240000000 1.0
END
