TITL C-74083-3671-136 2.43362605967641e-07 125000 -356.875808789897 0 0 59 (C1) n - 1
REM
REM in /home/nfs/bkarasulu/CARBON/AIRSS/Generating-Clusters/LCBOP/Higher-Symm/SD-CG/FIRE-CG
REM
REM
REM
REM
REM
REM ./C.cell (b20cbc046b6831c77cfcea5457e17084)
REM AIRSS Version 0.9.1 bugfix July 2018 build 013d7b7c2542+ Fri, 06 Jul 2018 19:26:36 +0100
REM compiler GCC version 9.2.1 20190827 (Red Hat 9.2.1-1)
REM options -cpp -mtune=generic -march=x86-64 -g -O0 -fpre-include=/usr/include/finclude/math-vector-fortran.h
REM seed 1402729300 1595398721 -1629662458 1972588201 -89308840 1078203095 1773336405 613057923 1114234230 474465886 -1724864127 2051459896 -46274829 -581514179 -287828257 -708710376 -1235391620 1062639737 -637207726 -1570953626 1948333294 582997733 1937837947 999332890 -1004318897 540072313 2069044101 -1418002205 -5961353 -1703461474 737770353 153141523 2063572559
REM
CELL 1.54180   50.00000   50.00000   50.00000   90.00000   90.00000   90.00000
LATT -1
SFAC C  
C      1  0.5235800000000  0.5131240000000  0.4423460000000 1.0
C      1  0.5733800000000  0.5305560000000  0.5270620000000 1.0
C      1  0.4284070000000  0.4777850000000  0.4853770000000 1.0
C      1  0.4396280000000  0.5007230000000  0.4309880000000 1.0
C      1  0.4957710000000  0.5540320000000  0.5372410000000 1.0
C      1  0.5177820000000  0.6001060000000  0.4970520000000 1.0
C      1  0.5180640000000  0.4871330000000  0.4328100000000 1.0
C      1  0.5620890000000  0.4896590000000  0.5537510000000 1.0
C      1  0.4540750000000  0.5226850000000  0.4251420000000 1.0
C      1  0.5758490000000  0.5157920000000  0.5023050000000 1.0
C      1  0.4467200000000  0.4447200000000  0.5688230000000 1.0
C      1  0.4844950000000  0.3986330000000  0.5423730000000 1.0
C      1  0.4512110000000  0.5976600000000  0.5021910000000 1.0
C      1  0.4345890000000  0.4944870000000  0.5291450000000 1.0
C      1  0.5828790000000  0.4644620000000  0.4915880000000 1.0
C      1  0.5122160000000  0.5467010000000  0.5606700000000 1.0
C      1  0.4986110000000  0.4677690000000  0.4387820000000 1.0
C      1  0.4944470000000  0.4919460000000  0.4985030000000 1.0
C      1  0.4727880000000  0.4673050000000  0.4272380000000 1.0
C      1  0.4573470000000  0.4385190000000  0.5437260000000 1.0
C      1  0.5601570000000  0.5178670000000  0.5500950000000 1.0
C      1  0.5621780000000  0.5233350000000  0.4785680000000 1.0
C      1  0.4830350000000  0.4260220000000  0.5421780000000 1.0
C      1  0.5067400000000  0.4410390000000  0.5405460000000 1.0
C      1  0.5470600000000  0.5194580000000  0.4567570000000 1.0
C      1  0.5304120000000  0.4586420000000  0.5016340000000 1.0
C      1  0.4480410000000  0.4750500000000  0.4392140000000 1.0
C      1  0.5142810000000  0.5445390000000  0.5151760000000 1.0
C      1  0.5064130000000  0.4976940000000  0.5234890000000 1.0
C      1  0.5074440000000  0.4687260000000  0.4871100000000 1.0
C      1  0.4400470000000  0.4626410000000  0.4640430000000 1.0
C      1  0.5290480000000  0.4545530000000  0.5301660000000 1.0
C      1  0.4369410000000  0.5174960000000  0.5114560000000 1.0
C      1  0.6030690000000  0.4476540000000  0.4842750000000 1.0
C      1  0.5425370000000  0.5976190000000  0.5075140000000 1.0
C      1  0.4618240000000  0.5306350000000  0.5088800000000 1.0
C      1  0.4324480000000  0.4699630000000  0.5141120000000 1.0
C      1  0.4789290000000  0.5321650000000  0.4287520000000 1.0
C      1  0.4951470000000  0.5347670000000  0.4736390000000 1.0
C      1  0.4435520000000  0.4273890000000  0.4974930000000 1.0
C      1  0.5879080000000  0.4904280000000  0.5012130000000 1.0
C      1  0.4424460000000  0.4442110000000  0.5202310000000 1.0
C      1  0.4988240000000  0.4548770000000  0.4641400000000 1.0
C      1  0.4973680000000  0.5813190000000  0.4918210000000 1.0
C      1  0.5731980000000  0.5588740000000  0.5251980000000 1.0
C      1  0.4707080000000  0.5559000000000  0.5219740000000 1.0
C      1  0.4523560000000  0.4376430000000  0.4726140000000 1.0
C      1  0.4255760000000  0.5066830000000  0.4866210000000 1.0
C      1  0.5226080000000  0.5198020000000  0.5266170000000 1.0
C      1  0.5558580000000  0.4568210000000  0.4899690000000 1.0
C      1  0.4797480000000  0.4342700000000  0.4668620000000 1.0
C      1  0.5331310000000  0.5274040000000  0.5530520000000 1.0
C      1  0.5484220000000  0.4675140000000  0.5464480000000 1.0
C      1  0.4715470000000  0.5798400000000  0.5050560000000 1.0
C      1  0.5618080000000  0.5819520000000  0.5176690000000 1.0
C      1  0.5004110000000  0.5293950000000  0.4466520000000 1.0
C      1  0.4368100000000  0.4511520000000  0.5920510000000 1.0
C      1  0.4803600000000  0.5164070000000  0.4901650000000 1.0
C      1  0.5076820000000  0.5544560000000  0.4894360000000 1.0
END
