TITL C-74080-5790-296 0.955091078554307 125000 -480.073027004147 0 0 81 (C1) n - 1
REM
REM in /home/nfs/bkarasulu/CARBON/AIRSS/Generating-Clusters/LCBOP/Higher-Symm/SD-CG/FIRE-CG
REM
REM
REM
REM
REM
REM ./C.cell (b20cbc046b6831c77cfcea5457e17084)
REM AIRSS Version 0.9.1 bugfix July 2018 build 013d7b7c2542+ Fri, 06 Jul 2018 19:26:36 +0100
REM compiler GCC version 9.2.1 20190827 (Red Hat 9.2.1-1)
REM options -cpp -mtune=generic -march=x86-64 -g -O0 -fpre-include=/usr/include/finclude/math-vector-fortran.h
REM seed 1664856905 -1421533661 -267143427 -1906516872 195209701 -2078634337 -2107925717 -1801468545 -1744334969 753006843 1771021685 -1043397417 489171997 698411387 679478074 -1952200380 -370596218 890091173 -30510230 1273367408 2091331141 2121046172 931342838 590030604 260463629 -201620931 -1041567242 1430819195 -1883944099 -2070842967 322978244 1885534644 503007481
REM
CELL 1.54180   50.00000   50.00000   50.00000   90.00000   90.00000   90.00000
LATT -1
SFAC C  
C      1  0.5501220000000  0.5134570000000  0.4830540000000 1.0
C      1  0.4609360000000  0.4885400000000  0.4886080000000 1.0
C      1  0.5140830000000  0.5504690000000  0.4640400000000 1.0
C      1  0.4847490000000  0.4579320000000  0.4555070000000 1.0
C      1  0.5159250000000  0.5374660000000  0.4378260000000 1.0
C      1  0.4795260000000  0.4752590000000  0.4327200000000 1.0
C      1  0.4517450000000  0.4849660000000  0.5421480000000 1.0
C      1  0.5662880000000  0.5006040000000  0.5321300000000 1.0
C      1  0.5450080000000  0.4800620000000  0.4439790000000 1.0
C      1  0.4623510000000  0.5216240000000  0.4496200000000 1.0
C      1  0.5297330000000  0.5243020000000  0.5581960000000 1.0
C      1  0.4927790000000  0.4583760000000  0.5484410000000 1.0
C      1  0.4671260000000  0.4181160000000  0.5032840000000 1.0
C      1  0.5372650000000  0.5764670000000  0.5185020000000 1.0
C      1  0.5578880000000  0.4596590000000  0.4639600000000 1.0
C      1  0.4386550000000  0.5694630000000  0.4874600000000 1.0
C      1  0.4675190000000  0.4601670000000  0.4789210000000 1.0
C      1  0.5363850000000  0.5439060000000  0.4824460000000 1.0
C      1  0.5889060000000  0.4857010000000  0.5389620000000 1.0
C      1  0.4276190000000  0.4966790000000  0.5511490000000 1.0
C      1  0.5144190000000  0.5758580000000  0.5323350000000 1.0
C      1  0.4919720000000  0.4120440000000  0.5111990000000 1.0
C      1  0.5777910000000  0.5162320000000  0.4412160000000 1.0
C      1  0.4205550000000  0.5010580000000  0.4596030000000 1.0
C      1  0.4369600000000  0.5126740000000  0.4415390000000 1.0
C      1  0.5637700000000  0.4965440000000  0.4284340000000 1.0
C      1  0.4769440000000  0.5055980000000  0.4688730000000 1.0
C      1  0.5301130000000  0.4985100000000  0.4641860000000 1.0
C      1  0.5545410000000  0.5184680000000  0.5502790000000 1.0
C      1  0.4663830000000  0.4632250000000  0.5531410000000 1.0
C      1  0.6036710000000  0.4450160000000  0.5185650000000 1.0
C      1  0.3992240000000  0.5368180000000  0.5413300000000 1.0
C      1  0.4528750000000  0.4397750000000  0.4928260000000 1.0
C      1  0.5507700000000  0.5629100000000  0.4982000000000 1.0
C      1  0.6342590000000  0.4514430000000  0.5841910000000 1.0
C      1  0.3759760000000  0.5031940000000  0.6006130000000 1.0
C      1  0.5917330000000  0.5404750000000  0.4830660000000 1.0
C      1  0.4165340000000  0.4731600000000  0.4999150000000 1.0
C      1  0.5787660000000  0.5611240000000  0.4949790000000 1.0
C      1  0.4267900000000  0.4479290000000  0.5004130000000 1.0
C      1  0.6198580000000  0.4567060000000  0.5631160000000 1.0
C      1  0.3901340000000  0.5083520000000  0.5793490000000 1.0
C      1  0.4326430000000  0.5247730000000  0.5013960000000 1.0
C      1  0.5930850000000  0.4898870000000  0.4771120000000 1.0
C      1  0.5338120000000  0.4454480000000  0.4733680000000 1.0
C      1  0.4675470000000  0.5656280000000  0.4906070000000 1.0
C      1  0.4014350000000  0.5532240000000  0.5198580000000 1.0
C      1  0.5950220000000  0.4447070000000  0.4932600000000 1.0
C      1  0.4059110000000  0.5140490000000  0.5569230000000 1.0
C      1  0.6044430000000  0.4623690000000  0.5406400000000 1.0
C      1  0.4697460000000  0.5486320000000  0.4475040000000 1.0
C      1  0.5256240000000  0.4609890000000  0.4310740000000 1.0
C      1  0.5794070000000  0.5161010000000  0.4714710000000 1.0
C      1  0.4297410000000  0.4972860000000  0.4875940000000 1.0
C      1  0.5165330000000  0.4227330000000  0.5118630000000 1.0
C      1  0.4902380000000  0.5644600000000  0.5326300000000 1.0
C      1  0.4570520000000  0.5274920000000  0.5172640000000 1.0
C      1  0.5315510000000  0.4701610000000  0.5149420000000 1.0
C      1  0.5499070000000  0.4932860000000  0.5096670000000 1.0
C      1  0.4673850000000  0.4996240000000  0.5210190000000 1.0
C      1  0.5092540000000  0.4749460000000  0.5323680000000 1.0
C      1  0.5027150000000  0.5180450000000  0.5533050000000 1.0
C      1  0.4721240000000  0.5518780000000  0.5155160000000 1.0
C      1  0.5300110000000  0.4449960000000  0.5012170000000 1.0
C      1  0.5831430000000  0.4632850000000  0.4760190000000 1.0
C      1  0.4200900000000  0.5503050000000  0.4987870000000 1.0
C      1  0.5117090000000  0.4479200000000  0.4538720000000 1.0
C      1  0.4859450000000  0.5599760000000  0.4686130000000 1.0
C      1  0.4656480000000  0.5335360000000  0.5898180000000 1.0
C      1  0.4265380000000  0.5536980000000  0.6192980000000 1.0
C      1  0.4752140000000  0.4909450000000  0.3621130000000 1.0
C      1  0.5044520000000  0.5053770000000  0.4761690000000 1.0
C      1  0.5074520000000  0.5136500000000  0.5033600000000 1.0
C      1  0.4893050000000  0.4953500000000  0.4145650000000 1.0
C      1  0.4969570000000  0.5019890000000  0.5283860000000 1.0
C      1  0.4682670000000  0.4888370000000  0.3370750000000 1.0
C      1  0.5057450000000  0.5175800000000  0.4223120000000 1.0
C      1  0.4830970000000  0.5242170000000  0.5722030000000 1.0
C      1  0.4060730000000  0.5631420000000  0.6323990000000 1.0
C      1  0.4467150000000  0.5437010000000  0.6053180000000 1.0
C      1  0.4822390000000  0.4930790000000  0.3875680000000 1.0
END
