TITL C-74084-3399-422 -4.18588151268319e-07 125000 -593.524803320286 0 0 99 (C1) n - 1
REM
REM in /home/nfs/bkarasulu/CARBON/AIRSS/Generating-Clusters/LCBOP/Higher-Symm/SD-CG/FIRE-CG
REM
REM
REM
REM
REM
REM ./C.cell (b20cbc046b6831c77cfcea5457e17084)
REM AIRSS Version 0.9.1 bugfix July 2018 build 013d7b7c2542+ Fri, 06 Jul 2018 19:26:36 +0100
REM compiler GCC version 9.2.1 20190827 (Red Hat 9.2.1-1)
REM options -cpp -mtune=generic -march=x86-64 -g -O0 -fpre-include=/usr/include/finclude/math-vector-fortran.h
REM seed -591003350 1916438992 1158171161 -920620463 1447665761 1671669445 1007540125 -1070233778 928993349 2107094515 -253789740 2035872200 -1104914122 2110729968 -172992536 548954929 -1583788843 586090162 564811314 1486973399 -2143037783 -1625276755 -1008280034 517956420 2008547594 -107371926 343776216 -403083776 -1952800378 -1434043587 -132975107 1544672536 1274319212
REM
CELL 1.54180   50.00000   50.00000   50.00000   90.00000   90.00000   90.00000
LATT -1
SFAC C  
C      1  0.4596390000000  0.4758310000000  0.4190040000000 1.0
C      1  0.4164050000000  0.5206640000000  0.5415540000000 1.0
C      1  0.5415660000000  0.4800420000000  0.5854300000000 1.0
C      1  0.5863490000000  0.5143340000000  0.4628200000000 1.0
C      1  0.5519140000000  0.5471610000000  0.5507680000000 1.0
C      1  0.5544930000000  0.4328630000000  0.4531200000000 1.0
C      1  0.4600890000000  0.5607490000000  0.4436220000000 1.0
C      1  0.4493620000000  0.4488500000000  0.5538450000000 1.0
C      1  0.5281980000000  0.5883240000000  0.4880010000000 1.0
C      1  0.4814180000000  0.4370490000000  0.4664050000000 1.0
C      1  0.4677470000000  0.5625300000000  0.5183800000000 1.0
C      1  0.5117040000000  0.4236100000000  0.5292030000000 1.0
C      1  0.4933080000000  0.4448060000000  0.3992760000000 1.0
C      1  0.3970110000000  0.5493590000000  0.5054360000000 1.0
C      1  0.5066740000000  0.4447950000000  0.5958810000000 1.0
C      1  0.5933420000000  0.5547220000000  0.4934820000000 1.0
C      1  0.5666570000000  0.4783870000000  0.5391760000000 1.0
C      1  0.5489010000000  0.5226300000000  0.4246660000000 1.0
C      1  0.4309850000000  0.4641480000000  0.4632420000000 1.0
C      1  0.4629540000000  0.5317110000000  0.5667060000000 1.0
C      1  0.5459810000000  0.5722410000000  0.4732060000000 1.0
C      1  0.4890450000000  0.4655310000000  0.4663860000000 1.0
C      1  0.4695730000000  0.5355830000000  0.5075340000000 1.0
C      1  0.5161460000000  0.4483550000000  0.5420870000000 1.0
C      1  0.4988470000000  0.4153600000000  0.4593620000000 1.0
C      1  0.4574970000000  0.5830340000000  0.5013280000000 1.0
C      1  0.4869510000000  0.4103760000000  0.5353970000000 1.0
C      1  0.5346030000000  0.5926720000000  0.5157700000000 1.0
C      1  0.4452330000000  0.4583820000000  0.4382300000000 1.0
C      1  0.4379490000000  0.5377600000000  0.5526810000000 1.0
C      1  0.5543350000000  0.4665860000000  0.5623410000000 1.0
C      1  0.5728500000000  0.5290900000000  0.4403830000000 1.0
C      1  0.5938350000000  0.5127340000000  0.5177440000000 1.0
C      1  0.5113750000000  0.4882600000000  0.4177810000000 1.0
C      1  0.4142880000000  0.5044310000000  0.4923310000000 1.0
C      1  0.4907950000000  0.4904640000000  0.5826460000000 1.0
C      1  0.4836510000000  0.4906150000000  0.4548390000000 1.0
C      1  0.4561850000000  0.5122710000000  0.5123880000000 1.0
C      1  0.5115680000000  0.4747830000000  0.5432440000000 1.0
C      1  0.5471970000000  0.5454920000000  0.4744080000000 1.0
C      1  0.4261280000000  0.5068370000000  0.4408660000000 1.0
C      1  0.4378520000000  0.4921860000000  0.5772820000000 1.0
C      1  0.5790710000000  0.5108620000000  0.5704380000000 1.0
C      1  0.5621980000000  0.4791530000000  0.4356850000000 1.0
C      1  0.5469760000000  0.4493010000000  0.4730720000000 1.0
C      1  0.4856900000000  0.5503020000000  0.4483290000000 1.0
C      1  0.4577060000000  0.4606350000000  0.5301440000000 1.0
C      1  0.5300680000000  0.5341470000000  0.5396000000000 1.0
C      1  0.5205540000000  0.4232140000000  0.5025770000000 1.0
C      1  0.5014190000000  0.5825470000000  0.4813290000000 1.0
C      1  0.4650170000000  0.4339980000000  0.4922750000000 1.0
C      1  0.4936800000000  0.5644760000000  0.5352240000000 1.0
C      1  0.5593840000000  0.5030830000000  0.5886290000000 1.0
C      1  0.5813460000000  0.4867800000000  0.4543000000000 1.0
C      1  0.4441230000000  0.5005330000000  0.4208310000000 1.0
C      1  0.4172220000000  0.4978850000000  0.5597400000000 1.0
C      1  0.4189060000000  0.4923020000000  0.4649250000000 1.0
C      1  0.4639120000000  0.5045210000000  0.5802240000000 1.0
C      1  0.5836570000000  0.5016690000000  0.5432590000000 1.0
C      1  0.5411340000000  0.4936490000000  0.4220190000000 1.0
C      1  0.5036090000000  0.4973200000000  0.5575450000000 1.0
C      1  0.5448150000000  0.5205270000000  0.4833890000000 1.0
C      1  0.4971240000000  0.5059430000000  0.4358910000000 1.0
C      1  0.4367380000000  0.4939670000000  0.5063990000000 1.0
C      1  0.4370570000000  0.4669930000000  0.5116060000000 1.0
C      1  0.5098550000000  0.5243140000000  0.5566160000000 1.0
C      1  0.5490160000000  0.4970650000000  0.4952340000000 1.0
C      1  0.5010390000000  0.5334970000000  0.4323180000000 1.0
C      1  0.4683480000000  0.4101580000000  0.5121500000000 1.0
C      1  0.5116680000000  0.5894640000000  0.5342100000000 1.0
C      1  0.5124040000000  0.4049310000000  0.4824250000000 1.0
C      1  0.4787120000000  0.5974180000000  0.4889980000000 1.0
C      1  0.4538660000000  0.4254990000000  0.5662220000000 1.0
C      1  0.5633150000000  0.5712390000000  0.5478910000000 1.0
C      1  0.5407690000000  0.4168010000000  0.4364370000000 1.0
C      1  0.4402520000000  0.5719070000000  0.4578950000000 1.0
C      1  0.4976650000000  0.4223800000000  0.5835260000000 1.0
C      1  0.5821040000000  0.5766480000000  0.5048990000000 1.0
C      1  0.5004020000000  0.4214970000000  0.4103540000000 1.0
C      1  0.4097250000000  0.5708420000000  0.4958020000000 1.0
C      1  0.4796360000000  0.4565220000000  0.5114490000000 1.0
C      1  0.5138940000000  0.5448600000000  0.5183390000000 1.0
C      1  0.5261100000000  0.4498260000000  0.4919670000000 1.0
C      1  0.4966750000000  0.5545780000000  0.4740680000000 1.0
C      1  0.4880070000000  0.4708850000000  0.4087590000000 1.0
C      1  0.4044840000000  0.5233530000000  0.5135130000000 1.0
C      1  0.5128320000000  0.4728840000000  0.5939710000000 1.0
C      1  0.5932720000000  0.5257930000000  0.4907850000000 1.0
C      1  0.4878580000000  0.5438270000000  0.5588460000000 1.0
C      1  0.5558400000000  0.4788180000000  0.5134940000000 1.0
C      1  0.5266960000000  0.5402250000000  0.4222140000000 1.0
C      1  0.4382350000000  0.4500200000000  0.4877250000000 1.0
C      1  0.5126460000000  0.4140710000000  0.4343790000000 1.0
C      1  0.4344910000000  0.5779740000000  0.4849660000000 1.0
C      1  0.4792910000000  0.4135930000000  0.5633580000000 1.0
C      1  0.5618140000000  0.5850630000000  0.5233220000000 1.0
C      1  0.4976070000000  0.5319620000000  0.4959810000000 1.0
C      1  0.5018830000000  0.4698080000000  0.4940540000000 1.0
C      1  0.5028800000000  0.5011220000000  0.4957830000000 1.0
END
