TITL C-74083-3671-42 4.03699374529515e-05 125000 -516.934257517103 0 0 87 (C1) n - 1
REM
REM in /home/nfs/bkarasulu/CARBON/AIRSS/Generating-Clusters/LCBOP/Higher-Symm/SD-CG/FIRE-CG
REM
REM
REM
REM
REM
REM ./C.cell (b20cbc046b6831c77cfcea5457e17084)
REM AIRSS Version 0.9.1 bugfix July 2018 build 013d7b7c2542+ Fri, 06 Jul 2018 19:26:36 +0100
REM compiler GCC version 9.2.1 20190827 (Red Hat 9.2.1-1)
REM options -cpp -mtune=generic -march=x86-64 -g -O0 -fpre-include=/usr/include/finclude/math-vector-fortran.h
REM seed -537725214 1179110200 -1186026430 1900636588 -635737493 466117026 -1104026011 -1471818045 2124758020 9315887 -899959444 -811808213 294765453 -1356707377 -570902454 -1694876606 -655152603 257312804 253570974 -1649541725 132996641 -1546050600 -1170952249 122104624 1665112852 -2071854638 -1446945047 -955370772 -620531182 -1059203321 -415413017 -893695308 -612009628
REM
CELL 1.54180   50.00000   50.00000   50.00000   90.00000   90.00000   90.00000
LATT -1
SFAC C  
C      1  0.3929470000000  0.5096440000000  0.5189180000000 1.0
C      1  0.3936230000000  0.5349770000000  0.5285900000000 1.0
C      1  0.5601860000000  0.4643430000000  0.4458650000000 1.0
C      1  0.5652060000000  0.4753720000000  0.5490150000000 1.0
C      1  0.5121960000000  0.5671990000000  0.5341620000000 1.0
C      1  0.4398710000000  0.4781500000000  0.4197070000000 1.0
C      1  0.5538910000000  0.5316060000000  0.5102700000000 1.0
C      1  0.5362810000000  0.4183400000000  0.5303670000000 1.0
C      1  0.4481370000000  0.5193670000000  0.5058600000000 1.0
C      1  0.4626080000000  0.4851640000000  0.4073820000000 1.0
C      1  0.4177410000000  0.4861500000000  0.5860640000000 1.0
C      1  0.4234000000000  0.5585260000000  0.4862210000000 1.0
C      1  0.4307430000000  0.5069940000000  0.4600290000000 1.0
C      1  0.6123510000000  0.5199740000000  0.4517590000000 1.0
C      1  0.5080560000000  0.4705100000000  0.5931630000000 1.0
C      1  0.4625950000000  0.5810060000000  0.5391330000000 1.0
C      1  0.5196270000000  0.4066820000000  0.4724080000000 1.0
C      1  0.4891490000000  0.5826640000000  0.5273070000000 1.0
C      1  0.5501060000000  0.5375910000000  0.4606610000000 1.0
C      1  0.3921170000000  0.4870780000000  0.5907560000000 1.0
C      1  0.4751700000000  0.4262870000000  0.4562770000000 1.0
C      1  0.4858460000000  0.5140130000000  0.4782970000000 1.0
C      1  0.5088820000000  0.5385290000000  0.5324710000000 1.0
C      1  0.4622210000000  0.5336730000000  0.4332370000000 1.0
C      1  0.4632500000000  0.5014970000000  0.5227940000000 1.0
C      1  0.4904860000000  0.4368270000000  0.4368600000000 1.0
C      1  0.4690560000000  0.5630290000000  0.4909500000000 1.0
C      1  0.4423730000000  0.4543850000000  0.5083190000000 1.0
C      1  0.5920030000000  0.4854790000000  0.5091440000000 1.0
C      1  0.4968320000000  0.5237910000000  0.5532540000000 1.0
C      1  0.4927380000000  0.5367600000000  0.6026000000000 1.0
C      1  0.5377240000000  0.4462200000000  0.4444630000000 1.0
C      1  0.4396330000000  0.5598410000000  0.5353410000000 1.0
C      1  0.5884530000000  0.5217400000000  0.4370220000000 1.0
C      1  0.4088580000000  0.4920500000000  0.5032450000000 1.0
C      1  0.5084350000000  0.4773760000000  0.4178570000000 1.0
C      1  0.5330360000000  0.4321560000000  0.4687220000000 1.0
C      1  0.4278190000000  0.4852840000000  0.4425670000000 1.0
C      1  0.4290600000000  0.5060370000000  0.4883360000000 1.0
C      1  0.4833250000000  0.4402100000000  0.5654530000000 1.0
C      1  0.5514830000000  0.4906070000000  0.4526330000000 1.0
C      1  0.5254780000000  0.4934500000000  0.5166790000000 1.0
C      1  0.6212700000000  0.5139990000000  0.4764740000000 1.0
C      1  0.4473220000000  0.5457470000000  0.5883480000000 1.0
C      1  0.4156500000000  0.4645810000000  0.5072660000000 1.0
C      1  0.5046130000000  0.5288670000000  0.5798580000000 1.0
C      1  0.5227070000000  0.5239210000000  0.5096330000000 1.0
C      1  0.4690080000000  0.4862610000000  0.5683850000000 1.0
C      1  0.5897340000000  0.4660940000000  0.4852100000000 1.0
C      1  0.4434500000000  0.4866330000000  0.5796790000000 1.0
C      1  0.4876010000000  0.4961760000000  0.4147760000000 1.0
C      1  0.5309310000000  0.5423110000000  0.4115990000000 1.0
C      1  0.5579360000000  0.5584660000000  0.5182790000000 1.0
C      1  0.5630590000000  0.4203640000000  0.5332290000000 1.0
C      1  0.5650050000000  0.5152940000000  0.4516770000000 1.0
C      1  0.4460180000000  0.5497050000000  0.5054800000000 1.0
C      1  0.5690250000000  0.5070340000000  0.5158180000000 1.0
C      1  0.5241390000000  0.4757050000000  0.4943670000000 1.0
C      1  0.5869820000000  0.4644570000000  0.5336910000000 1.0
C      1  0.4085520000000  0.5572380000000  0.5335370000000 1.0
C      1  0.4612370000000  0.4741940000000  0.5153410000000 1.0
C      1  0.5133980000000  0.4523450000000  0.4300140000000 1.0
C      1  0.5848380000000  0.4363750000000  0.5315040000000 1.0
C      1  0.6154760000000  0.5024770000000  0.5002580000000 1.0
C      1  0.5279760000000  0.4732720000000  0.6097410000000 1.0
C      1  0.5118430000000  0.5365680000000  0.4320580000000 1.0
C      1  0.4874660000000  0.5229650000000  0.4256510000000 1.0
C      1  0.5164150000000  0.4273870000000  0.5124630000000 1.0
C      1  0.5292470000000  0.4885690000000  0.4698290000000 1.0
C      1  0.4853870000000  0.5827580000000  0.4991710000000 1.0
C      1  0.5815960000000  0.5338850000000  0.4123360000000 1.0
C      1  0.4246670000000  0.5541260000000  0.4594890000000 1.0
C      1  0.4382590000000  0.5321530000000  0.4480930000000 1.0
C      1  0.5830450000000  0.4571720000000  0.4607700000000 1.0
C      1  0.5492250000000  0.4919900000000  0.5330980000000 1.0
C      1  0.4670220000000  0.5436680000000  0.6064020000000 1.0
C      1  0.4531280000000  0.4300320000000  0.4992370000000 1.0
C      1  0.4870370000000  0.4654200000000  0.5754660000000 1.0
C      1  0.5392580000000  0.5747640000000  0.5296840000000 1.0
C      1  0.4760190000000  0.5052260000000  0.5479810000000 1.0
C      1  0.5089000000000  0.5281910000000  0.4826680000000 1.0
C      1  0.4429000000000  0.5455180000000  0.5620430000000 1.0
C      1  0.4999360000000  0.4104970000000  0.4941940000000 1.0
C      1  0.4744620000000  0.4195650000000  0.4840550000000 1.0
C      1  0.5568250000000  0.5413360000000  0.4040100000000 1.0
C      1  0.5219600000000  0.5384540000000  0.4593450000000 1.0
C      1  0.5264840000000  0.4476680000000  0.4936370000000 1.0
END
