TITL C-74079-2735-336 -6.04294064673393e-07 125000 -1036.41495043608 0 0 165 (C1) n - 1
REM
REM in /home/nfs/bkarasulu/CARBON/AIRSS/Generating-Clusters/LCBOP/Higher-Symm/SD-CG/FIRE-CG
REM
REM
REM
REM
REM
REM ./C.cell (b20cbc046b6831c77cfcea5457e17084)
REM AIRSS Version 0.9.1 bugfix July 2018 build 013d7b7c2542+ Fri, 06 Jul 2018 19:26:36 +0100
REM compiler GCC version 9.2.1 20190827 (Red Hat 9.2.1-1)
REM options -cpp -mtune=generic -march=x86-64 -g -O0 -fpre-include=/usr/include/finclude/math-vector-fortran.h
REM seed 1048043015 -1099527441 736279938 -1867458362 2048612114 -211475241 -1095525769 -2121561234 31249032 773534569 1605284129 -800694179 1673569925 -1429707960 -1508247152 -546274139 1054276614 -1389331946 -417123007 437850207 -145834573 -1035403351 -1792527599 1348709682 -1401829399 1852096510 1195250764 1958209303 873334811 1696027786 1385047020 1950528406 -649856678
REM
CELL 1.54180   50.00000   50.00000   50.00000   90.00000   90.00000   90.00000
LATT -1
SFAC C  
C      1  0.4483080000000  0.5304320000000  0.4789490000000 1.0
C      1  0.5495600000000  0.5311870000000  0.5162550000000 1.0
C      1  0.4501880000000  0.4658720000000  0.5168500000000 1.0
C      1  0.5486210000000  0.4710660000000  0.4834800000000 1.0
C      1  0.4822180000000  0.5302610000000  0.4475190000000 1.0
C      1  0.5176130000000  0.5332860000000  0.5494530000000 1.0
C      1  0.5159150000000  0.4697900000000  0.4503650000000 1.0
C      1  0.4850450000000  0.4649470000000  0.5519540000000 1.0
C      1  0.5590830000000  0.4916830000000  0.5792450000000 1.0
C      1  0.4405030000000  0.4912820000000  0.4213680000000 1.0
C      1  0.5588340000000  0.5080410000000  0.4212810000000 1.0
C      1  0.4432370000000  0.5069330000000  0.5761690000000 1.0
C      1  0.5780390000000  0.4919970000000  0.5589510000000 1.0
C      1  0.4204070000000  0.4909660000000  0.4405430000000 1.0
C      1  0.4236290000000  0.5070170000000  0.5564530000000 1.0
C      1  0.5784850000000  0.5080020000000  0.4409140000000 1.0
C      1  0.5330120000000  0.4471440000000  0.4870750000000 1.0
C      1  0.4688570000000  0.4452060000000  0.5128890000000 1.0
C      1  0.5337950000000  0.5549180000000  0.5120160000000 1.0
C      1  0.4661710000000  0.5519490000000  0.4851720000000 1.0
C      1  0.4885580000000  0.4446960000000  0.5326940000000 1.0
C      1  0.5129370000000  0.4464890000000  0.4668950000000 1.0
C      1  0.5138540000000  0.5561950000000  0.5324250000000 1.0
C      1  0.4866720000000  0.5524570000000  0.4652430000000 1.0
C      1  0.4752910000000  0.4252840000000  0.4252150000000 1.0
C      1  0.5252390000000  0.4242600000000  0.5761300000000 1.0
C      1  0.4764860000000  0.5741310000000  0.5743970000000 1.0
C      1  0.5253160000000  0.5740290000000  0.4248910000000 1.0
C      1  0.4247420000000  0.4247080000000  0.4754380000000 1.0
C      1  0.5749960000000  0.4254450000000  0.5249220000000 1.0
C      1  0.5750850000000  0.5737200000000  0.4751620000000 1.0
C      1  0.4258120000000  0.5743620000000  0.5234470000000 1.0
C      1  0.5104820000000  0.4934930000000  0.4663560000000 1.0
C      1  0.5029590000000  0.4859000000000  0.5499160000000 1.0
C      1  0.5101980000000  0.5085460000000  0.5333040000000 1.0
C      1  0.4853420000000  0.5058080000000  0.4633350000000 1.0
C      1  0.4523670000000  0.4869130000000  0.4991950000000 1.0
C      1  0.5313630000000  0.4942380000000  0.4874350000000 1.0
C      1  0.5326660000000  0.5078910000000  0.5121510000000 1.0
C      1  0.4617180000000  0.5049190000000  0.4804770000000 1.0
C      1  0.5836500000000  0.4483950000000  0.4566660000000 1.0
C      1  0.4159190000000  0.4463920000000  0.5444970000000 1.0
C      1  0.5852650000000  0.5523780000000  0.5429260000000 1.0
C      1  0.4147400000000  0.5547790000000  0.4535810000000 1.0
C      1  0.4567890000000  0.4457440000000  0.5856300000000 1.0
C      1  0.5429770000000  0.4478710000000  0.4157610000000 1.0
C      1  0.5449670000000  0.5525280000000  0.5845500000000 1.0
C      1  0.4567320000000  0.5547680000000  0.4130800000000 1.0
C      1  0.5075230000000  0.5129460000000  0.4021250000000 1.0
C      1  0.4934720000000  0.5125420000000  0.5978910000000 1.0
C      1  0.5085460000000  0.4862600000000  0.5993860000000 1.0
C      1  0.4918210000000  0.4871350000000  0.4022990000000 1.0
C      1  0.4026760000000  0.5129700000000  0.5060710000000 1.0
C      1  0.5975890000000  0.5125040000000  0.4921650000000 1.0
C      1  0.5972220000000  0.4869160000000  0.5078510000000 1.0
C      1  0.4015040000000  0.4864030000000  0.4916680000000 1.0
C      1  0.5693030000000  0.3986180000000  0.4523110000000 1.0
C      1  0.4311520000000  0.3971270000000  0.5479590000000 1.0
C      1  0.5696110000000  0.5973840000000  0.5497580000000 1.0
C      1  0.4321040000000  0.6035500000000  0.4516150000000 1.0
C      1  0.4502760000000  0.4011550000000  0.5689060000000 1.0
C      1  0.5500980000000  0.4028820000000  0.4315580000000 1.0
C      1  0.5489970000000  0.6018040000000  0.5691700000000 1.0
C      1  0.4514460000000  0.5992870000000  0.4308400000000 1.0
C      1  0.4669710000000  0.4531090000000  0.4290570000000 1.0
C      1  0.5338720000000  0.4520890000000  0.5732540000000 1.0
C      1  0.4681800000000  0.5463200000000  0.5707580000000 1.0
C      1  0.5325480000000  0.5460430000000  0.4293130000000 1.0
C      1  0.4278720000000  0.4524130000000  0.4667720000000 1.0
C      1  0.5710360000000  0.4531830000000  0.5333430000000 1.0
C      1  0.5705480000000  0.5458360000000  0.4675450000000 1.0
C      1  0.4293290000000  0.5465260000000  0.5317240000000 1.0
C      1  0.4948180000000  0.4625330000000  0.6085640000000 1.0
C      1  0.5049440000000  0.4634330000000  0.3924410000000 1.0
C      1  0.4950550000000  0.5369000000000  0.3919340000000 1.0
C      1  0.5065700000000  0.5365670000000  0.6071320000000 1.0
C      1  0.6070020000000  0.4631980000000  0.4948520000000 1.0
C      1  0.3931420000000  0.4628790000000  0.5061900000000 1.0
C      1  0.3940280000000  0.5369610000000  0.4925100000000 1.0
C      1  0.6080300000000  0.5361080000000  0.5048780000000 1.0
C      1  0.5190860000000  0.5590530000000  0.5947270000000 1.0
C      1  0.4831230000000  0.5600080000000  0.4036580000000 1.0
C      1  0.5173150000000  0.4413120000000  0.4052690000000 1.0
C      1  0.4826880000000  0.4397770000000  0.5962700000000 1.0
C      1  0.5956580000000  0.5585400000000  0.5171470000000 1.0
C      1  0.4057080000000  0.5600800000000  0.4802430000000 1.0
C      1  0.4055990000000  0.4402770000000  0.5185250000000 1.0
C      1  0.5938870000000  0.4413580000000  0.4822620000000 1.0
C      1  0.5801870000000  0.5796670000000  0.5032910000000 1.0
C      1  0.4214080000000  0.5804910000000  0.4951380000000 1.0
C      1  0.5792140000000  0.4200190000000  0.4965310000000 1.0
C      1  0.4207070000000  0.4191890000000  0.5038980000000 1.0
C      1  0.5047020000000  0.5800270000000  0.5793230000000 1.0
C      1  0.4973100000000  0.5804390000000  0.4198360000000 1.0
C      1  0.4967830000000  0.4187310000000  0.5804940000000 1.0
C      1  0.5036170000000  0.4199210000000  0.4205670000000 1.0
C      1  0.5216620000000  0.4017010000000  0.4370660000000 1.0
C      1  0.4788090000000  0.4006620000000  0.5634220000000 1.0
C      1  0.5214310000000  0.5992630000000  0.5633010000000 1.0
C      1  0.4798280000000  0.5988660000000  0.4366520000000 1.0
C      1  0.4370880000000  0.4000360000000  0.5204200000000 1.0
C      1  0.5632980000000  0.4008130000000  0.4798640000000 1.0
C      1  0.5639230000000  0.5981080000000  0.5213090000000 1.0
C      1  0.4379100000000  0.5997530000000  0.4790130000000 1.0
C      1  0.4374310000000  0.5922530000000  0.5432230000000 1.0
C      1  0.5646030000000  0.5917400000000  0.4552030000000 1.0
C      1  0.4363650000000  0.4066840000000  0.4559260000000 1.0
C      1  0.5640070000000  0.4070760000000  0.5445110000000 1.0
C      1  0.5453360000000  0.5918020000000  0.4356990000000 1.0
C      1  0.4568570000000  0.5921340000000  0.5627390000000 1.0
C      1  0.4557750000000  0.4070590000000  0.4364640000000 1.0
C      1  0.5446980000000  0.4064360000000  0.5640880000000 1.0
C      1  0.5844180000000  0.4793310000000  0.5333600000000 1.0
C      1  0.4134990000000  0.4780570000000  0.4658250000000 1.0
C      1  0.5846860000000  0.5201970000000  0.4667490000000 1.0
C      1  0.4159960000000  0.5203050000000  0.5314640000000 1.0
C      1  0.5343850000000  0.4781910000000  0.5870530000000 1.0
C      1  0.4663410000000  0.4790400000000  0.4151590000000 1.0
C      1  0.4682960000000  0.5199920000000  0.5840610000000 1.0
C      1  0.5330760000000  0.5204120000000  0.4150840000000 1.0
C      1  0.4721520000000  0.3790420000000  0.4900770000000 1.0
C      1  0.5285190000000  0.3791790000000  0.5100210000000 1.0
C      1  0.4724590000000  0.6204840000000  0.5096530000000 1.0
C      1  0.5297290000000  0.6198770000000  0.4905010000000 1.0
C      1  0.4910660000000  0.3791050000000  0.4709800000000 1.0
C      1  0.5096120000000  0.3789250000000  0.5291180000000 1.0
C      1  0.5108450000000  0.6197680000000  0.4713470000000 1.0
C      1  0.4912800000000  0.6207650000000  0.5287160000000 1.0
C      1  0.5616260000000  0.4270660000000  0.4187540000000 1.0
C      1  0.4382760000000  0.4248250000000  0.5823440000000 1.0
C      1  0.5667000000000  0.5695260000000  0.5847250000000 1.0
C      1  0.4388600000000  0.5762370000000  0.4168050000000 1.0
C      1  0.4153910000000  0.4291220000000  0.5660450000000 1.0
C      1  0.5844090000000  0.4313590000000  0.4349660000000 1.0
C      1  0.5826150000000  0.5733500000000  0.5615150000000 1.0
C      1  0.4153530000000  0.5727390000000  0.4326250000000 1.0
C      1  0.5163580000000  0.6106640000000  0.5368650000000 1.0
C      1  0.4853420000000  0.6103570000000  0.4631800000000 1.0
C      1  0.5164430000000  0.3891470000000  0.4632090000000 1.0
C      1  0.4841620000000  0.3887000000000  0.5370000000000 1.0
C      1  0.5377300000000  0.6104140000000  0.5160450000000 1.0
C      1  0.4645270000000  0.6103870000000  0.4845170000000 1.0
C      1  0.4636340000000  0.3888230000000  0.5152720000000 1.0
C      1  0.5369490000000  0.3891980000000  0.4849040000000 1.0
C      1  0.4711700000000  0.5658620000000  0.5082220000000 1.0
C      1  0.5282390000000  0.5680430000000  0.4886690000000 1.0
C      1  0.4723500000000  0.4309110000000  0.4898780000000 1.0
C      1  0.5298430000000  0.4320200000000  0.5095300000000 1.0
C      1  0.5092770000000  0.5668390000000  0.4704470000000 1.0
C      1  0.4900590000000  0.5685170000000  0.5264640000000 1.0
C      1  0.4905760000000  0.4313820000000  0.4709100000000 1.0
C      1  0.5114850000000  0.4304800000000  0.5283130000000 1.0
C      1  0.4355590000000  0.5355090000000  0.4534080000000 1.0
C      1  0.5635480000000  0.5339590000000  0.5418540000000 1.0
C      1  0.4385310000000  0.4638330000000  0.5429430000000 1.0
C      1  0.5621430000000  0.4671380000000  0.4577370000000 1.0
C      1  0.4566390000000  0.5350500000000  0.4336210000000 1.0
C      1  0.5433190000000  0.5346550000000  0.5624480000000 1.0
C      1  0.5418040000000  0.4668510000000  0.4370120000000 1.0
C      1  0.4587190000000  0.4635960000000  0.5633810000000 1.0
C      1  0.5460520000000  0.5430380000000  0.4538800000000 1.0
C      1  0.5474700000000  0.4552560000000  0.5486500000000 1.0
C      1  0.4529080000000  0.5441340000000  0.5470980000000 1.0
C      1  0.4523870000000  0.4554640000000  0.4530870000000 1.0
C      1  0.4845450000000  0.5151940000000  0.5191200000000 1.0
END
