TITL C-74082-2733-172 771752.215379714 125000 -1137.499181255 0 0 192 (C1) n - 1
REM
REM in /home/nfs/bkarasulu/CARBON/AIRSS/Generating-Clusters/LCBOP/Higher-Symm/SD-CG/FIRE-CG
REM
REM
REM
REM
REM
REM ./C.cell (b20cbc046b6831c77cfcea5457e17084)
REM AIRSS Version 0.9.1 bugfix July 2018 build 013d7b7c2542+ Fri, 06 Jul 2018 19:26:36 +0100
REM compiler GCC version 9.2.1 20190827 (Red Hat 9.2.1-1)
REM options -cpp -mtune=generic -march=x86-64 -g -O0 -fpre-include=/usr/include/finclude/math-vector-fortran.h
REM seed 1932577768 -2072291006 -998390744 1151425307 -1638997068 -1134568907 -1200294419 780354274 -1608829810 -745490446 -175406853 -1497673144 -633894998 386991430 1994928443 1077615243 418763512 71047111 -138810211 -831337875 -1697955386 -334410397 2107613108 1087802246 -222651394 -893408277 -748127354 1460448258 1137462743 1792605696 -1561595418 2139678550 -842134405
REM
CELL 1.54180   50.00000   50.00000   50.00000   90.00000   90.00000   90.00000
LATT -1
SFAC C  
C      1  0.4490580000000  0.5411270000000  0.4652170000000 1.0
C      1  0.5155670000000  0.5679650000000  0.5312440000000 1.0
C      1  0.5694430000000  0.5232340000000  0.4664570000000 1.0
C      1  0.5505600000000  0.4582030000000  0.5356630000000 1.0
C      1  0.4838200000000  0.4310410000000  0.4608670000000 1.0
C      1  0.4315330000000  0.4747680000000  0.5329710000000 1.0
C      1  0.4436670000000  0.5070050000000  0.4035040000000 1.0
C      1  0.4766970000000  0.5520400000000  0.5945820000000 1.0
C      1  0.5349510000000  0.5460810000000  0.4027390000000 1.0
C      1  0.5559900000000  0.4958200000000  0.5962110000000 1.0
C      1  0.5218380000000  0.4477570000000  0.4029100000000 1.0
C      1  0.4657610000000  0.4542140000000  0.5973250000000 1.0
C      1  0.5789780000000  0.5116260000000  0.4098860000000 1.0
C      1  0.5495430000000  0.4424570000000  0.5878150000000 1.0
C      1  0.4707120000000  0.4277360000000  0.4102970000000 1.0
C      1  0.4211910000000  0.4864090000000  0.5902280000000 1.0
C      1  0.4516070000000  0.5599790000000  0.4137390000000 1.0
C      1  0.5277700000000  0.5729890000000  0.5862570000000 1.0
C      1  0.4120560000000  0.4236890000000  0.5180680000000 1.0
C      1  0.3936860000000  0.5363500000000  0.4851720000000 1.0
C      1  0.4812980000000  0.6115560000000  0.5172430000000 1.0
C      1  0.5891810000000  0.5753090000000  0.4815970000000 1.0
C      1  0.6072470000000  0.4634420000000  0.5165930000000 1.0
C      1  0.5212150000000  0.3887400000000  0.4846040000000 1.0
C      1  0.5186470000000  0.5441390000000  0.4678520000000 1.0
C      1  0.5516390000000  0.5105380000000  0.5308030000000 1.0
C      1  0.5449930000000  0.4611650000000  0.4512680000000 1.0
C      1  0.4814560000000  0.4475040000000  0.5453690000000 1.0
C      1  0.4491150000000  0.4898870000000  0.4688870000000 1.0
C      1  0.4489470000000  0.5400270000000  0.5504390000000 1.0
C      1  0.5527090000000  0.3984440000000  0.4983400000000 1.0
C      1  0.4360470000000  0.4005310000000  0.5048430000000 1.0
C      1  0.3832850000000  0.5040210000000  0.4979240000000 1.0
C      1  0.4495910000000  0.6001010000000  0.5059580000000 1.0
C      1  0.5649330000000  0.5980070000000  0.4959600000000 1.0
C      1  0.6173240000000  0.4950870000000  0.5024460000000 1.0
C      1  0.4887070000000  0.5292340000000  0.4339530000000 1.0
C      1  0.5194330000000  0.5298060000000  0.5605400000000 1.0
C      1  0.5394910000000  0.5038750000000  0.4341550000000 1.0
C      1  0.5099850000000  0.4762690000000  0.5662980000000 1.0
C      1  0.4791010000000  0.4719710000000  0.4351310000000 1.0
C      1  0.4598950000000  0.4965660000000  0.5647990000000 1.0
C      1  0.5950660000000  0.5267400000000  0.5341910000000 1.0
C      1  0.5607710000000  0.4395330000000  0.4638640000000 1.0
C      1  0.4768230000000  0.4191700000000  0.5350550000000 1.0
C      1  0.4055170000000  0.4728660000000  0.4655540000000 1.0
C      1  0.4275690000000  0.5595420000000  0.5491730000000 1.0
C      1  0.5261290000000  0.5924070000000  0.4639770000000 1.0
C      1  0.6162380000000  0.5273770000000  0.4866070000000 1.0
C      1  0.5791760000000  0.4168150000000  0.5136920000000 1.0
C      1  0.4655870000000  0.3864740000000  0.4899810000000 1.0
C      1  0.3846280000000  0.4714040000000  0.5135110000000 1.0
C      1  0.4234320000000  0.5818970000000  0.4910560000000 1.0
C      1  0.5359830000000  0.6115710000000  0.5124520000000 1.0
C      1  0.4092260000000  0.4737050000000  0.4145480000000 1.0
C      1  0.4284750000000  0.5650510000000  0.5974410000000 1.0
C      1  0.5231760000000  0.5922320000000  0.4136540000000 1.0
C      1  0.5902530000000  0.5284190000000  0.5846810000000 1.0
C      1  0.5672020000000  0.4327170000000  0.4140690000000 1.0
C      1  0.4780160000000  0.4086970000000  0.5844820000000 1.0
C      1  0.5688350000000  0.5888230000000  0.5600270000000 1.0
C      1  0.6144710000000  0.4861030000000  0.4396950000000 1.0
C      1  0.5449220000000  0.3996330000000  0.5592520000000 1.0
C      1  0.4310230000000  0.4096420000000  0.4405090000000 1.0
C      1  0.3837390000000  0.5104510000000  0.5612180000000 1.0
C      1  0.4570840000000  0.6032850000000  0.4411680000000 1.0
C      1  0.6060820000000  0.5124030000000  0.4315440000000 1.0
C      1  0.5639210000000  0.4197680000000  0.5677690000000 1.0
C      1  0.4575370000000  0.4037050000000  0.4324830000000 1.0
C      1  0.3937710000000  0.4846210000000  0.5689280000000 1.0
C      1  0.4389270000000  0.5818230000000  0.4350100000000 1.0
C      1  0.5411800000000  0.5946970000000  0.5669090000000 1.0
C      1  0.5176180000000  0.5249160000000  0.5903590000000 1.0
C      1  0.5305770000000  0.4970140000000  0.4054510000000 1.0
C      1  0.5105380000000  0.4753920000000  0.5963200000000 1.0
C      1  0.4813060000000  0.4764450000000  0.4055490000000 1.0
C      1  0.4690780000000  0.5028560000000  0.5930590000000 1.0
C      1  0.4894270000000  0.5275270000000  0.4041840000000 1.0
C      1  0.4376920000000  0.5322420000000  0.4181230000000 1.0
C      1  0.4969210000000  0.5703180000000  0.5803240000000 1.0
C      1  0.5613630000000  0.5385700000000  0.4167380000000 1.0
C      1  0.5625320000000  0.4704510000000  0.5824310000000 1.0
C      1  0.5020790000000  0.4286150000000  0.4151050000000 1.0
C      1  0.4392830000000  0.4603360000000  0.5829500000000 1.0
C      1  0.5314850000000  0.4969530000000  0.4801990000000 1.0
C      1  0.5151920000000  0.4820360000000  0.5214910000000 1.0
C      1  0.4796730000000  0.4686160000000  0.4950740000000 1.0
C      1  0.4642840000000  0.5028860000000  0.5187990000000 1.0
C      1  0.4861900000000  0.5136060000000  0.4776500000000 1.0
C      1  0.5127910000000  0.5253100000000  0.5141000000000 1.0
C      1  0.5460480000000  0.4412740000000  0.4909260000000 1.0
C      1  0.4710670000000  0.4261090000000  0.5067550000000 1.0
C      1  0.4241530000000  0.4874940000000  0.4849510000000 1.0
C      1  0.4631670000000  0.5487030000000  0.5085110000000 1.0
C      1  0.5293120000000  0.5678710000000  0.4821960000000 1.0
C      1  0.5762760000000  0.5122230000000  0.5147340000000 1.0
C      1  0.5345500000000  0.5965840000000  0.4376270000000 1.0
C      1  0.6009680000000  0.5214060000000  0.5610400000000 1.0
C      1  0.5659570000000  0.4223800000000  0.4394410000000 1.0
C      1  0.4665030000000  0.4056410000000  0.5598830000000 1.0
C      1  0.3991760000000  0.4787270000000  0.4389310000000 1.0
C      1  0.4224280000000  0.5740920000000  0.5727120000000 1.0
C      1  0.3966500000000  0.4417460000000  0.4991570000000 1.0
C      1  0.4041830000000  0.5587030000000  0.5051340000000 1.0
C      1  0.5045960000000  0.6165790000000  0.4981890000000 1.0
C      1  0.6047700000000  0.5573510000000  0.5005260000000 1.0
C      1  0.5973950000000  0.4399760000000  0.4983280000000 1.0
C      1  0.4975850000000  0.3856810000000  0.5047880000000 1.0
C      1  0.5519740000000  0.4529800000000  0.4009590000000 1.0
C      1  0.4872350000000  0.4323470000000  0.5971920000000 1.0
C      1  0.4338600000000  0.4779770000000  0.4017170000000 1.0
C      1  0.4475940000000  0.5450030000000  0.6025420000000 1.0
C      1  0.5139300000000  0.5684810000000  0.4018670000000 1.0
C      1  0.5650190000000  0.5247590000000  0.5965110000000 1.0
C      1  0.5179150000000  0.4444420000000  0.5990920000000 1.0
C      1  0.4577490000000  0.4565950000000  0.3986350000000 1.0
C      1  0.4408840000000  0.5132440000000  0.6026860000000 1.0
C      1  0.4834390000000  0.5580680000000  0.3998450000000 1.0
C      1  0.5409030000000  0.5452160000000  0.5976450000000 1.0
C      1  0.5594100000000  0.4849460000000  0.3977300000000 1.0
C      1  0.4886900000000  0.5257900000000  0.5960640000000 1.0
C      1  0.5186780000000  0.5227010000000  0.3967460000000 1.0
C      1  0.5278560000000  0.4984560000000  0.6013830000000 1.0
C      1  0.5106060000000  0.4742270000000  0.4001880000000 1.0
C      1  0.4810550000000  0.4781880000000  0.6034810000000 1.0
C      1  0.4719250000000  0.5043870000000  0.3980200000000 1.0
C      1  0.5902110000000  0.4476690000000  0.4714310000000 1.0
C      1  0.5014360000000  0.4006360000000  0.5295180000000 1.0
C      1  0.4057080000000  0.4446050000000  0.4723350000000 1.0
C      1  0.4055170000000  0.5506800000000  0.5326910000000 1.0
C      1  0.5022650000000  0.6074520000000  0.4712910000000 1.0
C      1  0.5953670000000  0.5549910000000  0.5273310000000 1.0
C      1  0.5289410000000  0.4393220000000  0.5423200000000 1.0
C      1  0.4545580000000  0.4427940000000  0.4649490000000 1.0
C      1  0.4216220000000  0.5047620000000  0.5336700000000 1.0
C      1  0.4749400000000  0.5669970000000  0.4655730000000 1.0
C      1  0.5458180000000  0.5584980000000  0.5308750000000 1.0
C      1  0.5764310000000  0.4930630000000  0.4662050000000 1.0
C      1  0.5439200000000  0.5327100000000  0.5465520000000 1.0
C      1  0.5582040000000  0.4846970000000  0.4440740000000 1.0
C      1  0.5066760000000  0.4508580000000  0.5546740000000 1.0
C      1  0.4562560000000  0.4691730000000  0.4509640000000 1.0
C      1  0.4393100000000  0.5141010000000  0.5562260000000 1.0
C      1  0.4953070000000  0.5525610000000  0.4496790000000 1.0
C      1  0.5000160000000  0.4930250000000  0.5444920000000 1.0
C      1  0.5010600000000  0.4794080000000  0.4494710000000 1.0
C      1  0.4722310000000  0.4831940000000  0.5415970000000 1.0
C      1  0.4972310000000  0.5080570000000  0.4513090000000 1.0
C      1  0.4986900000000  0.5235310000000  0.5410740000000 1.0
C      1  0.5263030000000  0.5176760000000  0.4566200000000 1.0
C      1  0.5925670000000  0.5595060000000  0.4545460000000 1.0
C      1  0.5948500000000  0.4548010000000  0.5436820000000 1.0
C      1  0.5057770000000  0.3922230000000  0.4564750000000 1.0
C      1  0.4083300000000  0.4388060000000  0.5451980000000 1.0
C      1  0.4057260000000  0.5469650000000  0.4581920000000 1.0
C      1  0.4957900000000  0.6061940000000  0.5434320000000 1.0
C      1  0.5723630000000  0.4860510000000  0.4974570000000 1.0
C      1  0.5173750000000  0.4395160000000  0.4946740000000 1.0
C      1  0.4564350000000  0.4491080000000  0.4956390000000 1.0
C      1  0.4273440000000  0.5127650000000  0.5030260000000 1.0
C      1  0.4795880000000  0.5673710000000  0.4954640000000 1.0
C      1  0.5502970000000  0.5548960000000  0.5004660000000 1.0
C      1  0.5689680000000  0.5445010000000  0.4452990000000 1.0
C      1  0.5710300000000  0.4684230000000  0.5545080000000 1.0
C      1  0.5038610000000  0.4187480000000  0.4427060000000 1.0
C      1  0.4317640000000  0.4539430000000  0.5543690000000 1.0
C      1  0.4289820000000  0.5332880000000  0.4460640000000 1.0
C      1  0.4961530000000  0.5781160000000  0.5518010000000 1.0
C      1  0.5732440000000  0.5698750000000  0.5393550000000 1.0
C      1  0.5992890000000  0.4731100000000  0.4600780000000 1.0
C      1  0.5258370000000  0.4102030000000  0.5412580000000 1.0
C      1  0.4275410000000  0.4301090000000  0.4597740000000 1.0
C      1  0.3975210000000  0.5234030000000  0.5397870000000 1.0
C      1  0.4780050000000  0.5968260000000  0.4591520000000 1.0
C      1  0.5267360000000  0.6108030000000  0.5440510000000 1.0
C      1  0.6123850000000  0.5349730000000  0.4548350000000 1.0
C      1  0.5838450000000  0.4256990000000  0.5443460000000 1.0
C      1  0.4745390000000  0.3866530000000  0.4579360000000 1.0
C      1  0.3882590000000  0.4629300000000  0.5453250000000 1.0
C      1  0.4184480000000  0.5755540000000  0.4597990000000 1.0
C      1  0.5667400000000  0.5327370000000  0.4932380000000 1.0
C      1  0.5576170000000  0.4621030000000  0.5079760000000 1.0
C      1  0.4937420000000  0.4252230000000  0.4876530000000 1.0
C      1  0.4342480000000  0.4659840000000  0.5058710000000 1.0
C      1  0.4434430000000  0.5352560000000  0.4922820000000 1.0
C      1  0.5063210000000  0.5723610000000  0.5040400000000 1.0
C      1  0.5055180000000  0.4637530000000  0.5038250000000 1.0
C      1  0.4695540000000  0.4953920000000  0.4908950000000 1.0
C      1  0.4709460000000  0.5319390000000  0.5315900000000 1.0
C      1  0.5020290000000  0.5318040000000  0.4904640000000 1.0
C      1  0.5313060000000  0.5028880000000  0.5102350000000 1.0
C      1  0.5227090000000  0.4720250000000  0.4656270000000 1.0
END
