TITL C-74079-2735-220 -1.29511457111683e-08 125000 -155.990918028802 0 0 25 (C5v) n - 1
REM
REM in /home/nfs/bkarasulu/CARBON/AIRSS/Generating-Clusters/LCBOP/Higher-Symm/SD-CG/FIRE-CG
REM
REM
REM
REM
REM
REM ./C.cell (b20cbc046b6831c77cfcea5457e17084)
REM AIRSS Version 0.9.1 bugfix July 2018 build 013d7b7c2542+ Fri, 06 Jul 2018 19:26:36 +0100
REM compiler GCC version 9.2.1 20190827 (Red Hat 9.2.1-1)
REM options -cpp -mtune=generic -march=x86-64 -g -O0 -fpre-include=/usr/include/finclude/math-vector-fortran.h
REM seed -820224136 1412304936 -46929519 1456337475 -2021070823 1940965465 924820601 1096508488 1634842599 -236610666 1131993672 2101270405 -1969761800 -1716017500 -1066408158 -1984858473 -423137767 402401851 928429430 136933780 773265030 -263000592 -544826666 -575528387 1977444136 617086397 426372631 -1892952640 -199142208 1927484000 444401515 833528313 -1730901079
REM
CELL 1.54180   50.00000   50.00000   50.00000   90.00000   90.00000   90.00000
LATT -1
SFAC C  
C      1  0.4772220000000  0.4971340000000  0.5402570000000 1.0
C      1  0.4772310000000  0.5374050000000  0.5151660000000 1.0
C      1  0.4772370000000  0.5259870000000  0.4691120000000 1.0
C      1  0.4772320000000  0.4786580000000  0.4657400000000 1.0
C      1  0.4772230000000  0.4608260000000  0.5097100000000 1.0
C      1  0.5189170000000  0.4701490000000  0.5354810000000 1.0
C      1  0.5189220000000  0.5245150000000  0.5393540000000 1.0
C      1  0.5189330000000  0.5449980000000  0.4888460000000 1.0
C      1  0.5189330000000  0.5032920000000  0.4537580000000 1.0
C      1  0.5189240000000  0.4570330000000  0.4825800000000 1.0
C      1  0.5374310000000  0.5241560000000  0.4940160000000 1.0
C      1  0.5374310000000  0.5017640000000  0.4751780000000 1.0
C      1  0.5374260000000  0.4769280000000  0.4906520000000 1.0
C      1  0.5374220000000  0.4839700000000  0.5190540000000 1.0
C      1  0.5374250000000  0.5131590000000  0.5211340000000 1.0
C      1  0.4515770000000  0.5161730000000  0.4807750000000 1.0
C      1  0.4515740000000  0.4867240000000  0.4786780000000 1.0
C      1  0.4515690000000  0.4756290000000  0.5060370000000 1.0
C      1  0.4515680000000  0.4982200000000  0.5250440000000 1.0
C      1  0.4515740000000  0.5232780000000  0.5094320000000 1.0
C      1  0.4908820000000  0.4600470000000  0.4837960000000 1.0
C      1  0.4908760000000  0.4722440000000  0.5329900000000 1.0
C      1  0.4908810000000  0.5228000000000  0.5365920000000 1.0
C      1  0.4908900000000  0.5418470000000  0.4896240000000 1.0
C      1  0.4908910000000  0.5030640000000  0.4569940000000 1.0
END
