TITL C-74080-5790-404 -1.31669546415981e-06 125000 -1047.60574941874 0 0 175 (C1) n - 1
REM
REM in /home/nfs/bkarasulu/CARBON/AIRSS/Generating-Clusters/LCBOP/Higher-Symm/SD-CG/FIRE-CG
REM
REM
REM
REM
REM
REM ./C.cell (b20cbc046b6831c77cfcea5457e17084)
REM AIRSS Version 0.9.1 bugfix July 2018 build 013d7b7c2542+ Fri, 06 Jul 2018 19:26:36 +0100
REM compiler GCC version 9.2.1 20190827 (Red Hat 9.2.1-1)
REM options -cpp -mtune=generic -march=x86-64 -g -O0 -fpre-include=/usr/include/finclude/math-vector-fortran.h
REM seed -883127319 -971479768 991150645 1068873584 181233538 2083780977 746387102 618526094 -105387623 1352841293 977818554 -962120024 -605879685 1997748783 1719202032 -254634778 1908391931 -377051257 1888874323 2059695077 1300260783 1162502184 149526927 1120070670 -332003927 -1516870798 475419922 -609131630 -1672748523 734262826 -400024470 -1222358238 -662787852
REM
CELL 1.54180   50.00000   50.00000   50.00000   90.00000   90.00000   90.00000
LATT -1
SFAC C  
C      1  0.4186990000000  0.5482420000000  0.4887780000000 1.0
C      1  0.4118380000000  0.4522230000000  0.4932440000000 1.0
C      1  0.6306250000000  0.4904160000000  0.4511330000000 1.0
C      1  0.6364770000000  0.4497360000000  0.4766990000000 1.0
C      1  0.6198620000000  0.5520110000000  0.5286560000000 1.0
C      1  0.6142300000000  0.4550890000000  0.5350240000000 1.0
C      1  0.5073600000000  0.5883690000000  0.5135660000000 1.0
C      1  0.5063770000000  0.4084630000000  0.5166550000000 1.0
C      1  0.4093730000000  0.5382140000000  0.5140420000000 1.0
C      1  0.4119140000000  0.4613990000000  0.5191510000000 1.0
C      1  0.5627240000000  0.4612350000000  0.5135290000000 1.0
C      1  0.5668420000000  0.5454260000000  0.5090480000000 1.0
C      1  0.4689680000000  0.4138960000000  0.5550120000000 1.0
C      1  0.4724890000000  0.5824350000000  0.5530960000000 1.0
C      1  0.5100590000000  0.4862740000000  0.4051260000000 1.0
C      1  0.5290020000000  0.5363010000000  0.4126640000000 1.0
C      1  0.5314100000000  0.4192410000000  0.5293710000000 1.0
C      1  0.5337170000000  0.5824510000000  0.5259990000000 1.0
C      1  0.4400380000000  0.5277780000000  0.5280690000000 1.0
C      1  0.4399080000000  0.4681670000000  0.5301280000000 1.0
C      1  0.5745640000000  0.4664400000000  0.5631710000000 1.0
C      1  0.5828520000000  0.5409170000000  0.5601440000000 1.0
C      1  0.5207020000000  0.5573390000000  0.3938860000000 1.0
C      1  0.5072150000000  0.4693760000000  0.3811630000000 1.0
C      1  0.5749050000000  0.4349580000000  0.5136480000000 1.0
C      1  0.5774370000000  0.5721690000000  0.5079850000000 1.0
C      1  0.5128570000000  0.4014520000000  0.4880250000000 1.0
C      1  0.5138360000000  0.5960710000000  0.4854060000000 1.0
C      1  0.5078220000000  0.4648740000000  0.4270250000000 1.0
C      1  0.5467890000000  0.5515050000000  0.4338110000000 1.0
C      1  0.4390320000000  0.4488100000000  0.5561910000000 1.0
C      1  0.4403870000000  0.5497340000000  0.5532110000000 1.0
C      1  0.4657350000000  0.5165210000000  0.4357770000000 1.0
C      1  0.4605900000000  0.4708460000000  0.4356430000000 1.0
C      1  0.6088920000000  0.5503150000000  0.5548610000000 1.0
C      1  0.5995680000000  0.4540610000000  0.5588870000000 1.0
C      1  0.3973480000000  0.4457500000000  0.5382600000000 1.0
C      1  0.3991410000000  0.5576220000000  0.5340230000000 1.0
C      1  0.4692280000000  0.5271800000000  0.6121850000000 1.0
C      1  0.4722040000000  0.4730640000000  0.6111880000000 1.0
C      1  0.4231440000000  0.4050800000000  0.5419860000000 1.0
C      1  0.4289450000000  0.5946810000000  0.5381610000000 1.0
C      1  0.5174700000000  0.4385350000000  0.4150190000000 1.0
C      1  0.5473340000000  0.5799260000000  0.4235930000000 1.0
C      1  0.5169900000000  0.5374650000000  0.5366540000000 1.0
C      1  0.5083150000000  0.4613780000000  0.5384230000000 1.0
C      1  0.4561360000000  0.5765470000000  0.4839330000000 1.0
C      1  0.4463000000000  0.4208070000000  0.4844390000000 1.0
C      1  0.5546680000000  0.4149930000000  0.5121100000000 1.0
C      1  0.5556640000000  0.5904610000000  0.5084820000000 1.0
C      1  0.4627590000000  0.6545440000000  0.5651540000000 1.0
C      1  0.4540530000000  0.3426080000000  0.5659890000000 1.0
C      1  0.4689360000000  0.4510610000000  0.5951400000000 1.0
C      1  0.4670270000000  0.5482240000000  0.5946820000000 1.0
C      1  0.5426610000000  0.6025650000000  0.4856250000000 1.0
C      1  0.5427940000000  0.4018400000000  0.4889590000000 1.0
C      1  0.4689070000000  0.5323180000000  0.5109510000000 1.0
C      1  0.4630290000000  0.4579450000000  0.5124870000000 1.0
C      1  0.5682780000000  0.4706110000000  0.5900980000000 1.0
C      1  0.5741860000000  0.5338400000000  0.5861470000000 1.0
C      1  0.4698020000000  0.5519010000000  0.4860220000000 1.0
C      1  0.4627560000000  0.4441370000000  0.4870320000000 1.0
C      1  0.5308880000000  0.4157200000000  0.4258020000000 1.0
C      1  0.5554670000000  0.6024610000000  0.4376200000000 1.0
C      1  0.4165140000000  0.4010880000000  0.5140600000000 1.0
C      1  0.4246170000000  0.5986320000000  0.5099170000000 1.0
C      1  0.4158200000000  0.4303160000000  0.5532650000000 1.0
C      1  0.4197340000000  0.5696720000000  0.5484860000000 1.0
C      1  0.4103650000000  0.5391790000000  0.4435710000000 1.0
C      1  0.4116720000000  0.4550260000000  0.4472250000000 1.0
C      1  0.4534480000000  0.6037470000000  0.5501730000000 1.0
C      1  0.4479070000000  0.3943330000000  0.5524480000000 1.0
C      1  0.4510120000000  0.3677660000000  0.5599150000000 1.0
C      1  0.4580910000000  0.6298190000000  0.5583750000000 1.0
C      1  0.4852610000000  0.4490770000000  0.5275030000000 1.0
C      1  0.4906660000000  0.5458380000000  0.5280220000000 1.0
C      1  0.5338500000000  0.5691540000000  0.5718430000000 1.0
C      1  0.5312160000000  0.4371470000000  0.5746070000000 1.0
C      1  0.5621190000000  0.4761500000000  0.5392120000000 1.0
C      1  0.5680490000000  0.5337610000000  0.5368080000000 1.0
C      1  0.5003910000000  0.4015790000000  0.4611500000000 1.0
C      1  0.5016500000000  0.5899480000000  0.4598100000000 1.0
C      1  0.4515020000000  0.5191480000000  0.3910660000000 1.0
C      1  0.4453910000000  0.4664230000000  0.3921040000000 1.0
C      1  0.5830840000000  0.4555250000000  0.4209650000000 1.0
C      1  0.6119120000000  0.5367020000000  0.4529120000000 1.0
C      1  0.4190750000000  0.4245190000000  0.4944640000000 1.0
C      1  0.4282560000000  0.5744900000000  0.4918120000000 1.0
C      1  0.6291410000000  0.4789670000000  0.5309140000000 1.0
C      1  0.6339120000000  0.5286370000000  0.5202690000000 1.0
C      1  0.5267160000000  0.4409090000000  0.5478590000000 1.0
C      1  0.5316780000000  0.5615440000000  0.5455830000000 1.0
C      1  0.5609780000000  0.4720690000000  0.4860960000000 1.0
C      1  0.5616470000000  0.5316740000000  0.4827520000000 1.0
C      1  0.4316190000000  0.3800970000000  0.5003310000000 1.0
C      1  0.4413150000000  0.6185750000000  0.4967030000000 1.0
C      1  0.4189300000000  0.5282710000000  0.4677010000000 1.0
C      1  0.4162470000000  0.4694900000000  0.4707900000000 1.0
C      1  0.5644730000000  0.5467290000000  0.4569900000000 1.0
C      1  0.5645170000000  0.4528730000000  0.4654060000000 1.0
C      1  0.4504730000000  0.3922990000000  0.4841500000000 1.0
C      1  0.4608330000000  0.6050270000000  0.4825150000000 1.0
C      1  0.4849330000000  0.4202250000000  0.5318160000000 1.0
C      1  0.4876880000000  0.5748770000000  0.5298710000000 1.0
C      1  0.4645910000000  0.4249040000000  0.4259050000000 1.0
C      1  0.4751030000000  0.5606330000000  0.4200850000000 1.0
C      1  0.4636520000000  0.5342070000000  0.4129310000000 1.0
C      1  0.4544420000000  0.4509370000000  0.4151640000000 1.0
C      1  0.4623560000000  0.5594960000000  0.5690080000000 1.0
C      1  0.4611690000000  0.4378250000000  0.5710970000000 1.0
C      1  0.5579770000000  0.4176960000000  0.4325160000000 1.0
C      1  0.6004640000000  0.5830430000000  0.4525670000000 1.0
C      1  0.5131050000000  0.4429100000000  0.3866090000000 1.0
C      1  0.5323120000000  0.5814270000000  0.3994360000000 1.0
C      1  0.4884290000000  0.5212120000000  0.4520280000000 1.0
C      1  0.4864450000000  0.4656070000000  0.4467070000000 1.0
C      1  0.5723380000000  0.4397250000000  0.4416280000000 1.0
C      1  0.5918930000000  0.5565670000000  0.4537960000000 1.0
C      1  0.4888140000000  0.5685290000000  0.4452540000000 1.0
C      1  0.4806410000000  0.4203170000000  0.4510080000000 1.0
C      1  0.5544740000000  0.6122510000000  0.4624180000000 1.0
C      1  0.5171560000000  0.3950100000000  0.4391930000000 1.0
C      1  0.6204370000000  0.4343830000000  0.4917520000000 1.0
C      1  0.6147300000000  0.6048670000000  0.4517400000000 1.0
C      1  0.5790530000000  0.4800840000000  0.6127470000000 1.0
C      1  0.5920430000000  0.5262630000000  0.6066760000000 1.0
C      1  0.4862770000000  0.5465310000000  0.4638440000000 1.0
C      1  0.4815750000000  0.4452690000000  0.4660550000000 1.0
C      1  0.6038750000000  0.4375160000000  0.5142440000000 1.0
C      1  0.6057370000000  0.5714090000000  0.5124870000000 1.0
C      1  0.4271680000000  0.4982530000000  0.4669770000000 1.0
C      1  0.3862260000000  0.5227170000000  0.5070450000000 1.0
C      1  0.5244400000000  0.5135950000000  0.5916680000000 1.0
C      1  0.4815390000000  0.5062640000000  0.5021560000000 1.0
C      1  0.6096170000000  0.5113100000000  0.4126630000000 1.0
C      1  0.3608990000000  0.4769710000000  0.5701600000000 1.0
C      1  0.3657750000000  0.4812580000000  0.5033810000000 1.0
C      1  0.5073300000000  0.4894360000000  0.5433820000000 1.0
C      1  0.5261270000000  0.5101110000000  0.4010600000000 1.0
C      1  0.5024680000000  0.4967070000000  0.4877490000000 1.0
C      1  0.3475480000000  0.4680270000000  0.5203660000000 1.0
C      1  0.5840370000000  0.5024540000000  0.5100760000000 1.0
C      1  0.5619350000000  0.5051560000000  0.5322940000000 1.0
C      1  0.5721220000000  0.5014610000000  0.4828390000000 1.0
C      1  0.6091690000000  0.5086710000000  0.4430760000000 1.0
C      1  0.3464570000000  0.4680840000000  0.5473770000000 1.0
C      1  0.5702600000000  0.4793220000000  0.4137740000000 1.0
C      1  0.4002950000000  0.4962540000000  0.5422300000000 1.0
C      1  0.3859860000000  0.4894560000000  0.5652630000000 1.0
C      1  0.6430750000000  0.4766480000000  0.4718160000000 1.0
C      1  0.3842170000000  0.4977230000000  0.5181550000000 1.0
C      1  0.5473600000000  0.5268530000000  0.5907840000000 1.0
C      1  0.5606320000000  0.4940800000000  0.4365060000000 1.0
C      1  0.4566600000000  0.4983910000000  0.5622100000000 1.0
C      1  0.3935450000000  0.4945070000000  0.4293580000000 1.0
C      1  0.3512680000000  0.4736440000000  0.5954690000000 1.0
C      1  0.5669810000000  0.4889020000000  0.3877440000000 1.0
C      1  0.5464750000000  0.5051840000000  0.3814810000000 1.0
C      1  0.4410440000000  0.4993010000000  0.5854300000000 1.0
C      1  0.5921410000000  0.5025700000000  0.6195830000000 1.0
C      1  0.4805240000000  0.5005790000000  0.6092950000000 1.0
C      1  0.4366700000000  0.4977070000000  0.5386550000000 1.0
C      1  0.4207780000000  0.4962400000000  0.4197010000000 1.0
C      1  0.4988880000000  0.5035740000000  0.5875820000000 1.0
C      1  0.5098840000000  0.5046720000000  0.4614810000000 1.0
C      1  0.5822010000000  0.5001860000000  0.4544110000000 1.0
C      1  0.4361650000000  0.4942790000000  0.3946750000000 1.0
C      1  0.5260280000000  0.5100130000000  0.5358110000000 1.0
C      1  0.6528710000000  0.4927460000000  0.4927790000000 1.0
C      1  0.6397740000000  0.5009740000000  0.5163990000000 1.0
C      1  0.3753780000000  0.4903900000000  0.4496010000000 1.0
C      1  0.4866000000000  0.4976510000000  0.5622120000000 1.0
C      1  0.4443380000000  0.4956830000000  0.4406990000000 1.0
C      1  0.3660780000000  0.4839570000000  0.4745590000000 1.0
C      1  0.5342380000000  0.4985600000000  0.4477560000000 1.0
END
