TITL C-74082-2733-450 4.23094982418568e-08 125000 -34.9560898762094 0 0 8 (C3v) n - 1
REM
REM in /home/nfs/bkarasulu/CARBON/AIRSS/Generating-Clusters/LCBOP/Higher-Symm/SD-CG/FIRE-CG
REM
REM
REM
REM
REM
REM ./C.cell (b20cbc046b6831c77cfcea5457e17084)
REM AIRSS Version 0.9.1 bugfix July 2018 build 013d7b7c2542+ Fri, 06 Jul 2018 19:26:36 +0100
REM compiler GCC version 9.2.1 20190827 (Red Hat 9.2.1-1)
REM options -cpp -mtune=generic -march=x86-64 -g -O0 -fpre-include=/usr/include/finclude/math-vector-fortran.h
REM seed -1833343700 958385677 278882698 -32713036 554419623 134833981 588201553 74276849 566191944 -876498373 504356084 1867280095 486760504 -1619832858 -1969581306 -980968251 -1288830770 1784956741 -884517757 463922777 -191403213 226878604 -333417276 1379029215 -1814487108 1130602318 -1582410128 691396290 -324675860 833912375 1412926514 -762827419 1090489820
REM
CELL 1.54180   50.00000   50.00000   50.00000   90.00000   90.00000   90.00000
LATT -1
SFAC C  
C      1  0.4808660000000  0.4551240000000  0.5183120000000 1.0
C      1  0.5482220000000  0.5167820000000  0.5183130000000 1.0
C      1  0.4611460000000  0.5442840000000  0.5183120000000 1.0
C      1  0.4777220000000  0.5261770000000  0.5096080000000 1.0
C      1  0.4882600000000  0.4785320000000  0.5096080000000 1.0
C      1  0.5242530000000  0.5114810000000  0.5096080000000 1.0
C      1  0.4967450000000  0.5053970000000  0.4999060000000 1.0
C      1  0.4967450000000  0.5053970000000  0.4694080000000 1.0
END
