TITL C-74084-3399-75 -88.904708436276 125000 -1110.83068438136 0 0 182 (C1) n - 1
REM
REM in /home/nfs/bkarasulu/CARBON/AIRSS/Generating-Clusters/LCBOP/Higher-Symm/SD-CG/FIRE-CG
REM
REM
REM
REM
REM
REM ./C.cell (b20cbc046b6831c77cfcea5457e17084)
REM AIRSS Version 0.9.1 bugfix July 2018 build 013d7b7c2542+ Fri, 06 Jul 2018 19:26:36 +0100
REM compiler GCC version 9.2.1 20190827 (Red Hat 9.2.1-1)
REM options -cpp -mtune=generic -march=x86-64 -g -O0 -fpre-include=/usr/include/finclude/math-vector-fortran.h
REM seed -814336603 439740841 1432096014 1350275861 -2109240222 107613914 -671086784 1724054752 29327982 2029192417 744817658 -1119924002 -1812486328 -1905128957 -920694439 493567338 800462115 -1761854388 -580934040 -1782105667 1893755861 -1324813543 -758259198 -853242968 -1685339102 361991159 1271193298 -1098768631 747898942 -92660569 -1688363487 1941260845 333496410
REM
CELL 1.54180   50.00000   50.00000   50.00000   90.00000   90.00000   90.00000
LATT -1
SFAC C  
C      1  0.5317360000000  0.5598010000000  0.4013650000000 1.0
C      1  0.4603600000000  0.5465160000000  0.5933970000000 1.0
C      1  0.5328730000000  0.4478010000000  0.5960450000000 1.0
C      1  0.4742050000000  0.4511000000000  0.4060090000000 1.0
C      1  0.4144460000000  0.4631800000000  0.3973020000000 1.0
C      1  0.6032460000000  0.4095310000000  0.6140850000000 1.0
C      1  0.4534530000000  0.5506870000000  0.6209490000000 1.0
C      1  0.5871050000000  0.5387310000000  0.4053310000000 1.0
C      1  0.5999600000000  0.4788480000000  0.4459340000000 1.0
C      1  0.3911790000000  0.4816560000000  0.5567570000000 1.0
C      1  0.6002450000000  0.5225900000000  0.5514110000000 1.0
C      1  0.3828690000000  0.6039260000000  0.3974440000000 1.0
C      1  0.4566530000000  0.5847610000000  0.4500310000000 1.0
C      1  0.5398650000000  0.6043640000000  0.5429440000000 1.0
C      1  0.4589250000000  0.4026010000000  0.5416780000000 1.0
C      1  0.5495920000000  0.4013340000000  0.4530270000000 1.0
C      1  0.4140490000000  0.4839360000000  0.6049370000000 1.0
C      1  0.5847850000000  0.4587850000000  0.4029900000000 1.0
C      1  0.4074960000000  0.5577640000000  0.4023870000000 1.0
C      1  0.5786170000000  0.5341060000000  0.5973450000000 1.0
C      1  0.5264350000000  0.5362600000000  0.3888160000000 1.0
C      1  0.4668980000000  0.5194960000000  0.5860890000000 1.0
C      1  0.5208310000000  0.4705410000000  0.6049700000000 1.0
C      1  0.4821850000000  0.4784690000000  0.4086640000000 1.0
C      1  0.5746270000000  0.3836540000000  0.3788880000000 1.0
C      1  0.4507740000000  0.3913100000000  0.6135510000000 1.0
C      1  0.5769210000000  0.6610080000000  0.5671170000000 1.0
C      1  0.4642840000000  0.5931690000000  0.3782870000000 1.0
C      1  0.5967840000000  0.4469960000000  0.4942320000000 1.0
C      1  0.3995370000000  0.4365580000000  0.5030500000000 1.0
C      1  0.5924340000000  0.5625590000000  0.5079230000000 1.0
C      1  0.4019810000000  0.5503820000000  0.4955510000000 1.0
C      1  0.5021080000000  0.4917040000000  0.3933550000000 1.0
C      1  0.5116240000000  0.4978920000000  0.6017950000000 1.0
C      1  0.4825680000000  0.5043660000000  0.6060800000000 1.0
C      1  0.5258780000000  0.5075000000000  0.3914100000000 1.0
C      1  0.5334010000000  0.5748050000000  0.4254010000000 1.0
C      1  0.4657840000000  0.5657850000000  0.5733290000000 1.0
C      1  0.5343770000000  0.4301380000000  0.5736500000000 1.0
C      1  0.4717990000000  0.4289560000000  0.4237700000000 1.0
C      1  0.5341280000000  0.4704650000000  0.5249320000000 1.0
C      1  0.4604310000000  0.4719980000000  0.4738360000000 1.0
C      1  0.5186380000000  0.5290480000000  0.4824370000000 1.0
C      1  0.4674520000000  0.5236750000000  0.5258220000000 1.0
C      1  0.4998790000000  0.3795170000000  0.4584400000000 1.0
C      1  0.5052440000000  0.3834240000000  0.5335310000000 1.0
C      1  0.4907780000000  0.6176510000000  0.5350170000000 1.0
C      1  0.4982410000000  0.6190440000000  0.4571280000000 1.0
C      1  0.5797510000000  0.4875900000000  0.5187050000000 1.0
C      1  0.4113720000000  0.4786000000000  0.4789530000000 1.0
C      1  0.5671220000000  0.5310890000000  0.4790460000000 1.0
C      1  0.4175050000000  0.5108410000000  0.5250440000000 1.0
C      1  0.5599670000000  0.4745670000000  0.5359550000000 1.0
C      1  0.4337540000000  0.4659500000000  0.4663510000000 1.0
C      1  0.5412400000000  0.5315640000000  0.4654610000000 1.0
C      1  0.4435560000000  0.5169980000000  0.5406310000000 1.0
C      1  0.5290180000000  0.3930050000000  0.5207610000000 1.0
C      1  0.4741300000000  0.3888210000000  0.4706620000000 1.0
C      1  0.5239980000000  0.6152480000000  0.4719230000000 1.0
C      1  0.4685210000000  0.6062420000000  0.5206230000000 1.0
C      1  0.4453940000000  0.5748070000000  0.6307800000000 1.0
C      1  0.5901720000000  0.5622970000000  0.4173220000000 1.0
C      1  0.4138780000000  0.4388450000000  0.4079780000000 1.0
C      1  0.5939240000000  0.4138160000000  0.5896600000000 1.0
C      1  0.6268340000000  0.4299280000000  0.5455280000000 1.0
C      1  0.3756640000000  0.4130390000000  0.4468350000000 1.0
C      1  0.6236170000000  0.5933100000000  0.4596770000000 1.0
C      1  0.3727400000000  0.5710750000000  0.5471890000000 1.0
C      1  0.4801460000000  0.4001960000000  0.4970350000000 1.0
C      1  0.5246030000000  0.3992590000000  0.4932920000000 1.0
C      1  0.4739790000000  0.6003920000000  0.4930080000000 1.0
C      1  0.5182030000000  0.6062440000000  0.4992330000000 1.0
C      1  0.4000820000000  0.4662050000000  0.5033910000000 1.0
C      1  0.5885620000000  0.4751370000000  0.4934060000000 1.0
C      1  0.4073930000000  0.5223730000000  0.4993860000000 1.0
C      1  0.5842350000000  0.5350490000000  0.5030860000000 1.0
C      1  0.4106870000000  0.4249890000000  0.4785090000000 1.0
C      1  0.5874390000000  0.4339290000000  0.5177510000000 1.0
C      1  0.4115280000000  0.5651550000000  0.5180070000000 1.0
C      1  0.5849870000000  0.5780490000000  0.4851520000000 1.0
C      1  0.4327950000000  0.4680110000000  0.5386310000000 1.0
C      1  0.5529550000000  0.4819950000000  0.4577880000000 1.0
C      1  0.4388500000000  0.5156460000000  0.4622930000000 1.0
C      1  0.5535600000000  0.5253770000000  0.5416360000000 1.0
C      1  0.4611810000000  0.5012560000000  0.6265950000000 1.0
C      1  0.5513010000000  0.4962450000000  0.4046320000000 1.0
C      1  0.4314190000000  0.5106710000000  0.4138790000000 1.0
C      1  0.5330020000000  0.5152710000000  0.5904310000000 1.0
C      1  0.5836930000000  0.5755400000000  0.5325060000000 1.0
C      1  0.4092220000000  0.5637300000000  0.4701970000000 1.0
C      1  0.5903900000000  0.4311050000000  0.4702420000000 1.0
C      1  0.4088330000000  0.4211870000000  0.5265340000000 1.0
C      1  0.4947410000000  0.4247980000000  0.4400950000000 1.0
C      1  0.5121540000000  0.4336390000000  0.5560540000000 1.0
C      1  0.4878910000000  0.5587230000000  0.5567820000000 1.0
C      1  0.5130910000000  0.5714590000000  0.4450870000000 1.0
C      1  0.4591600000000  0.4010420000000  0.5908780000000 1.0
C      1  0.5663030000000  0.3875980000000  0.4032760000000 1.0
C      1  0.4648670000000  0.5821170000000  0.4018780000000 1.0
C      1  0.5617170000000  0.6398520000000  0.5677810000000 1.0
C      1  0.4181020000000  0.5783700000000  0.5636720000000 1.0
C      1  0.5821150000000  0.5805010000000  0.4369860000000 1.0
C      1  0.4207210000000  0.4235530000000  0.4303390000000 1.0
C      1  0.5831530000000  0.4192110000000  0.5645380000000 1.0
C      1  0.4066030000000  0.4814400000000  0.5299580000000 1.0
C      1  0.5807450000000  0.4823900000000  0.4664260000000 1.0
C      1  0.4142250000000  0.5068810000000  0.4761950000000 1.0
C      1  0.5817630000000  0.5171120000000  0.5277540000000 1.0
C      1  0.5454080000000  0.5094140000000  0.5646990000000 1.0
C      1  0.4486020000000  0.5065140000000  0.4363660000000 1.0
C      1  0.5440820000000  0.4967820000000  0.4343280000000 1.0
C      1  0.4380610000000  0.4781460000000  0.5647720000000 1.0
C      1  0.5997060000000  0.4277610000000  0.5425390000000 1.0
C      1  0.4014940000000  0.4204560000000  0.4519090000000 1.0
C      1  0.5979340000000  0.5841450000000  0.4607240000000 1.0
C      1  0.3996760000000  0.5715140000000  0.5430420000000 1.0
C      1  0.5554820000000  0.5822520000000  0.5339220000000 1.0
C      1  0.4373810000000  0.5704240000000  0.4660080000000 1.0
C      1  0.5623000000000  0.4240570000000  0.4660260000000 1.0
C      1  0.4374820000000  0.4162520000000  0.5289000000000 1.0
C      1  0.4372510000000  0.4865890000000  0.6191190000000 1.0
C      1  0.5610740000000  0.4697680000000  0.3959300000000 1.0
C      1  0.4218750000000  0.5360970000000  0.4074640000000 1.0
C      1  0.5527860000000  0.5300280000000  0.6050800000000 1.0
C      1  0.5962200000000  0.5300480000000  0.5772040000000 1.0
C      1  0.3945530000000  0.5807190000000  0.3995570000000 1.0
C      1  0.6018560000000  0.4655610000000  0.4226570000000 1.0
C      1  0.3969710000000  0.4829870000000  0.5835900000000 1.0
C      1  0.4526730000000  0.4060180000000  0.4615880000000 1.0
C      1  0.5483450000000  0.4100860000000  0.5322140000000 1.0
C      1  0.4521040000000  0.5867080000000  0.5322280000000 1.0
C      1  0.5462930000000  0.5981860000000  0.4647540000000 1.0
C      1  0.4216930000000  0.4885990000000  0.3997120000000 1.0
C      1  0.6123400000000  0.4054260000000  0.6381690000000 1.0
C      1  0.4556070000000  0.5273680000000  0.6374420000000 1.0
C      1  0.5737180000000  0.5162730000000  0.4004960000000 1.0
C      1  0.4393470000000  0.4216430000000  0.4821680000000 1.0
C      1  0.5592760000000  0.4287940000000  0.5134210000000 1.0
C      1  0.4402090000000  0.5682580000000  0.5139830000000 1.0
C      1  0.5556250000000  0.5803480000000  0.4863690000000 1.0
C      1  0.4679200000000  0.4122950000000  0.5669950000000 1.0
C      1  0.5580610000000  0.3927130000000  0.4279280000000 1.0
C      1  0.4675510000000  0.5703920000000  0.4271870000000 1.0
C      1  0.5456060000000  0.6170090000000  0.5676270000000 1.0
C      1  0.5062110000000  0.4625870000000  0.4655570000000 1.0
C      1  0.4860560000000  0.4338970000000  0.5663450000000 1.0
C      1  0.5355280000000  0.6068560000000  0.5909480000000 1.0
C      1  0.4823910000000  0.5456550000000  0.4291180000000 1.0
C      1  0.4499380000000  0.5561570000000  0.4886910000000 1.0
C      1  0.5436900000000  0.5654710000000  0.5119240000000 1.0
C      1  0.4481640000000  0.4337670000000  0.5075490000000 1.0
C      1  0.5487850000000  0.4389330000000  0.4874460000000 1.0
C      1  0.4511670000000  0.4611650000000  0.5175440000000 1.0
C      1  0.5326500000000  0.4702970000000  0.4774550000000 1.0
C      1  0.4564250000000  0.5284640000000  0.4813280000000 1.0
C      1  0.5367850000000  0.5369910000000  0.5219690000000 1.0
C      1  0.5274340000000  0.3884130000000  0.4666950000000 1.0
C      1  0.4792650000000  0.3916490000000  0.5242730000000 1.0
C      1  0.5179050000000  0.6131850000000  0.5266360000000 1.0
C      1  0.4717340000000  0.6061110000000  0.4641470000000 1.0
C      1  0.5019120000000  0.4343780000000  0.4658290000000 1.0
C      1  0.5170700000000  0.4505990000000  0.5341410000000 1.0
C      1  0.4865380000000  0.5409940000000  0.5365610000000 1.0
C      1  0.5040850000000  0.5694490000000  0.4703310000000 1.0
C      1  0.4731630000000  0.4902580000000  0.4333250000000 1.0
C      1  0.5580390000000  0.4838790000000  0.5624850000000 1.0
C      1  0.4559930000000  0.5020140000000  0.5644880000000 1.0
C      1  0.5307100000000  0.5210590000000  0.4411030000000 1.0
C      1  0.4670480000000  0.5106710000000  0.5012160000000 1.0
C      1  0.5238490000000  0.5157670000000  0.5062480000000 1.0
C      1  0.4626820000000  0.4816550000000  0.5004170000000 1.0
C      1  0.5283060000000  0.4870220000000  0.5027600000000 1.0
C      1  0.4803760000000  0.4608550000000  0.5698030000000 1.0
C      1  0.4825000000000  0.4769670000000  0.4571290000000 1.0
C      1  0.5040780000000  0.5294830000000  0.4332370000000 1.0
C      1  0.4812820000000  0.4857520000000  0.5592980000000 1.0
C      1  0.4482350000000  0.4168860000000  0.4352780000000 1.0
C      1  0.5552600000000  0.4164450000000  0.5596750000000 1.0
C      1  0.4459900000000  0.5810350000000  0.5596860000000 1.0
C      1  0.5547580000000  0.5887550000000  0.4385910000000 1.0
C      1  0.4989630000000  0.5849240000000  0.4931160000000 1.0
C      1  0.5022410000000  0.4180860000000  0.4897010000000 1.0
END
