TITL C-74085-4933-230 -2378.15786756037 125000 -814.935636431873 0 0 142 (C1) n - 1
REM
REM in /home/nfs/bkarasulu/CARBON/AIRSS/Generating-Clusters/LCBOP/Higher-Symm/SD-CG/FIRE-CG
REM
REM
REM
REM
REM
REM ./C.cell (b20cbc046b6831c77cfcea5457e17084)
REM AIRSS Version 0.9.1 bugfix July 2018 build 013d7b7c2542+ Fri, 06 Jul 2018 19:26:36 +0100
REM compiler GCC version 9.2.1 20190827 (Red Hat 9.2.1-1)
REM options -cpp -mtune=generic -march=x86-64 -g -O0 -fpre-include=/usr/include/finclude/math-vector-fortran.h
REM seed -1074497702 162577325 -2144404832 -154962682 299282725 -998833330 1247861010 930942722 -2138933262 -1806697774 1082631827 1062321225 -1621803967 -604315407 -1293588087 -1882734648 1975537690 891502297 -1862011965 -1822802368 -444686493 -1412058407 1724966974 439755611 -1689532411 2016556183 -455799347 -370657335 -203034011 565864443 1644007117 1206043122 47749249
REM
CELL 1.54180   50.00000   50.00000   50.00000   90.00000   90.00000   90.00000
LATT -1
SFAC C  
C      1  0.5382130000000  0.5852410000000  0.5284950000000 1.0
C      1  0.4716270000000  0.5873840000000  0.5381170000000 1.0
C      1  0.4622920000000  0.5855130000000  0.4706820000000 1.0
C      1  0.5291520000000  0.5868870000000  0.4619010000000 1.0
C      1  0.4631230000000  0.4148210000000  0.5292540000000 1.0
C      1  0.5286090000000  0.4131670000000  0.5385390000000 1.0
C      1  0.5384090000000  0.4151240000000  0.4709000000000 1.0
C      1  0.4716030000000  0.4131370000000  0.4617400000000 1.0
C      1  0.4259420000000  0.4311730000000  0.4999840000000 1.0
C      1  0.5001340000000  0.4313320000000  0.4249260000000 1.0
C      1  0.5749630000000  0.4316010000000  0.5007810000000 1.0
C      1  0.4999510000000  0.4305600000000  0.5759600000000 1.0
C      1  0.5752510000000  0.5684670000000  0.4994240000000 1.0
C      1  0.5000670000000  0.5699620000000  0.4245060000000 1.0
C      1  0.4255770000000  0.5688490000000  0.5002270000000 1.0
C      1  0.5002860000000  0.5693080000000  0.5749180000000 1.0
C      1  0.5214870000000  0.4906440000000  0.4063520000000 1.0
C      1  0.5918270000000  0.4908840000000  0.5220750000000 1.0
C      1  0.4781690000000  0.4907640000000  0.5936200000000 1.0
C      1  0.4075070000000  0.4919260000000  0.4778220000000 1.0
C      1  0.4781020000000  0.5097930000000  0.4065610000000 1.0
C      1  0.4074660000000  0.5083090000000  0.5223310000000 1.0
C      1  0.5215110000000  0.5100180000000  0.5937890000000 1.0
C      1  0.5918490000000  0.5089530000000  0.4781670000000 1.0
C      1  0.4496360000000  0.4773480000000  0.5091330000000 1.0
C      1  0.4896540000000  0.4780620000000  0.4486830000000 1.0
C      1  0.5497590000000  0.4771630000000  0.4900190000000 1.0
C      1  0.5104530000000  0.4774910000000  0.5524780000000 1.0
C      1  0.5499000000000  0.5228450000000  0.5101960000000 1.0
C      1  0.5103850000000  0.5230110000000  0.4478190000000 1.0
C      1  0.4496160000000  0.5230140000000  0.4910140000000 1.0
C      1  0.4897040000000  0.5223930000000  0.5514220000000 1.0
C      1  0.4580600000000  0.4863180000000  0.4498740000000 1.0
C      1  0.5500590000000  0.4861790000000  0.4558770000000 1.0
C      1  0.5436540000000  0.4862970000000  0.5514240000000 1.0
C      1  0.4510200000000  0.4859170000000  0.5429090000000 1.0
C      1  0.5437420000000  0.5139570000000  0.4488280000000 1.0
C      1  0.4509780000000  0.5144910000000  0.4572230000000 1.0
C      1  0.4581110000000  0.5140710000000  0.5502540000000 1.0
C      1  0.5501220000000  0.5140430000000  0.5442620000000 1.0
C      1  0.5218310000000  0.5185500000000  0.5040070000000 1.0
C      1  0.4985270000000  0.5157760000000  0.5229180000000 1.0
C      1  0.4765340000000  0.5151310000000  0.5008220000000 1.0
C      1  0.5023420000000  0.5166320000000  0.4749040000000 1.0
C      1  0.4764790000000  0.4852930000000  0.4993080000000 1.0
C      1  0.5023070000000  0.4837450000000  0.5253210000000 1.0
C      1  0.5217420000000  0.4816700000000  0.4961410000000 1.0
C      1  0.4984530000000  0.4845510000000  0.4772470000000 1.0
C      1  0.5869360000000  0.5702470000000  0.4732610000000 1.0
C      1  0.5264300000000  0.5709840000000  0.5866560000000 1.0
C      1  0.4138030000000  0.5702110000000  0.5263700000000 1.0
C      1  0.4736260000000  0.5712780000000  0.4132380000000 1.0
C      1  0.4140820000000  0.4298650000000  0.4738620000000 1.0
C      1  0.4734630000000  0.4292500000000  0.5870780000000 1.0
C      1  0.5866140000000  0.4297910000000  0.5269530000000 1.0
C      1  0.5262490000000  0.4296230000000  0.4131170000000 1.0
C      1  0.4345070000000  0.5842870000000  0.4781300000000 1.0
C      1  0.5213050000000  0.5861470000000  0.4341990000000 1.0
C      1  0.5660570000000  0.5840290000000  0.5213230000000 1.0
C      1  0.4793230000000  0.5860200000000  0.5657530000000 1.0
C      1  0.5661040000000  0.4162860000000  0.4785850000000 1.0
C      1  0.4790890000000  0.4147010000000  0.4340470000000 1.0
C      1  0.4353020000000  0.4156420000000  0.5218540000000 1.0
C      1  0.5210250000000  0.4141470000000  0.5663010000000 1.0
C      1  0.5085500000000  0.4609660000000  0.6234450000000 1.0
C      1  0.3776340000000  0.4604760000000  0.5065580000000 1.0
C      1  0.4906400000000  0.4606230000000  0.3771250000000 1.0
C      1  0.6220620000000  0.4608140000000  0.4920360000000 1.0
C      1  0.4906020000000  0.5401430000000  0.6228210000000 1.0
C      1  0.6221430000000  0.5389570000000  0.5082000000000 1.0
C      1  0.5084670000000  0.5397150000000  0.3768150000000 1.0
C      1  0.3773960000000  0.5395780000000  0.4935990000000 1.0
C      1  0.6173910000000  0.5314700000000  0.5337290000000 1.0
C      1  0.4653650000000  0.5316710000000  0.6181750000000 1.0
C      1  0.3821690000000  0.5330430000000  0.4678090000000 1.0
C      1  0.5337920000000  0.5313470000000  0.3811680000000 1.0
C      1  0.3823640000000  0.4670460000000  0.5323470000000 1.0
C      1  0.5338550000000  0.4694050000000  0.6191200000000 1.0
C      1  0.6173180000000  0.4683090000000  0.4665070000000 1.0
C      1  0.4653750000000  0.4689830000000  0.3818280000000 1.0
C      1  0.5399970000000  0.5096410000000  0.3960760000000 1.0
C      1  0.6019240000000  0.5102590000000  0.5402790000000 1.0
C      1  0.4594640000000  0.5098020000000  0.6033850000000 1.0
C      1  0.3975340000000  0.5120460000000  0.4603680000000 1.0
C      1  0.4594200000000  0.4907550000000  0.3967430000000 1.0
C      1  0.3975960000000  0.4881400000000  0.5397880000000 1.0
C      1  0.5400350000000  0.4910910000000  0.6041740000000 1.0
C      1  0.6018930000000  0.4895530000000  0.4599670000000 1.0
C      1  0.5035820000000  0.5494870000000  0.5538900000000 1.0
C      1  0.4475870000000  0.5501970000000  0.5042720000000 1.0
C      1  0.4968850000000  0.5499640000000  0.4453820000000 1.0
C      1  0.5535660000000  0.5493840000000  0.4955380000000 1.0
C      1  0.4969920000000  0.4505510000000  0.5550580000000 1.0
C      1  0.5531870000000  0.4505630000000  0.5046990000000 1.0
C      1  0.5035890000000  0.4510150000000  0.4460640000000 1.0
C      1  0.4476960000000  0.4501510000000  0.4959340000000 1.0
C      1  0.4786880000000  0.4381500000000  0.5359000000000 1.0
C      1  0.4658880000000  0.4365880000000  0.4776430000000 1.0
C      1  0.5224140000000  0.4382470000000  0.4644750000000 1.0
C      1  0.5349420000000  0.4367940000000  0.5230440000000 1.0
C      1  0.5222880000000  0.5621860000000  0.5352900000000 1.0
C      1  0.5353150000000  0.5631050000000  0.4771700000000 1.0
C      1  0.4783490000000  0.5623940000000  0.4643220000000 1.0
C      1  0.4658110000000  0.5638230000000  0.5224160000000 1.0
C      1  0.3888870000000  0.5288230000000  0.5154790000000 1.0
C      1  0.4860190000000  0.5300890000000  0.3881970000000 1.0
C      1  0.6105180000000  0.5290080000000  0.4860220000000 1.0
C      1  0.5132250000000  0.5304530000000  0.6118480000000 1.0
C      1  0.6104600000000  0.4707950000000  0.5142110000000 1.0
C      1  0.5132330000000  0.4703070000000  0.3881660000000 1.0
C      1  0.3890460000000  0.4713020000000  0.4846710000000 1.0
C      1  0.4860890000000  0.4705030000000  0.6120150000000 1.0
C      1  0.4458630000000  0.4655530000000  0.5621590000000 1.0
C      1  0.4383300000000  0.4659510000000  0.4453810000000 1.0
C      1  0.5549110000000  0.4656190000000  0.4369400000000 1.0
C      1  0.5627320000000  0.4656950000000  0.5558610000000 1.0
C      1  0.5549710000000  0.5347300000000  0.5630620000000 1.0
C      1  0.5629110000000  0.5344480000000  0.4443570000000 1.0
C      1  0.4458990000000  0.5348870000000  0.4379640000000 1.0
C      1  0.4383490000000  0.5343710000000  0.5548320000000 1.0
C      1  0.5789560000000  0.4451440000000  0.5484530000000 1.0
C      1  0.4524780000000  0.4450840000000  0.5788760000000 1.0
C      1  0.4218800000000  0.4454880000000  0.4525810000000 1.0
C      1  0.5476990000000  0.4451060000000  0.4205920000000 1.0
C      1  0.4217630000000  0.5547260000000  0.5476780000000 1.0
C      1  0.5478120000000  0.5553910000000  0.5792350000000 1.0
C      1  0.5792460000000  0.5549170000000  0.4517550000000 1.0
C      1  0.4526070000000  0.5553910000000  0.4213030000000 1.0
C      1  0.5222030000000  0.6099520000000  0.4767810000000 1.0
C      1  0.5239300000000  0.6080540000000  0.5202240000000 1.0
C      1  0.4786970000000  0.6107340000000  0.5235490000000 1.0
C      1  0.4766130000000  0.6085750000000  0.4785530000000 1.0
C      1  0.4790760000000  0.3897270000000  0.4760270000000 1.0
C      1  0.4778680000000  0.3921240000000  0.5214420000000 1.0
C      1  0.5212670000000  0.3900700000000  0.5239110000000 1.0
C      1  0.5240290000000  0.3920000000000  0.4784120000000 1.0
C      1  0.5000990000000  0.5002310000000  0.5731740000000 1.0
C      1  0.5000210000000  0.5003120000000  0.4269920000000 1.0
C      1  0.5710480000000  0.4999440000000  0.5001370000000 1.0
C      1  0.4279130000000  0.5001560000000  0.5000740000000 1.0
C      1  0.4985490000000  0.6121110000000  0.5000200000000 1.0
C      1  0.5005550000000  0.3882200000000  0.4980980000000 1.0
END
