TITL C-74081-2727-157 0.0450180378691382 125000 -1055.81966905133 0 0 173 (C1) n - 1
REM
REM in /home/nfs/bkarasulu/CARBON/AIRSS/Generating-Clusters/LCBOP/Higher-Symm/SD-CG/FIRE-CG
REM
REM
REM
REM
REM
REM ./C.cell (b20cbc046b6831c77cfcea5457e17084)
REM AIRSS Version 0.9.1 bugfix July 2018 build 013d7b7c2542+ Fri, 06 Jul 2018 19:26:36 +0100
REM compiler GCC version 9.2.1 20190827 (Red Hat 9.2.1-1)
REM options -cpp -mtune=generic -march=x86-64 -g -O0 -fpre-include=/usr/include/finclude/math-vector-fortran.h
REM seed 429716375 -1431025530 -876039074 402921788 1721896726 -356892649 -916045339 575513306 1566835581 -190818548 1633105904 -613986626 622112151 977708774 -964128912 755001149 246358923 117859588 -1344484962 -2119274430 -1228705688 -995172931 -577730895 1414658410 -212580769 996524950 167559275 1789479453 -1550758119 -1471376255 -708808028 -649955193 -1090390939
REM
CELL 1.54180   50.00000   50.00000   50.00000   90.00000   90.00000   90.00000
LATT -1
SFAC C  
C      1  0.4749940000000  0.4936810000000  0.4446750000000 1.0
C      1  0.5350230000000  0.5035090000000  0.5567750000000 1.0
C      1  0.4463600000000  0.5854170000000  0.4928260000000 1.0
C      1  0.5422410000000  0.4085050000000  0.4978390000000 1.0
C      1  0.6011750000000  0.4898910000000  0.5385390000000 1.0
C      1  0.4083780000000  0.5041580000000  0.4554820000000 1.0
C      1  0.4923660000000  0.4669560000000  0.5141120000000 1.0
C      1  0.5149020000000  0.5490750000000  0.5127190000000 1.0
C      1  0.6030030000000  0.5564880000000  0.5729530000000 1.0
C      1  0.4165950000000  0.4370170000000  0.4274690000000 1.0
C      1  0.4275200000000  0.4197310000000  0.5124590000000 1.0
C      1  0.5255490000000  0.5677320000000  0.4908570000000 1.0
C      1  0.4100210000000  0.5592150000000  0.4575220000000 1.0
C      1  0.5606470000000  0.4378690000000  0.5474710000000 1.0
C      1  0.4428600000000  0.5210460000000  0.6212430000000 1.0
C      1  0.5815460000000  0.5005440000000  0.3721240000000 1.0
C      1  0.5733980000000  0.4512590000000  0.5711280000000 1.0
C      1  0.3829360000000  0.5660200000000  0.4577970000000 1.0
C      1  0.5576140000000  0.3827340000000  0.4586330000000 1.0
C      1  0.4153160000000  0.6229390000000  0.4906280000000 1.0
C      1  0.5766020000000  0.5623200000000  0.5822380000000 1.0
C      1  0.4597590000000  0.4549830000000  0.3964240000000 1.0
C      1  0.4266640000000  0.5685250000000  0.4368860000000 1.0
C      1  0.5568490000000  0.4093560000000  0.5559520000000 1.0
C      1  0.5001100000000  0.4108700000000  0.5368150000000 1.0
C      1  0.4880670000000  0.5778960000000  0.4564230000000 1.0
C      1  0.5227720000000  0.5513340000000  0.5418680000000 1.0
C      1  0.4695770000000  0.4183640000000  0.4637760000000 1.0
C      1  0.4540770000000  0.5308190000000  0.5381560000000 1.0
C      1  0.5351010000000  0.4653910000000  0.4840730000000 1.0
C      1  0.4218970000000  0.4427660000000  0.4947250000000 1.0
C      1  0.5717240000000  0.5538890000000  0.5262320000000 1.0
C      1  0.6061700000000  0.5024440000000  0.3825690000000 1.0
C      1  0.4206590000000  0.5246160000000  0.6058840000000 1.0
C      1  0.6374550000000  0.5115630000000  0.5082960000000 1.0
C      1  0.3647270000000  0.5015220000000  0.4788010000000 1.0
C      1  0.5150180000000  0.4067150000000  0.4547770000000 1.0
C      1  0.4464900000000  0.6194260000000  0.5276350000000 1.0
C      1  0.4963030000000  0.4652200000000  0.6235240000000 1.0
C      1  0.5178210000000  0.5376230000000  0.3705290000000 1.0
C      1  0.6285650000000  0.5038590000000  0.3972710000000 1.0
C      1  0.4016240000000  0.5240670000000  0.5864480000000 1.0
C      1  0.5510100000000  0.5446680000000  0.5426220000000 1.0
C      1  0.4727950000000  0.4443350000000  0.4730210000000 1.0
C      1  0.5203420000000  0.4942480000000  0.4163970000000 1.0
C      1  0.4772990000000  0.5066110000000  0.5737920000000 1.0
C      1  0.5635230000000  0.4293280000000  0.5001650000000 1.0
C      1  0.4336510000000  0.5603680000000  0.5000010000000 1.0
C      1  0.4388420000000  0.5485170000000  0.5251000000000 1.0
C      1  0.5566530000000  0.4471040000000  0.4792010000000 1.0
C      1  0.4857970000000  0.5483210000000  0.5074870000000 1.0
C      1  0.5222120000000  0.4601080000000  0.5122120000000 1.0
C      1  0.5536130000000  0.5131620000000  0.4996900000000 1.0
C      1  0.4326950000000  0.4674620000000  0.5044400000000 1.0
C      1  0.5235740000000  0.5191580000000  0.5075320000000 1.0
C      1  0.4812010000000  0.4674530000000  0.4860520000000 1.0
C      1  0.5647850000000  0.4937680000000  0.4579190000000 1.0
C      1  0.4441080000000  0.4856330000000  0.5452070000000 1.0
C      1  0.4719580000000  0.4496650000000  0.5277900000000 1.0
C      1  0.5156070000000  0.5377930000000  0.4516370000000 1.0
C      1  0.6507370000000  0.5154340000000  0.4429530000000 1.0
C      1  0.3763910000000  0.5041060000000  0.5433200000000 1.0
C      1  0.4212950000000  0.5444480000000  0.4795490000000 1.0
C      1  0.5759930000000  0.4436450000000  0.5223820000000 1.0
C      1  0.5357300000000  0.5183310000000  0.3642770000000 1.0
C      1  0.4803840000000  0.4884980000000  0.6187460000000 1.0
C      1  0.5682160000000  0.5168880000000  0.4747680000000 1.0
C      1  0.4476550000000  0.4643180000000  0.5279220000000 1.0
C      1  0.4911470000000  0.4931290000000  0.5310490000000 1.0
C      1  0.5223460000000  0.5121720000000  0.4629500000000 1.0
C      1  0.4233180000000  0.4086320000000  0.5599190000000 1.0
C      1  0.5701240000000  0.5794750000000  0.4753010000000 1.0
C      1  0.5203300000000  0.4580610000000  0.5644200000000 1.0
C      1  0.4987260000000  0.5326500000000  0.4291660000000 1.0
C      1  0.4690620000000  0.5868370000000  0.4757070000000 1.0
C      1  0.5206710000000  0.4053960000000  0.5167730000000 1.0
C      1  0.6324860000000  0.5265940000000  0.4612850000000 1.0
C      1  0.3714570000000  0.4816780000000  0.5261330000000 1.0
C      1  0.4230680000000  0.4824550000000  0.4440580000000 1.0
C      1  0.5894750000000  0.5126970000000  0.5534200000000 1.0
C      1  0.5550580000000  0.5966250000000  0.5200940000000 1.0
C      1  0.4479480000000  0.4094310000000  0.4485160000000 1.0
C      1  0.4823340000000  0.3789630000000  0.4849970000000 1.0
C      1  0.4717870000000  0.6331720000000  0.5721210000000 1.0
C      1  0.4399490000000  0.4215500000000  0.4245770000000 1.0
C      1  0.5622810000000  0.5964720000000  0.5463760000000 1.0
C      1  0.4623610000000  0.3826950000000  0.5031070000000 1.0
C      1  0.4844390000000  0.6401670000000  0.5938150000000 1.0
C      1  0.6110530000000  0.5521000000000  0.4995380000000 1.0
C      1  0.3776040000000  0.4565790000000  0.4842060000000 1.0
C      1  0.5280890000000  0.4829620000000  0.5744470000000 1.0
C      1  0.4950170000000  0.5044120000000  0.4261940000000 1.0
C      1  0.4397540000000  0.4154760000000  0.5798710000000 1.0
C      1  0.5631600000000  0.5806250000000  0.4475460000000 1.0
C      1  0.4213230000000  0.5155740000000  0.4784910000000 1.0
C      1  0.5831100000000  0.4725330000000  0.5236320000000 1.0
C      1  0.5639450000000  0.4906340000000  0.5132600000000 1.0
C      1  0.4290270000000  0.4946350000000  0.4960970000000 1.0
C      1  0.4915080000000  0.5312590000000  0.5815950000000 1.0
C      1  0.5286270000000  0.4690660000000  0.4059320000000 1.0
C      1  0.5334160000000  0.4513540000000  0.5392280000000 1.0
C      1  0.4702390000000  0.5374560000000  0.4894420000000 1.0
C      1  0.5383040000000  0.3993850000000  0.4701530000000 1.0
C      1  0.4359290000000  0.6094730000000  0.5037800000000 1.0
C      1  0.4493730000000  0.4641680000000  0.5920780000000 1.0
C      1  0.5530280000000  0.5390480000000  0.4172850000000 1.0
C      1  0.4916240000000  0.5543960000000  0.4129880000000 1.0
C      1  0.5082800000000  0.4371880000000  0.5795510000000 1.0
C      1  0.5018050000000  0.5524700000000  0.3865920000000 1.0
C      1  0.5029190000000  0.4444000000000  0.6068100000000 1.0
C      1  0.6264060000000  0.4949970000000  0.5264260000000 1.0
C      1  0.3801820000000  0.5065120000000  0.4569740000000 1.0
C      1  0.6070020000000  0.5297590000000  0.4491260000000 1.0
C      1  0.3743390000000  0.4560510000000  0.5379950000000 1.0
C      1  0.4110720000000  0.4179040000000  0.5362560000000 1.0
C      1  0.5903080000000  0.5599120000000  0.4804530000000 1.0
C      1  0.3873690000000  0.4327740000000  0.5385060000000 1.0
C      1  0.5853900000000  0.5363530000000  0.4652290000000 1.0
C      1  0.4025600000000  0.4475390000000  0.4741290000000 1.0
C      1  0.6001720000000  0.5503660000000  0.5255680000000 1.0
C      1  0.4877940000000  0.4188380000000  0.4143920000000 1.0
C      1  0.5358340000000  0.5886560000000  0.5857290000000 1.0
C      1  0.5268800000000  0.4448520000000  0.4206680000000 1.0
C      1  0.5068180000000  0.5518230000000  0.5667050000000 1.0
C      1  0.5425790000000  0.4727040000000  0.3813330000000 1.0
C      1  0.4877630000000  0.5349840000000  0.6100680000000 1.0
C      1  0.6458570000000  0.5073370000000  0.4175540000000 1.0
C      1  0.3863140000000  0.5173780000000  0.5649260000000 1.0
C      1  0.4778440000000  0.5737880000000  0.4290670000000 1.0
C      1  0.5095240000000  0.4120730000000  0.5646790000000 1.0
C      1  0.5375350000000  0.4871350000000  0.4638190000000 1.0
C      1  0.4667500000000  0.5047590000000  0.5460240000000 1.0
C      1  0.5120080000000  0.5632830000000  0.4651270000000 1.0
C      1  0.4747550000000  0.4216300000000  0.5286590000000 1.0
C      1  0.3579750000000  0.5733950000000  0.4591140000000 1.0
C      1  0.5844760000000  0.4585610000000  0.5935530000000 1.0
C      1  0.4512950000000  0.4806650000000  0.4041340000000 1.0
C      1  0.5623050000000  0.5371830000000  0.5874320000000 1.0
C      1  0.5170920000000  0.5056340000000  0.5338120000000 1.0
C      1  0.4833390000000  0.4922270000000  0.4730490000000 1.0
C      1  0.3685420000000  0.4805160000000  0.4973290000000 1.0
C      1  0.6310690000000  0.5322430000000  0.4899140000000 1.0
C      1  0.5584520000000  0.5634900000000  0.4271810000000 1.0
C      1  0.4517100000000  0.4362370000000  0.5918390000000 1.0
C      1  0.4621640000000  0.4296230000000  0.4082510000000 1.0
C      1  0.5609660000000  0.5852280000000  0.5729320000000 1.0
C      1  0.6055910000000  0.5381340000000  0.5510700000000 1.0
C      1  0.4119450000000  0.4559120000000  0.4479720000000 1.0
C      1  0.5543620000000  0.5278350000000  0.6122840000000 1.0
C      1  0.4449210000000  0.5003540000000  0.3854920000000 1.0
C      1  0.5760580000000  0.3680070000000  0.4475870000000 1.0
C      1  0.3962090000000  0.6346120000000  0.4772950000000 1.0
C      1  0.5478240000000  0.5174070000000  0.6352530000000 1.0
C      1  0.4398040000000  0.5205700000000  0.3698650000000 1.0
C      1  0.5127550000000  0.5752120000000  0.5820610000000 1.0
C      1  0.5119400000000  0.4223200000000  0.4297000000000 1.0
C      1  0.5828510000000  0.4793690000000  0.4428650000000 1.0
C      1  0.4217520000000  0.4854420000000  0.5618040000000 1.0
C      1  0.4696290000000  0.4846510000000  0.5918930000000 1.0
C      1  0.5411700000000  0.5148790000000  0.4153940000000 1.0
C      1  0.4903230000000  0.3994950000000  0.4673250000000 1.0
C      1  0.4588360000000  0.6263760000000  0.5500150000000 1.0
C      1  0.5346380000000  0.3987640000000  0.5675860000000 1.0
C      1  0.4499000000000  0.5760460000000  0.4261030000000 1.0
C      1  0.4235590000000  0.4736460000000  0.5858560000000 1.0
C      1  0.5978010000000  0.4611420000000  0.4317400000000 1.0
C      1  0.4495240000000  0.4860980000000  0.4324840000000 1.0
C      1  0.5591260000000  0.5213070000000  0.5609430000000 1.0
C      1  0.5493850000000  0.5837210000000  0.4950330000000 1.0
C      1  0.4537370000000  0.4068030000000  0.5152610000000 1.0
C      1  0.5535700000000  0.4966180000000  0.3698830000000 1.0
C      1  0.4713240000000  0.5159570000000  0.6241090000000 1.0
C      1  0.5046470000000  0.5086410000000  0.4850960000000 1.0
END
