TITL C-74080-5790-108 -8513.3089280878 125000 -495.54403528176 0 0 87 (C1) n - 1
REM
REM in /home/nfs/bkarasulu/CARBON/AIRSS/Generating-Clusters/LCBOP/Higher-Symm/SD-CG/FIRE-CG
REM
REM
REM
REM
REM
REM ./C.cell (b20cbc046b6831c77cfcea5457e17084)
REM AIRSS Version 0.9.1 bugfix July 2018 build 013d7b7c2542+ Fri, 06 Jul 2018 19:26:36 +0100
REM compiler GCC version 9.2.1 20190827 (Red Hat 9.2.1-1)
REM options -cpp -mtune=generic -march=x86-64 -g -O0 -fpre-include=/usr/include/finclude/math-vector-fortran.h
REM seed -1638993596 1174940986 1844722345 828921873 -1754509915 -860028916 -620775549 1754619035 1257634988 -97535033 353817000 -38041138 1646018667 -258293724 270719924 -12580496 -4922802 1699533446 18458322 -1570956567 -1003445267 775177257 2053778442 -1956749956 1245764252 952199303 -463527385 2009649336 -1474525236 695246000 -74053937 -446254701 91879025
REM
CELL 1.54180   50.00000   50.00000   50.00000   90.00000   90.00000   90.00000
LATT -1
SFAC C  
C      1  0.5617290000000  0.4991120000000  0.4791330000000 1.0
C      1  0.5646410000000  0.4615480000000  0.5064460000000 1.0
C      1  0.5730370000000  0.5074560000000  0.5280110000000 1.0
C      1  0.4339240000000  0.5179380000000  0.4762810000000 1.0
C      1  0.4344780000000  0.4719320000000  0.4974310000000 1.0
C      1  0.4326700000000  0.5175050000000  0.5324030000000 1.0
C      1  0.5679690000000  0.4701590000000  0.4790110000000 1.0
C      1  0.5674700000000  0.5203730000000  0.5004720000000 1.0
C      1  0.5786840000000  0.4789510000000  0.5250020000000 1.0
C      1  0.4371940000000  0.4900050000000  0.4741300000000 1.0
C      1  0.4370920000000  0.5358020000000  0.5125200000000 1.0
C      1  0.4313180000000  0.4821520000000  0.5232600000000 1.0
C      1  0.4928240000000  0.5221700000000  0.4949010000000 1.0
C      1  0.4924020000000  0.4815970000000  0.4758090000000 1.0
C      1  0.4816110000000  0.4884520000000  0.5261800000000 1.0
C      1  0.5197940000000  0.5120530000000  0.4967700000000 1.0
C      1  0.5170470000000  0.4827380000000  0.4598810000000 1.0
C      1  0.5264830000000  0.4745670000000  0.5309290000000 1.0
C      1  0.4880180000000  0.4706460000000  0.5040920000000 1.0
C      1  0.4825780000000  0.5089730000000  0.4710510000000 1.0
C      1  0.4820300000000  0.5177800000000  0.5211540000000 1.0
C      1  0.5375900000000  0.4551140000000  0.5135450000000 1.0
C      1  0.5334930000000  0.5011670000000  0.4742590000000 1.0
C      1  0.5254640000000  0.5025310000000  0.5226880000000 1.0
C      1  0.5312430000000  0.6080580000000  0.5317510000000 1.0
C      1  0.5247090000000  0.4930370000000  0.4086000000000 1.0
C      1  0.5355010000000  0.4378000000000  0.5594420000000 1.0
C      1  0.4534850000000  0.5821030000000  0.5554000000000 1.0
C      1  0.4551950000000  0.5021970000000  0.4002930000000 1.0
C      1  0.4537500000000  0.4118030000000  0.5436710000000 1.0
C      1  0.5342030000000  0.4212280000000  0.5412870000000 1.0
C      1  0.5312220000000  0.4993940000000  0.3841240000000 1.0
C      1  0.5409770000000  0.6281980000000  0.5451260000000 1.0
C      1  0.4717310000000  0.4273650000000  0.5328710000000 1.0
C      1  0.4681900000000  0.5097110000000  0.4215950000000 1.0
C      1  0.4690430000000  0.5632730000000  0.5462160000000 1.0
C      1  0.5494600000000  0.4620750000000  0.4332520000000 1.0
C      1  0.5193520000000  0.4901350000000  0.5761110000000 1.0
C      1  0.5406130000000  0.5652330000000  0.5129420000000 1.0
C      1  0.4782540000000  0.4508640000000  0.4447390000000 1.0
C      1  0.4756170000000  0.4771090000000  0.5545480000000 1.0
C      1  0.4775470000000  0.5696650000000  0.4935560000000 1.0
C      1  0.5145690000000  0.5553760000000  0.4576540000000 1.0
C      1  0.5316170000000  0.5237320000000  0.5407640000000 1.0
C      1  0.5161560000000  0.4283710000000  0.4754520000000 1.0
C      1  0.4664950000000  0.5488940000000  0.4527810000000 1.0
C      1  0.4712730000000  0.5210340000000  0.5672860000000 1.0
C      1  0.4690040000000  0.4321430000000  0.4870240000000 1.0
C      1  0.5401150000000  0.5523380000000  0.4694420000000 1.0
C      1  0.5424200000000  0.4298240000000  0.4655300000000 1.0
C      1  0.5567680000000  0.5148720000000  0.5522440000000 1.0
C      1  0.4446280000000  0.5432140000000  0.4697720000000 1.0
C      1  0.4461420000000  0.4481890000000  0.4852610000000 1.0
C      1  0.4446120000000  0.5119630000000  0.5586190000000 1.0
C      1  0.5584270000000  0.4521460000000  0.4582770000000 1.0
C      1  0.5530840000000  0.5466910000000  0.4948900000000 1.0
C      1  0.5463610000000  0.5020300000000  0.5764290000000 1.0
C      1  0.4542290000000  0.4655810000000  0.4530610000000 1.0
C      1  0.4511110000000  0.5547710000000  0.4967870000000 1.0
C      1  0.4458220000000  0.4814240000000  0.5546560000000 1.0
C      1  0.5212810000000  0.4736720000000  0.4309670000000 1.0
C      1  0.5200870000000  0.4635820000000  0.5594760000000 1.0
C      1  0.5213390000000  0.5858200000000  0.5174040000000 1.0
C      1  0.4971780000000  0.4563610000000  0.4240810000000 1.0
C      1  0.4912150000000  0.4537750000000  0.5638140000000 1.0
C      1  0.4933980000000  0.5879690000000  0.5089350000000 1.0
C      1  0.5078690000000  0.5373120000000  0.4356430000000 1.0
C      1  0.5134060000000  0.5421430000000  0.5516840000000 1.0
C      1  0.5157650000000  0.4276560000000  0.5072450000000 1.0
C      1  0.4813480000000  0.5238240000000  0.4435670000000 1.0
C      1  0.4844130000000  0.5379170000000  0.5453350000000 1.0
C      1  0.4869300000000  0.4400410000000  0.5107010000000 1.0
C      1  0.5208560000000  0.5609450000000  0.5709950000000 1.0
C      1  0.5155890000000  0.5439700000000  0.4097530000000 1.0
C      1  0.5129800000000  0.3971190000000  0.5100380000000 1.0
C      1  0.5270750000000  0.5760270000000  0.5913170000000 1.0
C      1  0.5204760000000  0.5568470000000  0.3876030000000 1.0
C      1  0.5088980000000  0.3713970000000  0.5100590000000 1.0
C      1  0.4794140000000  0.4195350000000  0.6034670000000 1.0
C      1  0.4913160000000  0.4365190000000  0.3742240000000 1.0
C      1  0.4697080000000  0.6361930000000  0.5165600000000 1.0
C      1  0.4840610000000  0.4351050000000  0.5830870000000 1.0
C      1  0.4943950000000  0.4454590000000  0.3985060000000 1.0
C      1  0.4810610000000  0.6128740000000  0.5139830000000 1.0
C      1  0.4898010000000  0.4988340000000  0.5728250000000 1.0
C      1  0.4883100000000  0.4322840000000  0.4650510000000 1.0
C      1  0.4880920000000  0.5642590000000  0.4668670000000 1.0
END
