TITL C-74080-5790-37 -2.24458550586597e-07 125000 -4.20578004425119 0 0 4 (D2d) n - 1
REM
REM in /home/nfs/bkarasulu/CARBON/AIRSS/Generating-Clusters/LCBOP/Higher-Symm/SD-CG/FIRE-CG
REM
REM
REM
REM
REM
REM ./C.cell (b20cbc046b6831c77cfcea5457e17084)
REM AIRSS Version 0.9.1 bugfix July 2018 build 013d7b7c2542+ Fri, 06 Jul 2018 19:26:36 +0100
REM compiler GCC version 9.2.1 20190827 (Red Hat 9.2.1-1)
REM options -cpp -mtune=generic -march=x86-64 -g -O0 -fpre-include=/usr/include/finclude/math-vector-fortran.h
REM seed 205973115 -1216213642 655908048 -1998107175 -94512025 1293651587 -1327092191 881099419 1687508562 -1853090547 -1950643879 -33318137 656065672 1237606746 -1412450259 118052835 -1311219135 64660639 -1450258244 -1897661331 501850255 -73475652 -372944865 -1871783420 -906763848 -924224562 -1987128336 -1259084459 -415461163 1914301255 1633150896 468909368 1777644909
REM
CELL 1.54180   50.00000   50.00000   50.00000   90.00000   90.00000   90.00000
LATT -1
SFAC C  
C      1  0.5163670000000  0.4842590000000  0.5069000000000 1.0
C      1  0.5163670000000  0.5214820000000  0.5069000000000 1.0
C      1  0.5173670000000  0.5028710000000  0.4760780000000 1.0
C      1  0.4869750000000  0.5028710000000  0.4975690000000 1.0
END
