TITL C-74084-3399-325 -0.000271824272933095 125000 -1048.79086370927 0 0 184 (T23) n - 1
REM
REM in /home/nfs/bkarasulu/CARBON/AIRSS/Generating-Clusters/LCBOP/Higher-Symm/SD-CG/FIRE-CG
REM
REM
REM
REM
REM
REM ./C.cell (b20cbc046b6831c77cfcea5457e17084)
REM AIRSS Version 0.9.1 bugfix July 2018 build 013d7b7c2542+ Fri, 06 Jul 2018 19:26:36 +0100
REM compiler GCC version 9.2.1 20190827 (Red Hat 9.2.1-1)
REM options -cpp -mtune=generic -march=x86-64 -g -O0 -fpre-include=/usr/include/finclude/math-vector-fortran.h
REM seed -143501587 140306061 -276466790 -1416891579 -1502736217 1796092378 -898642629 695307753 -1174605944 -577134637 1650324163 -636639098 1702955070 1571524691 1699078500 -2003167695 -825711227 1356861039 -1908958634 504830695 -1250173149 -1646527283 705864723 1078356707 -1556482124 1554807942 1153453219 234329175 -563031190 1899862033 -821625585 -347728008 -1551080202
REM
CELL 1.54180   50.00000   50.00000   50.00000   90.00000   90.00000   90.00000
LATT -1
SFAC C  
C      1  0.6126000000000  0.4412300000000  0.5144840000000 1.0
C      1  0.5143490000000  0.6125600000000  0.4415220000000 1.0
C      1  0.4413290000000  0.5144120000000  0.6129090000000 1.0
C      1  0.3867200000000  0.4411620000000  0.4851730000000 1.0
C      1  0.6126700000000  0.5579690000000  0.4852480000000 1.0
C      1  0.3869570000000  0.5579490000000  0.5143590000000 1.0
C      1  0.4851340000000  0.6125780000000  0.5582170000000 1.0
C      1  0.5142590000000  0.3866700000000  0.5583290000000 1.0
C      1  0.4852140000000  0.3866380000000  0.4414860000000 1.0
C      1  0.5581030000000  0.5144280000000  0.3868240000000 1.0
C      1  0.4413880000000  0.4851410000000  0.3870620000000 1.0
C      1  0.5580420000000  0.4851420000000  0.6127280000000 1.0
C      1  0.5332350000000  0.5540810000000  0.4071050000000 1.0
C      1  0.4069090000000  0.5330880000000  0.5541890000000 1.0
C      1  0.5540650000000  0.4066900000000  0.5335110000000 1.0
C      1  0.4662370000000  0.5540590000000  0.5926720000000 1.0
C      1  0.5331650000000  0.4453670000000  0.5927040000000 1.0
C      1  0.4662750000000  0.4452880000000  0.4069350000000 1.0
C      1  0.5925400000000  0.5331210000000  0.4455110000000 1.0
C      1  0.4069130000000  0.4659980000000  0.4454680000000 1.0
C      1  0.5925450000000  0.4661180000000  0.5542190000000 1.0
C      1  0.4454140000000  0.4066690000000  0.4662790000000 1.0
C      1  0.5541170000000  0.5924870000000  0.4664110000000 1.0
C      1  0.4454300000000  0.5923840000000  0.5333370000000 1.0
C      1  0.4492700000000  0.6118050000000  0.5122530000000 1.0
C      1  0.5120910000000  0.4493220000000  0.6121170000000 1.0
C      1  0.6119270000000  0.5120250000000  0.4494190000000 1.0
C      1  0.5502270000000  0.6119230000000  0.4874780000000 1.0
C      1  0.4493560000000  0.3872710000000  0.4873670000000 1.0
C      1  0.5501620000000  0.3872870000000  0.5124270000000 1.0
C      1  0.4873400000000  0.4492910000000  0.3875220000000 1.0
C      1  0.5121230000000  0.5502420000000  0.3877230000000 1.0
C      1  0.4873020000000  0.5502080000000  0.6121090000000 1.0
C      1  0.3874940000000  0.5120150000000  0.5502430000000 1.0
C      1  0.6119620000000  0.4871850000000  0.5502940000000 1.0
C      1  0.3875420000000  0.4871190000000  0.4493500000000 1.0
C      1  0.5515940000000  0.5105340000000  0.6191670000000 1.0
C      1  0.6191720000000  0.5514750000000  0.5106150000000 1.0
C      1  0.5105000000000  0.6191220000000  0.5517520000000 1.0
C      1  0.4478290000000  0.5105550000000  0.3807050000000 1.0
C      1  0.5515920000000  0.4890780000000  0.3802570000000 1.0
C      1  0.4478250000000  0.4890490000000  0.6194380000000 1.0
C      1  0.3804910000000  0.5514630000000  0.4889800000000 1.0
C      1  0.6190160000000  0.4477230000000  0.4890980000000 1.0
C      1  0.3802340000000  0.4477120000000  0.5105320000000 1.0
C      1  0.4889590000000  0.6190280000000  0.4479690000000 1.0
C      1  0.5105690000000  0.3801630000000  0.4480560000000 1.0
C      1  0.4889070000000  0.3801780000000  0.5517640000000 1.0
C      1  0.4332780000000  0.4704400000000  0.4327480000000 1.0
C      1  0.4324790000000  0.4328920000000  0.4707560000000 1.0
C      1  0.4707130000000  0.4323760000000  0.4332060000000 1.0
C      1  0.5662170000000  0.4706100000000  0.5669990000000 1.0
C      1  0.4331910000000  0.5286610000000  0.5670810000000 1.0
C      1  0.5662590000000  0.5286790000000  0.4326570000000 1.0
C      1  0.5668970000000  0.4329780000000  0.5290550000000 1.0
C      1  0.4327230000000  0.5660020000000  0.5289130000000 1.0
C      1  0.5668850000000  0.5661410000000  0.4708620000000 1.0
C      1  0.5287300000000  0.4324530000000  0.5664370000000 1.0
C      1  0.4707850000000  0.5667620000000  0.5663140000000 1.0
C      1  0.5287820000000  0.5667700000000  0.4334870000000 1.0
C      1  0.4432930000000  0.4639910000000  0.4059780000000 1.0
C      1  0.4057650000000  0.4429610000000  0.4641140000000 1.0
C      1  0.4641220000000  0.4056450000000  0.4432840000000 1.0
C      1  0.5561580000000  0.4640580000000  0.5937310000000 1.0
C      1  0.4432050000000  0.5354040000000  0.5937950000000 1.0
C      1  0.5562480000000  0.5354150000000  0.4059440000000 1.0
C      1  0.5936170000000  0.4430790000000  0.5355850000000 1.0
C      1  0.4059390000000  0.5560450000000  0.5354560000000 1.0
C      1  0.5936130000000  0.5561060000000  0.4642120000000 1.0
C      1  0.5353400000000  0.4056800000000  0.5564810000000 1.0
C      1  0.4641230000000  0.5934970000000  0.5563180000000 1.0
C      1  0.5354000000000  0.5935260000000  0.4434430000000 1.0
C      1  0.5299330000000  0.5698240000000  0.5051980000000 1.0
C      1  0.5050120000000  0.5297700000000  0.5700110000000 1.0
C      1  0.5698090000000  0.5048900000000  0.5299880000000 1.0
C      1  0.4697040000000  0.5697230000000  0.4946090000000 1.0
C      1  0.5298660000000  0.4294650000000  0.4945310000000 1.0
C      1  0.4695850000000  0.4294860000000  0.5051360000000 1.0
C      1  0.4944260000000  0.5296520000000  0.4298280000000 1.0
C      1  0.5050590000000  0.4694510000000  0.4297180000000 1.0
C      1  0.4944460000000  0.4695030000000  0.5698700000000 1.0
C      1  0.4296530000000  0.5048350000000  0.4698770000000 1.0
C      1  0.5697180000000  0.4942940000000  0.4697520000000 1.0
C      1  0.4297050000000  0.4942480000000  0.5300770000000 1.0
C      1  0.4743470000000  0.4997590000000  0.5267530000000 1.0
C      1  0.5255680000000  0.4737010000000  0.5002860000000 1.0
C      1  0.5004380000000  0.5262140000000  0.4746500000000 1.0
C      1  0.5253370000000  0.4999010000000  0.4729520000000 1.0
C      1  0.4741920000000  0.4988920000000  0.4741870000000 1.0
C      1  0.5258630000000  0.4993220000000  0.5257780000000 1.0
C      1  0.4731020000000  0.4733880000000  0.4995570000000 1.0
C      1  0.5259180000000  0.5251170000000  0.5002010000000 1.0
C      1  0.4737610000000  0.5248230000000  0.4996930000000 1.0
C      1  0.4992330000000  0.5262540000000  0.5253920000000 1.0
C      1  0.4994030000000  0.4733860000000  0.5252450000000 1.0
C      1  0.5001000000000  0.4736160000000  0.4739320000000 1.0
C      1  0.5126740000000  0.5731450000000  0.5274170000000 1.0
C      1  0.5272100000000  0.5124830000000  0.5730710000000 1.0
C      1  0.5731370000000  0.5271240000000  0.5127620000000 1.0
C      1  0.4869340000000  0.5730300000000  0.4723650000000 1.0
C      1  0.5126440000000  0.4262440000000  0.4722970000000 1.0
C      1  0.4868180000000  0.4261800000000  0.5273580000000 1.0
C      1  0.4722270000000  0.5123410000000  0.4268530000000 1.0
C      1  0.5272750000000  0.4866880000000  0.4262540000000 1.0
C      1  0.4722000000000  0.4866630000000  0.5734450000000 1.0
C      1  0.4264720000000  0.5270670000000  0.4871340000000 1.0
C      1  0.5728510000000  0.4720750000000  0.4870040000000 1.0
C      1  0.4262930000000  0.4720340000000  0.5128640000000 1.0
C      1  0.4777890000000  0.5504460000000  0.5402630000000 1.0
C      1  0.5401920000000  0.4774830000000  0.5506640000000 1.0
C      1  0.5506440000000  0.5400760000000  0.4778260000000 1.0
C      1  0.5219070000000  0.5503920000000  0.4595520000000 1.0
C      1  0.4776500000000  0.4485810000000  0.4592610000000 1.0
C      1  0.5218440000000  0.4485400000000  0.5402920000000 1.0
C      1  0.4593170000000  0.4771780000000  0.4491440000000 1.0
C      1  0.5401940000000  0.5216370000000  0.4488080000000 1.0
C      1  0.4592710000000  0.5216090000000  0.5509060000000 1.0
C      1  0.4490170000000  0.5398940000000  0.5220910000000 1.0
C      1  0.5506260000000  0.4589810000000  0.5221330000000 1.0
C      1  0.4485500000000  0.4589370000000  0.4778050000000 1.0
C      1  0.4978420000000  0.5131490000000  0.6433410000000 1.0
C      1  0.6431740000000  0.4976140000000  0.5131900000000 1.0
C      1  0.5130590000000  0.6430740000000  0.4978850000000 1.0
C      1  0.5015390000000  0.5132210000000  0.3564580000000 1.0
C      1  0.4976500000000  0.4865120000000  0.3564040000000 1.0
C      1  0.5017370000000  0.4864410000000  0.6433380000000 1.0
C      1  0.3563130000000  0.4976940000000  0.4864030000000 1.0
C      1  0.6431580000000  0.5015090000000  0.4864830000000 1.0
C      1  0.3563030000000  0.5016170000000  0.5131070000000 1.0
C      1  0.4863530000000  0.6430410000000  0.5017940000000 1.0
C      1  0.5131110000000  0.3560480000000  0.5018870000000 1.0
C      1  0.4864100000000  0.3560450000000  0.4979370000000 1.0
C      1  0.5708950000000  0.5200320000000  0.4850140000000 1.0
C      1  0.4849070000000  0.5709970000000  0.5203190000000 1.0
C      1  0.5200760000000  0.4847980000000  0.5708150000000 1.0
C      1  0.4286830000000  0.5199370000000  0.5148360000000 1.0
C      1  0.5707780000000  0.4791380000000  0.5147050000000 1.0
C      1  0.4283300000000  0.4790790000000  0.4850740000000 1.0
C      1  0.5147150000000  0.5710130000000  0.4794410000000 1.0
C      1  0.4849270000000  0.4285000000000  0.4793960000000 1.0
C      1  0.5145760000000  0.4283160000000  0.5202610000000 1.0
C      1  0.4793540000000  0.4846700000000  0.4288850000000 1.0
C      1  0.5202070000000  0.5145100000000  0.4283330000000 1.0
C      1  0.4792160000000  0.5145050000000  0.5714140000000 1.0
C      1  0.5312000000000  0.6205160000000  0.5343040000000 1.0
C      1  0.5341480000000  0.5312290000000  0.6205480000000 1.0
C      1  0.6205440000000  0.5340100000000  0.5312960000000 1.0
C      1  0.4682580000000  0.6203800000000  0.4654150000000 1.0
C      1  0.5312160000000  0.3787900000000  0.4655610000000 1.0
C      1  0.4682710000000  0.3787860000000  0.5342470000000 1.0
C      1  0.4652730000000  0.5312510000000  0.3793550000000 1.0
C      1  0.5341360000000  0.4683860000000  0.3788700000000 1.0
C      1  0.4652820000000  0.4683570000000  0.6207910000000 1.0
C      1  0.3791060000000  0.5339910000000  0.4683050000000 1.0
C      1  0.6203760000000  0.4651880000000  0.4684190000000 1.0
C      1  0.3788820000000  0.4651900000000  0.5312070000000 1.0
C      1  0.4653560000000  0.6260310000000  0.4932190000000 1.0
C      1  0.4931020000000  0.4654410000000  0.6263630000000 1.0
C      1  0.6261040000000  0.4929710000000  0.4655090000000 1.0
C      1  0.5340980000000  0.6261320000000  0.5064910000000 1.0
C      1  0.4654150000000  0.3730870000000  0.5064490000000 1.0
C      1  0.5340960000000  0.3730930000000  0.4933570000000 1.0
C      1  0.5063120000000  0.4654670000000  0.3733110000000 1.0
C      1  0.4930400000000  0.5341740000000  0.3735580000000 1.0
C      1  0.5063670000000  0.5341340000000  0.6262930000000 1.0
C      1  0.3732780000000  0.4930050000000  0.5341180000000 1.0
C      1  0.6261810000000  0.5062040000000  0.5341930000000 1.0
C      1  0.3733680000000  0.5062040000000  0.4654160000000 1.0
C      1  0.5513550000000  0.5206070000000  0.5572850000000 1.0
C      1  0.5572440000000  0.5513140000000  0.5208600000000 1.0
C      1  0.5207310000000  0.5571560000000  0.5515590000000 1.0
C      1  0.4481630000000  0.5204660000000  0.4426610000000 1.0
C      1  0.5514290000000  0.4786080000000  0.4422670000000 1.0
C      1  0.4480480000000  0.4785590000000  0.5574690000000 1.0
C      1  0.4423820000000  0.5512100000000  0.4790360000000 1.0
C      1  0.5571170000000  0.4479550000000  0.4788520000000 1.0
C      1  0.4421990000000  0.4478690000000  0.5209280000000 1.0
C      1  0.4788260000000  0.5570230000000  0.4482760000000 1.0
C      1  0.5207470000000  0.4421070000000  0.4481270000000 1.0
C      1  0.4787640000000  0.4421160000000  0.5515080000000 1.0
C      1  0.5475990000000  0.4517350000000  0.4519430000000 1.0
C      1  0.4519730000000  0.5473620000000  0.4521740000000 1.0
C      1  0.4518760000000  0.4516900000000  0.5477850000000 1.0
C      1  0.5475900000000  0.5474860000000  0.5477220000000 1.0
END
