TITL C-74080-5790-226 4.71467651160514e-05 125000 -711.505045828933 0 0 118 (C1) n - 1
REM
REM in /home/nfs/bkarasulu/CARBON/AIRSS/Generating-Clusters/LCBOP/Higher-Symm/SD-CG/FIRE-CG
REM
REM
REM
REM
REM
REM ./C.cell (b20cbc046b6831c77cfcea5457e17084)
REM AIRSS Version 0.9.1 bugfix July 2018 build 013d7b7c2542+ Fri, 06 Jul 2018 19:26:36 +0100
REM compiler GCC version 9.2.1 20190827 (Red Hat 9.2.1-1)
REM options -cpp -mtune=generic -march=x86-64 -g -O0 -fpre-include=/usr/include/finclude/math-vector-fortran.h
REM seed 1872251730 940693391 995169125 -919751662 -1890832007 -886409554 305601470 294830175 1517615912 470269717 -1114086160 1388746296 -439610737 1400938458 -515922026 -1865055917 85282364 -550112287 1502064798 -1648329488 1800506078 1640904151 -1485229763 2087621845 -711536461 -1864145457 1773632246 1233033632 1018242502 168161285 1428183916 1669477516 -715846434
REM
CELL 1.54180   50.00000   50.00000   50.00000   90.00000   90.00000   90.00000
LATT -1
SFAC C  
C      1  0.4892210000000  0.5469700000000  0.5707500000000 1.0
C      1  0.5483030000000  0.5123930000000  0.4170200000000 1.0
C      1  0.6498050000000  0.5311370000000  0.5124150000000 1.0
C      1  0.5155220000000  0.6181900000000  0.4663620000000 1.0
C      1  0.5404510000000  0.5574260000000  0.4315120000000 1.0
C      1  0.5308860000000  0.5312070000000  0.4290420000000 1.0
C      1  0.4461630000000  0.4243300000000  0.4317500000000 1.0
C      1  0.4087050000000  0.4972520000000  0.5645070000000 1.0
C      1  0.4194410000000  0.4366410000000  0.4705170000000 1.0
C      1  0.4018660000000  0.4514150000000  0.5704450000000 1.0
C      1  0.4938180000000  0.4585340000000  0.4810270000000 1.0
C      1  0.5394740000000  0.5061850000000  0.4790340000000 1.0
C      1  0.5183060000000  0.4985330000000  0.4625610000000 1.0
C      1  0.5557430000000  0.4944900000000  0.5900660000000 1.0
C      1  0.5289060000000  0.5782890000000  0.5609190000000 1.0
C      1  0.5500380000000  0.4199750000000  0.4829080000000 1.0
C      1  0.5593390000000  0.5743810000000  0.4397990000000 1.0
C      1  0.4919700000000  0.5739100000000  0.5277060000000 1.0
C      1  0.5554720000000  0.4147460000000  0.5310140000000 1.0
C      1  0.4064560000000  0.5634280000000  0.4684140000000 1.0
C      1  0.5586580000000  0.4763810000000  0.5677350000000 1.0
C      1  0.3968780000000  0.4850070000000  0.5400530000000 1.0
C      1  0.4137250000000  0.4627440000000  0.4600720000000 1.0
C      1  0.4623510000000  0.5214480000000  0.4585470000000 1.0
C      1  0.4343910000000  0.4964560000000  0.4937350000000 1.0
C      1  0.3919540000000  0.5018910000000  0.5180580000000 1.0
C      1  0.4171170000000  0.4920900000000  0.3977330000000 1.0
C      1  0.5240390000000  0.5754520000000  0.4916870000000 1.0
C      1  0.4581430000000  0.4335510000000  0.3859430000000 1.0
C      1  0.5999090000000  0.5722720000000  0.5775880000000 1.0
C      1  0.5110490000000  0.4265670000000  0.4227610000000 1.0
C      1  0.5527310000000  0.5825930000000  0.5464240000000 1.0
C      1  0.5188200000000  0.4194340000000  0.5893580000000 1.0
C      1  0.4044610000000  0.5483270000000  0.5330210000000 1.0
C      1  0.5723300000000  0.4730580000000  0.4397560000000 1.0
C      1  0.3999270000000  0.4555050000000  0.5415380000000 1.0
C      1  0.4771720000000  0.5680950000000  0.4776320000000 1.0
C      1  0.4450390000000  0.4994650000000  0.4667880000000 1.0
C      1  0.4761400000000  0.4958970000000  0.3936590000000 1.0
C      1  0.5429580000000  0.4066230000000  0.5070800000000 1.0
C      1  0.5083300000000  0.5595210000000  0.5497220000000 1.0
C      1  0.4888440000000  0.4763780000000  0.5403540000000 1.0
C      1  0.4053350000000  0.4946010000000  0.4946430000000 1.0
C      1  0.5030540000000  0.4741770000000  0.4596060000000 1.0
C      1  0.5492260000000  0.5292060000000  0.4884160000000 1.0
C      1  0.5702880000000  0.4316100000000  0.5482470000000 1.0
C      1  0.5294660000000  0.6014670000000  0.4822420000000 1.0
C      1  0.4072230000000  0.4753650000000  0.5834780000000 1.0
C      1  0.6637650000000  0.5547340000000  0.5167800000000 1.0
C      1  0.4150770000000  0.4398310000000  0.5232560000000 1.0
C      1  0.5551590000000  0.4939500000000  0.5422800000000 1.0
C      1  0.4564520000000  0.5058640000000  0.5632170000000 1.0
C      1  0.4988860000000  0.4061300000000  0.5778200000000 1.0
C      1  0.4796590000000  0.4459200000000  0.4997800000000 1.0
C      1  0.4918470000000  0.3918170000000  0.5068690000000 1.0
C      1  0.4533230000000  0.5388120000000  0.5252640000000 1.0
C      1  0.3864800000000  0.5291700000000  0.5225910000000 1.0
C      1  0.5833540000000  0.5905330000000  0.5087860000000 1.0
C      1  0.4891190000000  0.4439350000000  0.4219460000000 1.0
C      1  0.5814150000000  0.5000590000000  0.5299650000000 1.0
C      1  0.4310750000000  0.5555660000000  0.4717780000000 1.0
C      1  0.4968200000000  0.5701610000000  0.4993940000000 1.0
C      1  0.5763760000000  0.5849560000000  0.4574260000000 1.0
C      1  0.5784680000000  0.5819650000000  0.5351170000000 1.0
C      1  0.6001680000000  0.5712630000000  0.5502300000000 1.0
C      1  0.5847510000000  0.5905560000000  0.4821520000000 1.0
C      1  0.4296920000000  0.5159060000000  0.5604910000000 1.0
C      1  0.5705090000000  0.4593570000000  0.4625180000000 1.0
C      1  0.4484820000000  0.4886350000000  0.5171320000000 1.0
C      1  0.6219260000000  0.5597710000000  0.5367200000000 1.0
C      1  0.3944410000000  0.4775250000000  0.4750360000000 1.0
C      1  0.4641170000000  0.4340260000000  0.4125920000000 1.0
C      1  0.5214740000000  0.5340820000000  0.5395460000000 1.0
C      1  0.5297290000000  0.4127760000000  0.4356750000000 1.0
C      1  0.5468410000000  0.5193010000000  0.5821050000000 1.0
C      1  0.4909190000000  0.6132290000000  0.4564530000000 1.0
C      1  0.4823140000000  0.5164820000000  0.4383990000000 1.0
C      1  0.5398610000000  0.4352570000000  0.5856350000000 1.0
C      1  0.4745030000000  0.5000740000000  0.3412960000000 1.0
C      1  0.5091020000000  0.4899300000000  0.5264330000000 1.0
C      1  0.4281490000000  0.4871410000000  0.4208410000000 1.0
C      1  0.4910090000000  0.4697650000000  0.4334580000000 1.0
C      1  0.4293680000000  0.5372340000000  0.5408730000000 1.0
C      1  0.4750920000000  0.5241700000000  0.5745770000000 1.0
C      1  0.4532690000000  0.3993500000000  0.4719810000000 1.0
C      1  0.6477080000000  0.5721770000000  0.5312340000000 1.0
C      1  0.4732440000000  0.5931510000000  0.5359400000000 1.0
C      1  0.5035780000000  0.5179860000000  0.5239300000000 1.0
C      1  0.4755890000000  0.4983380000000  0.3672830000000 1.0
C      1  0.5976320000000  0.4320890000000  0.5464860000000 1.0
C      1  0.5198890000000  0.3904260000000  0.5062480000000 1.0
C      1  0.6036370000000  0.5134680000000  0.5247150000000 1.0
C      1  0.5639680000000  0.4914310000000  0.4223490000000 1.0
C      1  0.4758020000000  0.5915280000000  0.4613750000000 1.0
C      1  0.5425830000000  0.5546560000000  0.4923420000000 1.0
C      1  0.5243320000000  0.5910450000000  0.5847460000000 1.0
C      1  0.5458550000000  0.4630070000000  0.5046420000000 1.0
C      1  0.5571220000000  0.4480950000000  0.5676300000000 1.0
C      1  0.4420630000000  0.4353000000000  0.5299090000000 1.0
C      1  0.4810440000000  0.4068760000000  0.5285140000000 1.0
C      1  0.5440220000000  0.4090920000000  0.4578210000000 1.0
C      1  0.5568500000000  0.4476050000000  0.4839850000000 1.0
C      1  0.4322180000000  0.4812210000000  0.4478080000000 1.0
C      1  0.5358040000000  0.4808680000000  0.5236120000000 1.0
C      1  0.5423280000000  0.5205250000000  0.5535350000000 1.0
C      1  0.4775590000000  0.5284740000000  0.5184050000000 1.0
C      1  0.3983560000000  0.5747230000000  0.5355960000000 1.0
C      1  0.4628600000000  0.4870840000000  0.5420850000000 1.0
C      1  0.4581360000000  0.5475850000000  0.4701980000000 1.0
C      1  0.4090330000000  0.4322390000000  0.4966980000000 1.0
C      1  0.4384590000000  0.4191480000000  0.4582350000000 1.0
C      1  0.4678670000000  0.4306400000000  0.5204170000000 1.0
C      1  0.6233690000000  0.5328050000000  0.5244320000000 1.0
C      1  0.4857040000000  0.4010500000000  0.5553080000000 1.0
C      1  0.4564700000000  0.6115520000000  0.5436130000000 1.0
C      1  0.5098880000000  0.5198670000000  0.4447470000000 1.0
C      1  0.4741090000000  0.3886230000000  0.4851050000000 1.0
C      1  0.4804880000000  0.4934790000000  0.4210000000000 1.0
END
