TITL C-74083-3671-230 7.97266516127819e-07 125000 -529.282263103053 0 0 86 (C1) n - 1
REM
REM in /home/nfs/bkarasulu/CARBON/AIRSS/Generating-Clusters/LCBOP/Higher-Symm/SD-CG/FIRE-CG
REM
REM
REM
REM
REM
REM ./C.cell (b20cbc046b6831c77cfcea5457e17084)
REM AIRSS Version 0.9.1 bugfix July 2018 build 013d7b7c2542+ Fri, 06 Jul 2018 19:26:36 +0100
REM compiler GCC version 9.2.1 20190827 (Red Hat 9.2.1-1)
REM options -cpp -mtune=generic -march=x86-64 -g -O0 -fpre-include=/usr/include/finclude/math-vector-fortran.h
REM seed 1565287201 -422936943 -1984720820 737024841 -1305255782 2036970660 679784382 1942960151 631386794 -1987671088 587462082 -810686670 -87810623 1778753563 2047385228 -693423310 395079130 -2040561489 1312904813 -1641964036 -876552622 -965368265 645567470 1190833131 -1633096819 -507371108 -1221524801 931376224 1399531307 167390052 -780885320 -450417214 1594849117
REM
CELL 1.54180   50.00000   50.00000   50.00000   90.00000   90.00000   90.00000
LATT -1
SFAC C  
C      1  0.4438390000000  0.5556720000000  0.5347400000000 1.0
C      1  0.5535350000000  0.4388660000000  0.4707860000000 1.0
C      1  0.5507400000000  0.5133660000000  0.5481120000000 1.0
C      1  0.4496890000000  0.4934430000000  0.4551680000000 1.0
C      1  0.5769500000000  0.4544690000000  0.5299620000000 1.0
C      1  0.4275110000000  0.5505860000000  0.4731890000000 1.0
C      1  0.4420890000000  0.4434720000000  0.4948740000000 1.0
C      1  0.5536600000000  0.5546560000000  0.4969750000000 1.0
C      1  0.4484960000000  0.5651410000000  0.4847090000000 1.0
C      1  0.5545260000000  0.4384290000000  0.5224420000000 1.0
C      1  0.4357680000000  0.5032510000000  0.4782350000000 1.0
C      1  0.5574180000000  0.4977000000000  0.5255620000000 1.0
C      1  0.5039470000000  0.4366620000000  0.4521700000000 1.0
C      1  0.4939530000000  0.5611970000000  0.5486330000000 1.0
C      1  0.5289900000000  0.4426690000000  0.5342150000000 1.0
C      1  0.4740470000000  0.5645410000000  0.4723080000000 1.0
C      1  0.4669450000000  0.5508600000000  0.5508990000000 1.0
C      1  0.5315420000000  0.4445670000000  0.4532830000000 1.0
C      1  0.5450940000000  0.5691350000000  0.4735240000000 1.0
C      1  0.4271370000000  0.4205790000000  0.4960270000000 1.0
C      1  0.5722120000000  0.4822510000000  0.4819310000000 1.0
C      1  0.4184390000000  0.5113500000000  0.5231770000000 1.0
C      1  0.5005080000000  0.4549050000000  0.4068130000000 1.0
C      1  0.5008700000000  0.5449540000000  0.5940790000000 1.0
C      1  0.3905110000000  0.5192450000000  0.4669590000000 1.0
C      1  0.6023530000000  0.5006390000000  0.5189390000000 1.0
C      1  0.4865290000000  0.5126790000000  0.4208740000000 1.0
C      1  0.5245470000000  0.4929490000000  0.5885260000000 1.0
C      1  0.4787950000000  0.4121540000000  0.4181340000000 1.0
C      1  0.5220570000000  0.5869210000000  0.5793570000000 1.0
C      1  0.5379930000000  0.5538340000000  0.5219710000000 1.0
C      1  0.4593850000000  0.4485730000000  0.4725980000000 1.0
C      1  0.5143680000000  0.5348830000000  0.4671460000000 1.0
C      1  0.4852950000000  0.4271630000000  0.5247480000000 1.0
C      1  0.4172140000000  0.5245540000000  0.4727810000000 1.0
C      1  0.5820590000000  0.4822060000000  0.5284340000000 1.0
C      1  0.4491020000000  0.4655090000000  0.4526920000000 1.0
C      1  0.5510020000000  0.5410910000000  0.5437010000000 1.0
C      1  0.4946030000000  0.5361420000000  0.5074430000000 1.0
C      1  0.5014520000000  0.4609980000000  0.4944980000000 1.0
C      1  0.4800480000000  0.5827880000000  0.4528420000000 1.0
C      1  0.5191810000000  0.4435570000000  0.5610350000000 1.0
C      1  0.5320650000000  0.5505790000000  0.4263360000000 1.0
C      1  0.4915170000000  0.4472760000000  0.5679860000000 1.0
C      1  0.5167500000000  0.5502200000000  0.6453350000000 1.0
C      1  0.4819360000000  0.4553140000000  0.3562000000000 1.0
C      1  0.5072040000000  0.4430230000000  0.5156420000000 1.0
C      1  0.4925890000000  0.5449240000000  0.4809370000000 1.0
C      1  0.5276880000000  0.5035010000000  0.4794750000000 1.0
C      1  0.4642630000000  0.5028280000000  0.5213230000000 1.0
C      1  0.5172760000000  0.4759540000000  0.4163210000000 1.0
C      1  0.4863040000000  0.5216900000000  0.5856700000000 1.0
C      1  0.4229250000000  0.5360120000000  0.5339050000000 1.0
C      1  0.5739760000000  0.4585460000000  0.4696300000000 1.0
C      1  0.5546120000000  0.5126840000000  0.4399300000000 1.0
C      1  0.4582480000000  0.4785270000000  0.5614210000000 1.0
C      1  0.5726920000000  0.5269650000000  0.4576350000000 1.0
C      1  0.4512270000000  0.4571260000000  0.5426600000000 1.0
C      1  0.4812410000000  0.4722700000000  0.5784750000000 1.0
C      1  0.5358800000000  0.5229990000000  0.4193000000000 1.0
C      1  0.4964640000000  0.4946370000000  0.5882560000000 1.0
C      1  0.5130070000000  0.5048270000000  0.4136570000000 1.0
C      1  0.4673090000000  0.5259780000000  0.5648620000000 1.0
C      1  0.5326860000000  0.4698380000000  0.4395540000000 1.0
C      1  0.4937260000000  0.4338500000000  0.4254540000000 1.0
C      1  0.5064610000000  0.5651030000000  0.5741490000000 1.0
C      1  0.5537750000000  0.5043040000000  0.4960750000000 1.0
C      1  0.4388630000000  0.4936390000000  0.5075560000000 1.0
C      1  0.4460860000000  0.5719560000000  0.5118980000000 1.0
C      1  0.5533390000000  0.4264640000000  0.4963180000000 1.0
C      1  0.4910920000000  0.4547290000000  0.3805920000000 1.0
C      1  0.5088010000000  0.5480970000000  0.6206090000000 1.0
C      1  0.4606390000000  0.5036810000000  0.5495570000000 1.0
C      1  0.5390630000000  0.4928240000000  0.4538380000000 1.0
C      1  0.3655550000000  0.5134770000000  0.4621630000000 1.0
C      1  0.5968160000000  0.5232820000000  0.5037790000000 1.0
C      1  0.4877530000000  0.4474110000000  0.4730690000000 1.0
C      1  0.5089240000000  0.5531550000000  0.5252740000000 1.0
C      1  0.5054440000000  0.4897170000000  0.4948610000000 1.0
C      1  0.4889280000000  0.5083010000000  0.5097350000000 1.0
C      1  0.5708030000000  0.5301820000000  0.4889520000000 1.0
C      1  0.4402310000000  0.4633330000000  0.5157050000000 1.0
C      1  0.4654930000000  0.5082880000000  0.4370800000000 1.0
C      1  0.5440110000000  0.5017090000000  0.5725030000000 1.0
C      1  0.5297670000000  0.5549480000000  0.4542560000000 1.0
C      1  0.4721730000000  0.4372260000000  0.5475770000000 1.0
END
