TITL C-74081-2727-148 -1.43595685098099 125000 -1069.31686700304 0 0 178 (C1) n - 1
REM
REM in /home/nfs/bkarasulu/CARBON/AIRSS/Generating-Clusters/LCBOP/Higher-Symm/SD-CG/FIRE-CG
REM
REM
REM
REM
REM
REM ./C.cell (b20cbc046b6831c77cfcea5457e17084)
REM AIRSS Version 0.9.1 bugfix July 2018 build 013d7b7c2542+ Fri, 06 Jul 2018 19:26:36 +0100
REM compiler GCC version 9.2.1 20190827 (Red Hat 9.2.1-1)
REM options -cpp -mtune=generic -march=x86-64 -g -O0 -fpre-include=/usr/include/finclude/math-vector-fortran.h
REM seed 1161997184 951186175 264437745 -881406270 378228673 -1177165779 1665917603 -268640615 460188551 1234596655 -1031493901 -774152059 218131588 2051422425 -1908633771 457863924 1258992575 1432081711 1231208040 -1002383522 -1529019860 -1475651812 923809769 -1761748403 1721903572 144499641 -622056092 -565854783 1493075863 -1928528517 -2034300893 29506302 609891522
REM
CELL 1.54180   50.00000   50.00000   50.00000   90.00000   90.00000   90.00000
LATT -1
SFAC C  
C      1  0.4305300000000  0.3648270000000  0.5121700000000 1.0
C      1  0.4212680000000  0.6373650000000  0.5026590000000 1.0
C      1  0.5199770000000  0.5475790000000  0.6208070000000 1.0
C      1  0.5229970000000  0.4531940000000  0.6040060000000 1.0
C      1  0.3976120000000  0.5693140000000  0.5141570000000 1.0
C      1  0.3907030000000  0.4267390000000  0.5186090000000 1.0
C      1  0.5672150000000  0.5234540000000  0.5009870000000 1.0
C      1  0.5562180000000  0.4757960000000  0.5150270000000 1.0
C      1  0.5825010000000  0.4221440000000  0.5232310000000 1.0
C      1  0.5814960000000  0.5793340000000  0.5483350000000 1.0
C      1  0.5907890000000  0.5767220000000  0.5000830000000 1.0
C      1  0.5921560000000  0.4235610000000  0.4748040000000 1.0
C      1  0.5164800000000  0.4089720000000  0.4241460000000 1.0
C      1  0.5498520000000  0.5876520000000  0.4366490000000 1.0
C      1  0.5269810000000  0.5528670000000  0.4813480000000 1.0
C      1  0.5482290000000  0.4567800000000  0.4722780000000 1.0
C      1  0.3967000000000  0.4448500000000  0.5379590000000 1.0
C      1  0.3975620000000  0.5526180000000  0.5358840000000 1.0
C      1  0.4549590000000  0.5550770000000  0.4068990000000 1.0
C      1  0.4521750000000  0.4548650000000  0.4094380000000 1.0
C      1  0.4550150000000  0.3520280000000  0.5172550000000 1.0
C      1  0.5122180000000  0.6237300000000  0.4862540000000 1.0
C      1  0.4807340000000  0.4433090000000  0.4486070000000 1.0
C      1  0.5027450000000  0.5803850000000  0.4503480000000 1.0
C      1  0.4342530000000  0.4192750000000  0.5459590000000 1.0
C      1  0.4262930000000  0.5807070000000  0.5581450000000 1.0
C      1  0.5234770000000  0.4558690000000  0.4337020000000 1.0
C      1  0.5175460000000  0.5371940000000  0.4319020000000 1.0
C      1  0.5351230000000  0.4770350000000  0.3701620000000 1.0
C      1  0.5345870000000  0.5261340000000  0.3641560000000 1.0
C      1  0.4613790000000  0.4464080000000  0.5813640000000 1.0
C      1  0.4671130000000  0.5474550000000  0.5799900000000 1.0
C      1  0.4749980000000  0.4232770000000  0.4680980000000 1.0
C      1  0.4749100000000  0.5713450000000  0.4647240000000 1.0
C      1  0.4483110000000  0.4145240000000  0.4726970000000 1.0
C      1  0.4473660000000  0.5716060000000  0.4539440000000 1.0
C      1  0.5231970000000  0.4622830000000  0.5480020000000 1.0
C      1  0.5195230000000  0.5528910000000  0.5537570000000 1.0
C      1  0.5127800000000  0.5376440000000  0.5043790000000 1.0
C      1  0.5110710000000  0.4790140000000  0.5045060000000 1.0
C      1  0.5444670000000  0.3935260000000  0.5251570000000 1.0
C      1  0.5479430000000  0.6130400000000  0.5473610000000 1.0
C      1  0.5309620000000  0.4277040000000  0.4397570000000 1.0
C      1  0.5637640000000  0.5791200000000  0.4601830000000 1.0
C      1  0.4965730000000  0.6100500000000  0.5315110000000 1.0
C      1  0.4921910000000  0.3902560000000  0.5300660000000 1.0
C      1  0.4784320000000  0.4665660000000  0.5907200000000 1.0
C      1  0.4917530000000  0.5339750000000  0.5880090000000 1.0
C      1  0.4247830000000  0.4252350000000  0.4844530000000 1.0
C      1  0.4244610000000  0.5712870000000  0.4731290000000 1.0
C      1  0.4607360000000  0.4755760000000  0.4809910000000 1.0
C      1  0.4796710000000  0.5346550000000  0.4718620000000 1.0
C      1  0.5953910000000  0.4363600000000  0.4495200000000 1.0
C      1  0.5912870000000  0.5771360000000  0.4708610000000 1.0
C      1  0.5146680000000  0.5834050000000  0.3999920000000 1.0
C      1  0.4809750000000  0.4428110000000  0.4157130000000 1.0
C      1  0.4402630000000  0.4710770000000  0.5341820000000 1.0
C      1  0.4385730000000  0.5304390000000  0.5331340000000 1.0
C      1  0.5460710000000  0.4283510000000  0.4648030000000 1.0
C      1  0.5471550000000  0.5730510000000  0.4843710000000 1.0
C      1  0.4413780000000  0.5539870000000  0.4311910000000 1.0
C      1  0.4428720000000  0.4631890000000  0.4358730000000 1.0
C      1  0.4834220000000  0.5935510000000  0.5745170000000 1.0
C      1  0.4909420000000  0.4081380000000  0.5730010000000 1.0
C      1  0.5306520000000  0.6035990000000  0.5679570000000 1.0
C      1  0.5341980000000  0.4006200000000  0.5510100000000 1.0
C      1  0.4195430000000  0.4525160000000  0.4471430000000 1.0
C      1  0.4215750000000  0.5355730000000  0.4410380000000 1.0
C      1  0.5163900000000  0.5535150000000  0.4549890000000 1.0
C      1  0.5298850000000  0.4723240000000  0.4563040000000 1.0
C      1  0.5620360000000  0.4068360000000  0.5079200000000 1.0
C      1  0.5622000000000  0.5946640000000  0.5321920000000 1.0
C      1  0.4752540000000  0.5583850000000  0.3898110000000 1.0
C      1  0.4673050000000  0.4704910000000  0.4526440000000 1.0
C      1  0.4747790000000  0.4292830000000  0.5633710000000 1.0
C      1  0.4719060000000  0.5703950000000  0.5637330000000 1.0
C      1  0.4916530000000  0.4190670000000  0.4901900000000 1.0
C      1  0.4754230000000  0.5863230000000  0.4915320000000 1.0
C      1  0.4931530000000  0.4154260000000  0.4109170000000 1.0
C      1  0.5222330000000  0.5882770000000  0.4264030000000 1.0
C      1  0.4997860000000  0.5272340000000  0.6153100000000 1.0
C      1  0.5000740000000  0.4704810000000  0.6088620000000 1.0
C      1  0.5074580000000  0.6064530000000  0.4664330000000 1.0
C      1  0.4568110000000  0.3247580000000  0.5162790000000 1.0
C      1  0.5192360000000  0.5547920000000  0.5275200000000 1.0
C      1  0.5299760000000  0.4638340000000  0.5208950000000 1.0
C      1  0.5704670000000  0.5754800000000  0.5745300000000 1.0
C      1  0.5738160000000  0.4280820000000  0.5501080000000 1.0
C      1  0.4130300000000  0.3841850000000  0.5068810000000 1.0
C      1  0.4158390000000  0.6121930000000  0.4986530000000 1.0
C      1  0.5068690000000  0.3941230000000  0.5545400000000 1.0
C      1  0.5033870000000  0.6065650000000  0.5597920000000 1.0
C      1  0.5183350000000  0.4608750000000  0.3840090000000 1.0
C      1  0.5180940000000  0.5471590000000  0.3674410000000 1.0
C      1  0.5047140000000  0.4636640000000  0.4106380000000 1.0
C      1  0.5022430000000  0.5639760000000  0.3837040000000 1.0
C      1  0.4074560000000  0.4111990000000  0.5018710000000 1.0
C      1  0.4127500000000  0.5847140000000  0.4952290000000 1.0
C      1  0.4870570000000  0.4154510000000  0.5174740000000 1.0
C      1  0.4790520000000  0.5905250000000  0.5192980000000 1.0
C      1  0.5440710000000  0.5832290000000  0.5853500000000 1.0
C      1  0.5494320000000  0.4214530000000  0.5651470000000 1.0
C      1  0.5620330000000  0.5841220000000  0.5060470000000 1.0
C      1  0.5646570000000  0.4128750000000  0.4796380000000 1.0
C      1  0.4806520000000  0.4790300000000  0.5038360000000 1.0
C      1  0.4809870000000  0.5330300000000  0.5020260000000 1.0
C      1  0.4776310000000  0.3675170000000  0.5233490000000 1.0
C      1  0.5088740000000  0.6270340000000  0.5127310000000 1.0
C      1  0.4330090000000  0.4543490000000  0.5781290000000 1.0
C      1  0.4384670000000  0.5406680000000  0.5790450000000 1.0
C      1  0.4123890000000  0.5459380000000  0.4675060000000 1.0
C      1  0.4192350000000  0.4514100000000  0.4755360000000 1.0
C      1  0.4768270000000  0.4360160000000  0.5348630000000 1.0
C      1  0.4689980000000  0.5695220000000  0.5352060000000 1.0
C      1  0.6006330000000  0.5714180000000  0.5272880000000 1.0
C      1  0.6018610000000  0.4284170000000  0.5022080000000 1.0
C      1  0.5327230000000  0.5679270000000  0.6071860000000 1.0
C      1  0.5383850000000  0.4364220000000  0.5880040000000 1.0
C      1  0.6137530000000  0.5754940000000  0.4555760000000 1.0
C      1  0.5869540000000  0.4546990000000  0.4310710000000 1.0
C      1  0.4666400000000  0.4608100000000  0.5247780000000 1.0
C      1  0.4603000000000  0.5466930000000  0.5202920000000 1.0
C      1  0.5230760000000  0.4823140000000  0.5659020000000 1.0
C      1  0.5142190000000  0.5312250000000  0.5702780000000 1.0
C      1  0.4226090000000  0.5494460000000  0.5532710000000 1.0
C      1  0.4240770000000  0.4487070000000  0.5490720000000 1.0
C      1  0.4318630000000  0.4764220000000  0.4837070000000 1.0
C      1  0.4112570000000  0.5242300000000  0.4858320000000 1.0
C      1  0.5675270000000  0.4689040000000  0.4897360000000 1.0
C      1  0.5723520000000  0.5124950000000  0.4755110000000 1.0
C      1  0.6904750000000  0.4854800000000  0.5329840000000 1.0
C      1  0.4933590000000  0.5127270000000  0.4590560000000 1.0
C      1  0.5541040000000  0.5107930000000  0.4535210000000 1.0
C      1  0.5436040000000  0.5029630000000  0.3778220000000 1.0
C      1  0.5870840000000  0.4833040000000  0.4272480000000 1.0
C      1  0.6362360000000  0.4859900000000  0.4822110000000 1.0
C      1  0.5229480000000  0.5081860000000  0.5078640000000 1.0
C      1  0.4663170000000  0.4917850000000  0.5850900000000 1.0
C      1  0.6272310000000  0.5099120000000  0.5624570000000 1.0
C      1  0.6034780000000  0.5244080000000  0.6015520000000 1.0
C      1  0.5313150000000  0.5089830000000  0.5653170000000 1.0
C      1  0.3840020000000  0.4919050000000  0.5509220000000 1.0
C      1  0.5869430000000  0.4876150000000  0.4794400000000 1.0
C      1  0.3693620000000  0.4846230000000  0.4713670000000 1.0
C      1  0.4592270000000  0.5001620000000  0.6122540000000 1.0
C      1  0.4817740000000  0.4943810000000  0.4415680000000 1.0
C      1  0.6034800000000  0.5175590000000  0.5750700000000 1.0
C      1  0.4001440000000  0.4914090000000  0.4287600000000 1.0
C      1  0.5186220000000  0.5136930000000  0.4161770000000 1.0
C      1  0.6534370000000  0.4868380000000  0.5023370000000 1.0
C      1  0.6474560000000  0.5010270000000  0.5478470000000 1.0
C      1  0.6127380000000  0.4884100000000  0.4677970000000 1.0
C      1  0.4368180000000  0.4731780000000  0.3925800000000 1.0
C      1  0.4535770000000  0.4925850000000  0.3807410000000 1.0
C      1  0.4183760000000  0.5071550000000  0.4443160000000 1.0
C      1  0.3971530000000  0.4875710000000  0.5744790000000 1.0
C      1  0.4401290000000  0.5007110000000  0.5416440000000 1.0
C      1  0.4785350000000  0.5062740000000  0.5147360000000 1.0
C      1  0.5519560000000  0.5062150000000  0.5200590000000 1.0
C      1  0.3757240000000  0.4912070000000  0.5249280000000 1.0
C      1  0.5546990000000  0.5130160000000  0.5490530000000 1.0
C      1  0.4841450000000  0.5069780000000  0.5424960000000 1.0
C      1  0.4768440000000  0.5008560000000  0.3915980000000 1.0
C      1  0.3772870000000  0.4844780000000  0.4451080000000 1.0
C      1  0.6642220000000  0.4910240000000  0.5278040000000 1.0
C      1  0.4200910000000  0.5000570000000  0.4734500000000 1.0
C      1  0.6108520000000  0.4935610000000  0.4398450000000 1.0
C      1  0.4951430000000  0.4935060000000  0.4140670000000 1.0
C      1  0.4315980000000  0.4911460000000  0.6129540000000 1.0
C      1  0.4110540000000  0.4813160000000  0.4038910000000 1.0
C      1  0.5447760000000  0.5061190000000  0.4061780000000 1.0
C      1  0.5796880000000  0.5179390000000  0.5603880000000 1.0
C      1  0.3702660000000  0.4874910000000  0.4984850000000 1.0
C      1  0.4631060000000  0.5015010000000  0.5599850000000 1.0
C      1  0.4184860000000  0.4766920000000  0.5908440000000 1.0
C      1  0.5639940000000  0.5012450000000  0.4269640000000 1.0
C      1  0.5267680000000  0.5006650000000  0.4594360000000 1.0
C      1  0.4875980000000  0.5019400000000  0.6231150000000 1.0
END
