TITL C-74080-5790-68 -1.95284910156692e-07 125000 -810.631647330931 0 0 138 (C1) n - 1
REM
REM in /home/nfs/bkarasulu/CARBON/AIRSS/Generating-Clusters/LCBOP/Higher-Symm/SD-CG/FIRE-CG
REM
REM
REM
REM
REM
REM ./C.cell (b20cbc046b6831c77cfcea5457e17084)
REM AIRSS Version 0.9.1 bugfix July 2018 build 013d7b7c2542+ Fri, 06 Jul 2018 19:26:36 +0100
REM compiler GCC version 9.2.1 20190827 (Red Hat 9.2.1-1)
REM options -cpp -mtune=generic -march=x86-64 -g -O0 -fpre-include=/usr/include/finclude/math-vector-fortran.h
REM seed 2091128039 -1836374935 -1357369479 -1854619123 678388526 620705555 1114563258 186924521 2015840522 -457605652 -787880364 -403281079 -1150385119 -1423099573 -1097256813 1562339253 1543868786 -944571072 1169489656 -2085323151 619846934 -998114426 397055949 1480681908 -872239792 657979931 653887829 -1355770735 -846239647 -47307122 -1591467393 1582895269 -591043571
REM
CELL 1.54180   50.00000   50.00000   50.00000   90.00000   90.00000   90.00000
LATT -1
SFAC C  
C      1  0.4922960000000  0.4282540000000  0.5169360000000 1.0
C      1  0.5079770000000  0.4611130000000  0.5623600000000 1.0
C      1  0.4922170000000  0.5167630000000  0.5712330000000 1.0
C      1  0.5079380000000  0.5629550000000  0.5386290000000 1.0
C      1  0.4918800000000  0.5717510000000  0.4831160000000 1.0
C      1  0.5075870000000  0.5389710000000  0.4369620000000 1.0
C      1  0.4920890000000  0.4834160000000  0.4276450000000 1.0
C      1  0.5080110000000  0.4378130000000  0.4609690000000 1.0
C      1  0.4774160000000  0.4846290000000  0.4725390000000 1.0
C      1  0.5227280000000  0.4696620000000  0.4932200000000 1.0
C      1  0.4776570000000  0.4731510000000  0.5159420000000 1.0
C      1  0.5233600000000  0.4926240000000  0.5301780000000 1.0
C      1  0.4776640000000  0.5170610000000  0.5256120000000 1.0
C      1  0.5223330000000  0.5300460000000  0.5078400000000 1.0
C      1  0.4766100000000  0.5269000000000  0.4832450000000 1.0
C      1  0.5222910000000  0.5075470000000  0.4690230000000 1.0
C      1  0.4667380000000  0.4278380000000  0.5322000000000 1.0
C      1  0.5334060000000  0.4715070000000  0.5735860000000 1.0
C      1  0.4667580000000  0.5319200000000  0.5716250000000 1.0
C      1  0.5333740000000  0.5739020000000  0.5281370000000 1.0
C      1  0.4664090000000  0.5725080000000  0.4677510000000 1.0
C      1  0.5331960000000  0.5285620000000  0.4258000000000 1.0
C      1  0.4666710000000  0.4681410000000  0.4272280000000 1.0
C      1  0.5334330000000  0.4265700000000  0.4714680000000 1.0
C      1  0.4629170000000  0.5511530000000  0.5500510000000 1.0
C      1  0.5370570000000  0.5715080000000  0.4993890000000 1.0
C      1  0.4625080000000  0.5509080000000  0.4485340000000 1.0
C      1  0.5371650000000  0.4997270000000  0.4278510000000 1.0
C      1  0.4629630000000  0.4493650000000  0.4491530000000 1.0
C      1  0.5374020000000  0.4283460000000  0.5003550000000 1.0
C      1  0.4627910000000  0.4499190000000  0.5508660000000 1.0
C      1  0.5371970000000  0.5003380000000  0.5717710000000 1.0
C      1  0.4544810000000  0.4979910000000  0.4595940000000 1.0
C      1  0.5455590000000  0.4701750000000  0.4737540000000 1.0
C      1  0.4548670000000  0.4600850000000  0.5023340000000 1.0
C      1  0.5461320000000  0.4741240000000  0.5296370000000 1.0
C      1  0.4543750000000  0.5031390000000  0.5386630000000 1.0
C      1  0.5454960000000  0.5297710000000  0.5263510000000 1.0
C      1  0.4540810000000  0.5397820000000  0.4969850000000 1.0
C      1  0.5450290000000  0.5264190000000  0.4694830000000 1.0
C      1  0.4880510000000  0.6117390000000  0.5082540000000 1.0
C      1  0.5118740000000  0.5849550000000  0.4267330000000 1.0
C      1  0.4879550000000  0.5085600000000  0.3878300000000 1.0
C      1  0.5120140000000  0.4272760000000  0.4149030000000 1.0
C      1  0.4880350000000  0.3885990000000  0.4914930000000 1.0
C      1  0.5120090000000  0.4150800000000  0.5728430000000 1.0
C      1  0.4879600000000  0.4916280000000  0.6112110000000 1.0
C      1  0.5120930000000  0.5730900000000  0.5845910000000 1.0
C      1  0.4997770000000  0.6003570000000  0.4818320000000 1.0
C      1  0.5000420000000  0.5583780000000  0.4158130000000 1.0
C      1  0.4997770000000  0.4820920000000  0.3990260000000 1.0
C      1  0.5002860000000  0.4166010000000  0.4416420000000 1.0
C      1  0.4998170000000  0.3995960000000  0.5180370000000 1.0
C      1  0.5002140000000  0.4417600000000  0.5834950000000 1.0
C      1  0.4997550000000  0.5180740000000  0.5999540000000 1.0
C      1  0.5003250000000  0.5840370000000  0.5580310000000 1.0
C      1  0.5593260000000  0.4219320000000  0.4592510000000 1.0
C      1  0.4407760000000  0.4161500000000  0.5267080000000 1.0
C      1  0.5593460000000  0.4594120000000  0.5781820000000 1.0
C      1  0.4408140000000  0.5267360000000  0.5835090000000 1.0
C      1  0.5593640000000  0.5783780000000  0.5401590000000 1.0
C      1  0.4405080000000  0.5843220000000  0.4732170000000 1.0
C      1  0.5591620000000  0.5406890000000  0.4213360000000 1.0
C      1  0.4406910000000  0.4734200000000  0.4155020000000 1.0
C      1  0.5145310000000  0.4925820000000  0.4441780000000 1.0
C      1  0.4855890000000  0.4562180000000  0.4657650000000 1.0
C      1  0.5148540000000  0.4447010000000  0.5077900000000 1.0
C      1  0.4854900000000  0.4664020000000  0.5441750000000 1.0
C      1  0.5148310000000  0.5074590000000  0.5549540000000 1.0
C      1  0.4854790000000  0.5449260000000  0.5332520000000 1.0
C      1  0.5142710000000  0.5550630000000  0.4925600000000 1.0
C      1  0.4849650000000  0.5340130000000  0.4551740000000 1.0
C      1  0.6056730000000  0.5782610000000  0.5206400000000 1.0
C      1  0.3940240000000  0.5709010000000  0.4596670000000 1.0
C      1  0.6056170000000  0.5215420000000  0.4214350000000 1.0
C      1  0.3943660000000  0.4596700000000  0.4292960000000 1.0
C      1  0.6058260000000  0.4216710000000  0.4782460000000 1.0
C      1  0.3943170000000  0.4299340000000  0.5399680000000 1.0
C      1  0.6057350000000  0.4787110000000  0.5784840000000 1.0
C      1  0.3944370000000  0.5408570000000  0.5703430000000 1.0
C      1  0.5887580000000  0.5102420000000  0.5212900000000 1.0
C      1  0.4109400000000  0.5225860000000  0.5077530000000 1.0
C      1  0.5879090000000  0.5201660000000  0.4898850000000 1.0
C      1  0.4117280000000  0.5074480000000  0.4784660000000 1.0
C      1  0.5879590000000  0.4912900000000  0.4796500000000 1.0
C      1  0.4123890000000  0.4797680000000  0.4917110000000 1.0
C      1  0.5884570000000  0.4799420000000  0.5081370000000 1.0
C      1  0.4118660000000  0.4919110000000  0.5198260000000 1.0
C      1  0.5652710000000  0.4358840000000  0.5047110000000 1.0
C      1  0.4350600000000  0.4585020000000  0.5485110000000 1.0
C      1  0.5649950000000  0.5050550000000  0.5645170000000 1.0
C      1  0.4350970000000  0.5494480000000  0.5416830000000 1.0
C      1  0.5647760000000  0.5640820000000  0.4946670000000 1.0
C      1  0.4346660000000  0.5423440000000  0.4507320000000 1.0
C      1  0.5649090000000  0.4952070000000  0.4355140000000 1.0
C      1  0.4352280000000  0.4513030000000  0.4577340000000 1.0
C      1  0.4941060000000  0.6062780000000  0.5378310000000 1.0
C      1  0.5059350000000  0.6017120000000  0.4517480000000 1.0
C      1  0.4939540000000  0.5381350000000  0.3935060000000 1.0
C      1  0.5060030000000  0.4520360000000  0.3977620000000 1.0
C      1  0.4941010000000  0.3943840000000  0.4619730000000 1.0
C      1  0.5059850000000  0.3980400000000  0.5480500000000 1.0
C      1  0.4939720000000  0.4620520000000  0.6056880000000 1.0
C      1  0.5059320000000  0.5481510000000  0.6013610000000 1.0
C      1  0.4211670000000  0.5389630000000  0.5656480000000 1.0
C      1  0.5788890000000  0.5738260000000  0.5188380000000 1.0
C      1  0.4207920000000  0.5663060000000  0.4612900000000 1.0
C      1  0.5788430000000  0.5195250000000  0.4258340000000 1.0
C      1  0.4211450000000  0.4615260000000  0.4337400000000 1.0
C      1  0.5790850000000  0.4262080000000  0.4803540000000 1.0
C      1  0.4211030000000  0.4344110000000  0.5383150000000 1.0
C      1  0.5789710000000  0.4806960000000  0.5740120000000 1.0
C      1  0.4407180000000  0.5102960000000  0.6061540000000 1.0
C      1  0.5594420000000  0.5825990000000  0.5678340000000 1.0
C      1  0.4406400000000  0.6069240000000  0.4897270000000 1.0
C      1  0.5591830000000  0.5683410000000  0.4170060000000 1.0
C      1  0.4406320000000  0.4899030000000  0.3928770000000 1.0
C      1  0.5592910000000  0.4175580000000  0.4316100000000 1.0
C      1  0.4407360000000  0.3935960000000  0.5101320000000 1.0
C      1  0.5593450000000  0.4317590000000  0.5825020000000 1.0
C      1  0.5397280000000  0.4190170000000  0.4129780000000 1.0
C      1  0.4602860000000  0.3814900000000  0.4958660000000 1.0
C      1  0.5397270000000  0.4131740000000  0.5810680000000 1.0
C      1  0.4602430000000  0.4960930000000  0.6183650000000 1.0
C      1  0.5398770000000  0.5811100000000  0.5864800000000 1.0
C      1  0.4603430000000  0.6189770000000  0.5038270000000 1.0
C      1  0.5395780000000  0.5869350000000  0.4184760000000 1.0
C      1  0.4602100000000  0.5040990000000  0.3807230000000 1.0
C      1  0.5686040000000  0.5180550000000  0.5390760000000 1.0
C      1  0.4312250000000  0.5406460000000  0.5145570000000 1.0
C      1  0.5681570000000  0.5386520000000  0.4817040000000 1.0
C      1  0.4312740000000  0.5151120000000  0.4595300000000 1.0
C      1  0.5683890000000  0.4824700000000  0.4611140000000 1.0
C      1  0.4318540000000  0.4603000000000  0.4848460000000 1.0
C      1  0.5689740000000  0.4615620000000  0.5172700000000 1.0
C      1  0.4315350000000  0.4855000000000  0.5390950000000 1.0
C      1  0.5147280000000  0.5004540000000  0.4978940000000 1.0
C      1  0.4852580000000  0.4985030000000  0.5004320000000 1.0
END
