TITL C-74085-4933-11 -4.16441688922843e-08 125000 -548.439769210725 0 0 98 (S4) n - 1
REM
REM in /home/nfs/bkarasulu/CARBON/AIRSS/Generating-Clusters/LCBOP/Higher-Symm/SD-CG/FIRE-CG
REM
REM
REM
REM
REM
REM ./C.cell (b20cbc046b6831c77cfcea5457e17084)
REM AIRSS Version 0.9.1 bugfix July 2018 build 013d7b7c2542+ Fri, 06 Jul 2018 19:26:36 +0100
REM compiler GCC version 9.2.1 20190827 (Red Hat 9.2.1-1)
REM options -cpp -mtune=generic -march=x86-64 -g -O0 -fpre-include=/usr/include/finclude/math-vector-fortran.h
REM seed -1535030758 -1712859024 2060728333 1471887040 -884439112 866019346 -750302078 -1904327967 -1613081938 1110307107 -1748911830 -983443994 935707032 1212122455 -2010337965 -2121946910 -455556458 1145088751 -1963247455 188960842 1332002369 -915107098 1551286125 -951993674 -173667340 -152152472 1270285692 283996394 929682175 1946852654 -1870154540 -1723788315 -74657246
REM
CELL 1.54180   50.00000   50.00000   50.00000   90.00000   90.00000   90.00000
LATT -1
SFAC C  
C      1  0.4406730000000  0.4660250000000  0.4358330000000 1.0
C      1  0.4658970000000  0.5590140000000  0.5641780000000 1.0
C      1  0.5588860000000  0.5338150000000  0.4358290000000 1.0
C      1  0.5336860000000  0.4408010000000  0.5641600000000 1.0
C      1  0.4882190000000  0.5755900000000  0.4757140000000 1.0
C      1  0.5754610000000  0.5114760000000  0.5242880000000 1.0
C      1  0.5113480000000  0.4242430000000  0.4756970000000 1.0
C      1  0.4241140000000  0.4883470000000  0.5243000000000 1.0
C      1  0.5502080000000  0.5729040000000  0.5007950000000 1.0
C      1  0.5727760000000  0.4494910000000  0.4991960000000 1.0
C      1  0.4493630000000  0.4269230000000  0.5007900000000 1.0
C      1  0.4267950000000  0.5503360000000  0.4992200000000 1.0
C      1  0.4443090000000  0.4514730000000  0.5522800000000 1.0
C      1  0.4513450000000  0.5554000000000  0.4477300000000 1.0
C      1  0.5552720000000  0.5483440000000  0.5522800000000 1.0
C      1  0.5482160000000  0.4444380000000  0.4477100000000 1.0
C      1  0.5253020000000  0.5009420000000  0.4708830000000 1.0
C      1  0.5008130000000  0.4743910000000  0.5291120000000 1.0
C      1  0.4742630000000  0.4988910000000  0.4708870000000 1.0
C      1  0.4987630000000  0.5254300000000  0.5291180000000 1.0
C      1  0.5154290000000  0.4714460000000  0.4174920000000 1.0
C      1  0.4713170000000  0.4842540000000  0.5825050000000 1.0
C      1  0.4841260000000  0.5283980000000  0.4175000000000 1.0
C      1  0.5282700000000  0.5155570000000  0.5825030000000 1.0
C      1  0.4401190000000  0.4603610000000  0.4650700000000 1.0
C      1  0.4602330000000  0.5595730000000  0.5349420000000 1.0
C      1  0.5594450000000  0.5394730000000  0.4650660000000 1.0
C      1  0.5393450000000  0.4402470000000  0.5349230000000 1.0
C      1  0.5477970000000  0.5661940000000  0.4723820000000 1.0
C      1  0.5660660000000  0.4518970000000  0.5276090000000 1.0
C      1  0.4517690000000  0.4336390000000  0.4723780000000 1.0
C      1  0.4335110000000  0.5479250000000  0.5276310000000 1.0
C      1  0.4987830000000  0.5697980000000  0.4488560000000 1.0
C      1  0.5696700000000  0.5009060000000  0.5511440000000 1.0
C      1  0.5007790000000  0.4300390000000  0.4488420000000 1.0
C      1  0.4299110000000  0.4989110000000  0.5511570000000 1.0
C      1  0.5529700000000  0.5218340000000  0.5659270000000 1.0
C      1  0.5217060000000  0.4467420000000  0.4340620000000 1.0
C      1  0.4466140000000  0.4779810000000  0.5659330000000 1.0
C      1  0.4778530000000  0.5530980000000  0.4340770000000 1.0
C      1  0.4849490000000  0.5486430000000  0.4888590000000 1.0
C      1  0.5485150000000  0.5147480000000  0.5111440000000 1.0
C      1  0.5146200000000  0.4511870000000  0.4888470000000 1.0
C      1  0.4510580000000  0.4850770000000  0.5111500000000 1.0
C      1  0.5050750000000  0.4428830000000  0.5722750000000 1.0
C      1  0.4427550000000  0.4946380000000  0.4277240000000 1.0
C      1  0.4945100000000  0.5569300000000  0.5722870000000 1.0
C      1  0.5568020000000  0.5052030000000  0.4277140000000 1.0
C      1  0.4502920000000  0.4808670000000  0.4812020000000 1.0
C      1  0.4807390000000  0.5494040000000  0.5188080000000 1.0
C      1  0.5492760000000  0.5189640000000  0.4811960000000 1.0
C      1  0.5188360000000  0.4504200000000  0.5187940000000 1.0
C      1  0.5134780000000  0.5690810000000  0.5542070000000 1.0
C      1  0.5689530000000  0.4862320000000  0.4457900000000 1.0
C      1  0.4861030000000  0.4307350000000  0.5541960000000 1.0
C      1  0.4306070000000  0.5136060000000  0.4458060000000 1.0
C      1  0.4833200000000  0.4813400000000  0.4490210000000 1.0
C      1  0.4812120000000  0.5163690000000  0.5509820000000 1.0
C      1  0.5162410000000  0.5184970000000  0.4490210000000 1.0
C      1  0.5183690000000  0.4834480000000  0.5509760000000 1.0
C      1  0.5942290000000  0.5008070000000  0.5058830000000 1.0
C      1  0.5006790000000  0.4054710000000  0.4940990000000 1.0
C      1  0.4053430000000  0.4990190000000  0.5059010000000 1.0
C      1  0.4988910000000  0.5943570000000  0.4941180000000 1.0
C      1  0.4429820000000  0.5435310000000  0.5738300000000 1.0
C      1  0.5434030000000  0.5567310000000  0.4261820000000 1.0
C      1  0.5566030000000  0.4562820000000  0.5738100000000 1.0
C      1  0.4561540000000  0.4431110000000  0.4261790000000 1.0
C      1  0.4075760000000  0.5141400000000  0.4846410000000 1.0
C      1  0.5140120000000  0.5921200000000  0.5153770000000 1.0
C      1  0.5919920000000  0.4856900000000  0.4846200000000 1.0
C      1  0.4855620000000  0.4077040000000  0.5153620000000 1.0
C      1  0.4682600000000  0.5028090000000  0.4136970000000 1.0
C      1  0.5026810000000  0.5314230000000  0.5863090000000 1.0
C      1  0.5312950000000  0.4970350000000  0.4136900000000 1.0
C      1  0.4969070000000  0.4683870000000  0.5863040000000 1.0
C      1  0.5147390000000  0.5418820000000  0.4902000000000 1.0
C      1  0.5417540000000  0.4849580000000  0.5097970000000 1.0
C      1  0.4848300000000  0.4579470000000  0.4901950000000 1.0
C      1  0.4578190000000  0.5148670000000  0.5098080000000 1.0
C      1  0.5253710000000  0.5357920000000  0.5186990000000 1.0
C      1  0.5356640000000  0.4743320000000  0.4812960000000 1.0
C      1  0.4742030000000  0.4640310000000  0.5186970000000 1.0
C      1  0.4639030000000  0.5254990000000  0.4813080000000 1.0
C      1  0.4710320000000  0.4292580000000  0.4479090000000 1.0
C      1  0.4291300000000  0.5286570000000  0.5520960000000 1.0
C      1  0.5285290000000  0.5705800000000  0.4479180000000 1.0
C      1  0.5704510000000  0.4711600000000  0.5520770000000 1.0
C      1  0.4877180000000  0.4811330000000  0.4210760000000 1.0
C      1  0.4810050000000  0.5119660000000  0.5789270000000 1.0
C      1  0.5118380000000  0.5187100000000  0.4210770000000 1.0
C      1  0.5185810000000  0.4878460000000  0.5789210000000 1.0
C      1  0.5613440000000  0.4644390000000  0.4685040000000 1.0
C      1  0.4643100000000  0.4383490000000  0.5314840000000 1.0
C      1  0.4382210000000  0.5353950000000  0.4685220000000 1.0
C      1  0.5352670000000  0.5614720000000  0.5314900000000 1.0
C      1  0.4997840000000  0.4999150000000  0.4861830000000 1.0
C      1  0.4997870000000  0.4999120000000  0.5138170000000 1.0
END
