TITL C-74081-2727-442 -8.90770764775306e-07 125000 -549.926071512591 0 0 89 (C1) n - 1
REM
REM in /home/nfs/bkarasulu/CARBON/AIRSS/Generating-Clusters/LCBOP/Higher-Symm/SD-CG/FIRE-CG
REM
REM
REM
REM
REM
REM ./C.cell (b20cbc046b6831c77cfcea5457e17084)
REM AIRSS Version 0.9.1 bugfix July 2018 build 013d7b7c2542+ Fri, 06 Jul 2018 19:26:36 +0100
REM compiler GCC version 9.2.1 20190827 (Red Hat 9.2.1-1)
REM options -cpp -mtune=generic -march=x86-64 -g -O0 -fpre-include=/usr/include/finclude/math-vector-fortran.h
REM seed 1009039060 112315420 1997971861 -1002941290 -2026466449 802689969 -451341865 637002369 -176493765 -1418367212 128305297 300119599 -1508444277 -1563534437 177866624 -2064616421 2116964227 -1585457812 -1304901392 879688630 2000783262 1431097212 1770209819 1484587930 866943503 -23787706 -853640197 769821703 696347647 -679364223 -1894374606 -1712925470 -777455846
REM
CELL 1.54180   50.00000   50.00000   50.00000   90.00000   90.00000   90.00000
LATT -1
SFAC C  
C      1  0.4665640000000  0.4838530000000  0.5260460000000 1.0
C      1  0.4907850000000  0.4682700000000  0.4623890000000 1.0
C      1  0.4874210000000  0.5398930000000  0.4989590000000 1.0
C      1  0.5142420000000  0.5789490000000  0.5673520000000 1.0
C      1  0.5252560000000  0.4210280000000  0.5471930000000 1.0
C      1  0.5179610000000  0.5171340000000  0.3916240000000 1.0
C      1  0.5283180000000  0.5148550000000  0.5715420000000 1.0
C      1  0.5538390000000  0.4284470000000  0.5005170000000 1.0
C      1  0.5487820000000  0.5259750000000  0.4440080000000 1.0
C      1  0.4196160000000  0.5597290000000  0.4883770000000 1.0
C      1  0.4114950000000  0.4894750000000  0.5651130000000 1.0
C      1  0.4203380000000  0.4498060000000  0.4481200000000 1.0
C      1  0.4349420000000  0.4440640000000  0.4247450000000 1.0
C      1  0.4359030000000  0.5828730000000  0.4870130000000 1.0
C      1  0.4301820000000  0.4800130000000  0.5839000000000 1.0
C      1  0.5119910000000  0.4146990000000  0.5227760000000 1.0
C      1  0.5084260000000  0.5311330000000  0.4144420000000 1.0
C      1  0.4970220000000  0.5572850000000  0.5740960000000 1.0
C      1  0.5778220000000  0.5870960000000  0.5089920000000 1.0
C      1  0.5886260000000  0.4641050000000  0.5733100000000 1.0
C      1  0.5718010000000  0.4526510000000  0.4042680000000 1.0
C      1  0.4878610000000  0.4990610000000  0.5352900000000 1.0
C      1  0.5116150000000  0.4555040000000  0.4750350000000 1.0
C      1  0.5099840000000  0.5366960000000  0.4832420000000 1.0
C      1  0.5155680000000  0.4935520000000  0.5300230000000 1.0
C      1  0.5315950000000  0.4693550000000  0.4901820000000 1.0
C      1  0.5304160000000  0.5172150000000  0.4882060000000 1.0
C      1  0.5900740000000  0.5655700000000  0.4993290000000 1.0
C      1  0.6089800000000  0.4719430000000  0.5580570000000 1.0
C      1  0.5835650000000  0.4525830000000  0.4280980000000 1.0
C      1  0.4837690000000  0.4215820000000  0.5222110000000 1.0
C      1  0.4816980000000  0.5232010000000  0.4215000000000 1.0
C      1  0.4702130000000  0.5623390000000  0.5641780000000 1.0
C      1  0.5117130000000  0.5960450000000  0.5443010000000 1.0
C      1  0.5183870000000  0.4434430000000  0.5633000000000 1.0
C      1  0.5111510000000  0.4901310000000  0.3849870000000 1.0
C      1  0.4861130000000  0.4813330000000  0.3957590000000 1.0
C      1  0.4861330000000  0.5949170000000  0.5311980000000 1.0
C      1  0.4901440000000  0.4452800000000  0.5668740000000 1.0
C      1  0.4743380000000  0.6089360000000  0.5097940000000 1.0
C      1  0.4759010000000  0.4565830000000  0.5881420000000 1.0
C      1  0.4700650000000  0.4590740000000  0.3899370000000 1.0
C      1  0.4579890000000  0.4598230000000  0.5342150000000 1.0
C      1  0.4774910000000  0.4807840000000  0.4434240000000 1.0
C      1  0.4717690000000  0.5515760000000  0.5168440000000 1.0
C      1  0.5347700000000  0.6054580000000  0.5317270000000 1.0
C      1  0.5365610000000  0.4654560000000  0.5656880000000 1.0
C      1  0.5314620000000  0.4721460000000  0.3784230000000 1.0
C      1  0.4717780000000  0.5707980000000  0.5371000000000 1.0
C      1  0.4748640000000  0.4391070000000  0.5432160000000 1.0
C      1  0.4784310000000  0.4950500000000  0.4196480000000 1.0
C      1  0.4617350000000  0.5368070000000  0.4354170000000 1.0
C      1  0.4458230000000  0.5516080000000  0.5724440000000 1.0
C      1  0.4665180000000  0.4222970000000  0.4995690000000 1.0
C      1  0.4540410000000  0.6015170000000  0.4935650000000 1.0
C      1  0.4528270000000  0.4692290000000  0.5929210000000 1.0
C      1  0.4505870000000  0.4461960000000  0.4032070000000 1.0
C      1  0.4182070000000  0.5123760000000  0.5494230000000 1.0
C      1  0.4335380000000  0.4572880000000  0.4725040000000 1.0
C      1  0.4292850000000  0.5343430000000  0.4788680000000 1.0
C      1  0.5305230000000  0.4913040000000  0.5548360000000 1.0
C      1  0.5568560000000  0.4556240000000  0.4922140000000 1.0
C      1  0.5538140000000  0.5184860000000  0.4710760000000 1.0
C      1  0.4258500000000  0.5097190000000  0.4937590000000 1.0
C      1  0.4188480000000  0.5112950000000  0.5212260000000 1.0
C      1  0.4302060000000  0.4839080000000  0.4822860000000 1.0
C      1  0.5917460000000  0.5405740000000  0.4903970000000 1.0
C      1  0.6166690000000  0.4815590000000  0.5344630000000 1.0
C      1  0.5867120000000  0.4577520000000  0.4539650000000 1.0
C      1  0.5039860000000  0.5297510000000  0.5720850000000 1.0
C      1  0.5275950000000  0.4167480000000  0.4990040000000 1.0
C      1  0.5249550000000  0.5393430000000  0.4359550000000 1.0
C      1  0.4491010000000  0.4373190000000  0.4854720000000 1.0
C      1  0.4432160000000  0.5350520000000  0.4544820000000 1.0
C      1  0.4268030000000  0.5351940000000  0.5633930000000 1.0
C      1  0.3940450000000  0.5618450000000  0.4980290000000 1.0
C      1  0.3873000000000  0.4771070000000  0.5620110000000 1.0
C      1  0.3929780000000  0.4480460000000  0.4477640000000 1.0
C      1  0.6099200000000  0.4889290000000  0.5098210000000 1.0
C      1  0.5792200000000  0.4672050000000  0.4792170000000 1.0
C      1  0.5796770000000  0.5164890000000  0.4825980000000 1.0
C      1  0.5119670000000  0.5506090000000  0.4586030000000 1.0
C      1  0.4838610000000  0.5147730000000  0.5583310000000 1.0
C      1  0.5135170000000  0.4272330000000  0.4765630000000 1.0
C      1  0.5581520000000  0.6014000000000  0.5197260000000 1.0
C      1  0.5623010000000  0.4614060000000  0.5759720000000 1.0
C      1  0.5533150000000  0.4591590000000  0.3862990000000 1.0
C      1  0.5262010000000  0.4936630000000  0.5037020000000 1.0
C      1  0.5906280000000  0.4911540000000  0.4896630000000 1.0
END
