TITL C-74086-5274-127 0.433835262817011 125000 -645.953604498933 0 0 106 (C1) n - 1
REM
REM in /home/nfs/bkarasulu/CARBON/AIRSS/Generating-Clusters/LCBOP/Higher-Symm/SD-CG/FIRE-CG
REM
REM
REM
REM
REM
REM ./C.cell (b20cbc046b6831c77cfcea5457e17084)
REM AIRSS Version 0.9.1 bugfix July 2018 build 013d7b7c2542+ Fri, 06 Jul 2018 19:26:36 +0100
REM compiler GCC version 9.2.1 20190827 (Red Hat 9.2.1-1)
REM options -cpp -mtune=generic -march=x86-64 -g -O0 -fpre-include=/usr/include/finclude/math-vector-fortran.h
REM seed 1571967230 -462403537 1263399229 85863874 -733417718 1515847577 1113456099 -1335411762 -109220775 257861248 1871618694 1598443903 1825432084 2144588130 -2048001640 712315352 1158245573 1960059869 -1136429068 768007597 574763121 72843153 -386281135 -768883255 -687226228 -984033231 -1714779853 350816483 -1400481965 -1166376304 1539690952 1738444117 1701183879
REM
CELL 1.54180   50.00000   50.00000   50.00000   90.00000   90.00000   90.00000
LATT -1
SFAC C  
C      1  0.5466390000000  0.4419390000000  0.4700270000000 1.0
C      1  0.4550480000000  0.5614920000000  0.5368150000000 1.0
C      1  0.5256360000000  0.5540670000000  0.5261890000000 1.0
C      1  0.5276440000000  0.3660810000000  0.4242600000000 1.0
C      1  0.4438050000000  0.4350930000000  0.5400270000000 1.0
C      1  0.5503190000000  0.5657030000000  0.4520130000000 1.0
C      1  0.5374640000000  0.5252550000000  0.6009450000000 1.0
C      1  0.4595210000000  0.4664680000000  0.4034300000000 1.0
C      1  0.5187050000000  0.5945250000000  0.5711030000000 1.0
C      1  0.4794720000000  0.4104200000000  0.4532760000000 1.0
C      1  0.4067030000000  0.4696730000000  0.4642900000000 1.0
C      1  0.5850100000000  0.5402400000000  0.5349910000000 1.0
C      1  0.4780980000000  0.4750560000000  0.4986560000000 1.0
C      1  0.5178440000000  0.5217350000000  0.4941780000000 1.0
C      1  0.5269660000000  0.5481420000000  0.5884830000000 1.0
C      1  0.4719050000000  0.4455550000000  0.4179370000000 1.0
C      1  0.4683120000000  0.4930280000000  0.3984940000000 1.0
C      1  0.5292080000000  0.4984720000000  0.5983520000000 1.0
C      1  0.5297390000000  0.6437660000000  0.5676510000000 1.0
C      1  0.4700310000000  0.3745280000000  0.4874930000000 1.0
C      1  0.5420040000000  0.5500050000000  0.4290530000000 1.0
C      1  0.4537570000000  0.4487180000000  0.5636150000000 1.0
C      1  0.3932730000000  0.4795710000000  0.5100800000000 1.0
C      1  0.6018640000000  0.5317660000000  0.4892350000000 1.0
C      1  0.5077950000000  0.4077730000000  0.4524760000000 1.0
C      1  0.4998840000000  0.5876150000000  0.5500660000000 1.0
C      1  0.4552210000000  0.5156120000000  0.4112500000000 1.0
C      1  0.5434270000000  0.4787890000000  0.5812630000000 1.0
C      1  0.5375340000000  0.5724760000000  0.5796880000000 1.0
C      1  0.4617310000000  0.4284140000000  0.4377420000000 1.0
C      1  0.5858460000000  0.5358290000000  0.4662560000000 1.0
C      1  0.4107120000000  0.4698980000000  0.5300640000000 1.0
C      1  0.5403280000000  0.5029550000000  0.4143470000000 1.0
C      1  0.4590330000000  0.4949430000000  0.5810030000000 1.0
C      1  0.3663280000000  0.4816130000000  0.5134770000000 1.0
C      1  0.6289150000000  0.5350920000000  0.4891880000000 1.0
C      1  0.4786350000000  0.4392050000000  0.5747060000000 1.0
C      1  0.5166230000000  0.5575540000000  0.4171170000000 1.0
C      1  0.5363510000000  0.4529880000000  0.5937490000000 1.0
C      1  0.4584220000000  0.5396640000000  0.3963320000000 1.0
C      1  0.4954840000000  0.5595030000000  0.4366170000000 1.0
C      1  0.5007540000000  0.4377500000000  0.5561160000000 1.0
C      1  0.4377820000000  0.5163240000000  0.4621720000000 1.0
C      1  0.5622500000000  0.4862740000000  0.5326310000000 1.0
C      1  0.4352200000000  0.4278560000000  0.4496150000000 1.0
C      1  0.5638400000000  0.5776160000000  0.5679790000000 1.0
C      1  0.5718190000000  0.4994570000000  0.5089260000000 1.0
C      1  0.4265760000000  0.5079450000000  0.4876950000000 1.0
C      1  0.5367030000000  0.6175580000000  0.5676290000000 1.0
C      1  0.4625250000000  0.3948820000000  0.4712400000000 1.0
C      1  0.5372800000000  0.4779660000000  0.4266230000000 1.0
C      1  0.4642840000000  0.5187360000000  0.5675110000000 1.0
C      1  0.4413410000000  0.5108390000000  0.5155050000000 1.0
C      1  0.5599840000000  0.4936830000000  0.4799920000000 1.0
C      1  0.4794060000000  0.5529010000000  0.3853640000000 1.0
C      1  0.5106960000000  0.4564840000000  0.6077890000000 1.0
C      1  0.5312390000000  0.5644020000000  0.4730530000000 1.0
C      1  0.4634980000000  0.4338410000000  0.5196350000000 1.0
C      1  0.5046510000000  0.4852080000000  0.6081350000000 1.0
C      1  0.4949280000000  0.4985580000000  0.3889970000000 1.0
C      1  0.5307670000000  0.4992060000000  0.4849290000000 1.0
C      1  0.4676390000000  0.4987530000000  0.5087070000000 1.0
C      1  0.4947040000000  0.4865950000000  0.4506630000000 1.0
C      1  0.5057750000000  0.5110770000000  0.5407060000000 1.0
C      1  0.4842080000000  0.4724580000000  0.4721540000000 1.0
C      1  0.5174860000000  0.5279290000000  0.5211800000000 1.0
C      1  0.4438650000000  0.5391720000000  0.5259560000000 1.0
C      1  0.5611090000000  0.4644600000000  0.4729160000000 1.0
C      1  0.5021610000000  0.5430190000000  0.5771520000000 1.0
C      1  0.4997100000000  0.4493880000000  0.4199490000000 1.0
C      1  0.5640150000000  0.4129670000000  0.5873980000000 1.0
C      1  0.4424380000000  0.6194810000000  0.4425110000000 1.0
C      1  0.5261930000000  0.4252770000000  0.4650300000000 1.0
C      1  0.4726100000000  0.5790170000000  0.5481930000000 1.0
C      1  0.4563000000000  0.5152350000000  0.4402800000000 1.0
C      1  0.5424060000000  0.4819110000000  0.5525740000000 1.0
C      1  0.5150840000000  0.4837230000000  0.5426240000000 1.0
C      1  0.4839620000000  0.5132100000000  0.4486360000000 1.0
C      1  0.4773210000000  0.4908980000000  0.6025260000000 1.0
C      1  0.5204990000000  0.5063910000000  0.3939900000000 1.0
C      1  0.4307120000000  0.4874520000000  0.5402750000000 1.0
C      1  0.5676010000000  0.5147530000000  0.4569560000000 1.0
C      1  0.5518730000000  0.5223980000000  0.4316880000000 1.0
C      1  0.4457410000000  0.4767570000000  0.5637670000000 1.0
C      1  0.5232510000000  0.4217670000000  0.5616320000000 1.0
C      1  0.4782560000000  0.5812240000000  0.4385640000000 1.0
C      1  0.4171450000000  0.4488150000000  0.4514460000000 1.0
C      1  0.5784240000000  0.5586540000000  0.5533650000000 1.0
C      1  0.5774460000000  0.5619400000000  0.4590110000000 1.0
C      1  0.4173140000000  0.4424300000000  0.5330040000000 1.0
C      1  0.5151260000000  0.5785320000000  0.5279410000000 1.0
C      1  0.5183330000000  0.3861910000000  0.4379700000000 1.0
C      1  0.5874180000000  0.5234610000000  0.5123470000000 1.0
C      1  0.4064990000000  0.4873000000000  0.4861390000000 1.0
C      1  0.4360140000000  0.4055820000000  0.4680070000000 1.0
C      1  0.5632390000000  0.6064110000000  0.5643770000000 1.0
C      1  0.4831090000000  0.4541290000000  0.5160440000000 1.0
C      1  0.5129980000000  0.5427220000000  0.4764390000000 1.0
C      1  0.4881440000000  0.4402470000000  0.6014260000000 1.0
C      1  0.5055110000000  0.5581330000000  0.3910960000000 1.0
C      1  0.5015350000000  0.4587780000000  0.5370180000000 1.0
C      1  0.4955650000000  0.5381440000000  0.4550660000000 1.0
C      1  0.4901640000000  0.5249880000000  0.5600350000000 1.0
C      1  0.5115000000000  0.4705500000000  0.4339070000000 1.0
C      1  0.5424640000000  0.4283310000000  0.5812730000000 1.0
C      1  0.4603570000000  0.6006450000000  0.4405910000000 1.0
END
