TITL C-74086-5274-326 -203032.816135748 125000 -1133.9295246928 0 0 188 (C1) n - 1
REM
REM in /home/nfs/bkarasulu/CARBON/AIRSS/Generating-Clusters/LCBOP/Higher-Symm/SD-CG/FIRE-CG
REM
REM
REM
REM
REM
REM ./C.cell (b20cbc046b6831c77cfcea5457e17084)
REM AIRSS Version 0.9.1 bugfix July 2018 build 013d7b7c2542+ Fri, 06 Jul 2018 19:26:36 +0100
REM compiler GCC version 9.2.1 20190827 (Red Hat 9.2.1-1)
REM options -cpp -mtune=generic -march=x86-64 -g -O0 -fpre-include=/usr/include/finclude/math-vector-fortran.h
REM seed -714018664 -613528099 -273844535 -1712317550 -1956495853 1029925812 -223253069 -1249964019 -90902428 -1170441220 484232649 -4408586 542048469 -366236081 116914954 1556962349 -260498163 230959576 446517908 -322932140 -1986241010 -1989436878 1689058621 -2027920356 -1988426645 259753088 719093926 1998919385 473994234 971033975 -1484729929 -795778946 -280274976
REM
CELL 1.54180   50.00000   50.00000   50.00000   90.00000   90.00000   90.00000
LATT -1
SFAC C  
C      1  0.5046020000000  0.6108850000000  0.4841090000000 1.0
C      1  0.5071840000000  0.5158810000000  0.6122970000000 1.0
C      1  0.5063820000000  0.3900590000000  0.5182010000000 1.0
C      1  0.5088280000000  0.4856860000000  0.3860960000000 1.0
C      1  0.6033460000000  0.5560720000000  0.4630560000000 1.0
C      1  0.6058670000000  0.5383160000000  0.5539180000000 1.0
C      1  0.6055380000000  0.4390320000000  0.5347560000000 1.0
C      1  0.6021260000000  0.4629550000000  0.4388960000000 1.0
C      1  0.5230570000000  0.4905660000000  0.6117200000000 1.0
C      1  0.5215240000000  0.3828430000000  0.4947810000000 1.0
C      1  0.5224870000000  0.5131580000000  0.3843840000000 1.0
C      1  0.5200270000000  0.6142620000000  0.5084020000000 1.0
C      1  0.4013830000000  0.4913500000000  0.4323920000000 1.0
C      1  0.3968240000000  0.5665000000000  0.4933410000000 1.0
C      1  0.4037650000000  0.5223490000000  0.5536270000000 1.0
C      1  0.4034860000000  0.4430280000000  0.5195400000000 1.0
C      1  0.5366120000000  0.4964380000000  0.4353980000000 1.0
C      1  0.5368710000000  0.5431290000000  0.5066320000000 1.0
C      1  0.5212470000000  0.5031110000000  0.5629480000000 1.0
C      1  0.5461290000000  0.4559810000000  0.5104900000000 1.0
C      1  0.4273020000000  0.4810370000000  0.3885260000000 1.0
C      1  0.4275160000000  0.6032550000000  0.4847350000000 1.0
C      1  0.4231790000000  0.5209450000000  0.6012830000000 1.0
C      1  0.4276170000000  0.3956610000000  0.5235940000000 1.0
C      1  0.5948810000000  0.5443430000000  0.4390680000000 1.0
C      1  0.5934150000000  0.5621180000000  0.5448630000000 1.0
C      1  0.5945420000000  0.4499430000000  0.5583580000000 1.0
C      1  0.5873730000000  0.4409260000000  0.4501760000000 1.0
C      1  0.5035360000000  0.4883120000000  0.4662410000000 1.0
C      1  0.5017830000000  0.5362310000000  0.4824070000000 1.0
C      1  0.4985580000000  0.5134300000000  0.5274420000000 1.0
C      1  0.5006040000000  0.4634950000000  0.5128980000000 1.0
C      1  0.5710040000000  0.5064010000000  0.4763670000000 1.0
C      1  0.5765170000000  0.5201260000000  0.5021800000000 1.0
C      1  0.5835710000000  0.4989080000000  0.5192190000000 1.0
C      1  0.5770460000000  0.4804680000000  0.4843220000000 1.0
C      1  0.5936960000000  0.4761950000000  0.4149310000000 1.0
C      1  0.5855480000000  0.5755090000000  0.4730780000000 1.0
C      1  0.5891610000000  0.5182670000000  0.5648890000000 1.0
C      1  0.5909220000000  0.4171630000000  0.5244680000000 1.0
C      1  0.4488730000000  0.5332320000000  0.6108930000000 1.0
C      1  0.4541380000000  0.3881830000000  0.5358910000000 1.0
C      1  0.4528530000000  0.4682520000000  0.3872440000000 1.0
C      1  0.4529710000000  0.6063030000000  0.4706620000000 1.0
C      1  0.5263410000000  0.5232530000000  0.4909370000000 1.0
C      1  0.5226660000000  0.4988150000000  0.5345980000000 1.0
C      1  0.5267510000000  0.4784060000000  0.5113260000000 1.0
C      1  0.5250900000000  0.4954420000000  0.4864330000000 1.0
C      1  0.5253280000000  0.6057990000000  0.4313780000000 1.0
C      1  0.5281690000000  0.5659440000000  0.6000560000000 1.0
C      1  0.5287010000000  0.4007710000000  0.5657600000000 1.0
C      1  0.5275700000000  0.4370740000000  0.4058890000000 1.0
C      1  0.4788260000000  0.4980400000000  0.4798930000000 1.0
C      1  0.4775430000000  0.5243620000000  0.4921100000000 1.0
C      1  0.4754700000000  0.4981680000000  0.5257460000000 1.0
C      1  0.4774140000000  0.4798080000000  0.5030720000000 1.0
C      1  0.4111000000000  0.5063810000000  0.5782870000000 1.0
C      1  0.4156170000000  0.4173300000000  0.5077620000000 1.0
C      1  0.4133150000000  0.4975660000000  0.4065790000000 1.0
C      1  0.4133960000000  0.5866660000000  0.5037130000000 1.0
C      1  0.5592300000000  0.5812270000000  0.4825510000000 1.0
C      1  0.5765510000000  0.5098180000000  0.5895740000000 1.0
C      1  0.5645890000000  0.4133250000000  0.5147860000000 1.0
C      1  0.5715350000000  0.4904730000000  0.4041310000000 1.0
C      1  0.5203990000000  0.6018850000000  0.4601450000000 1.0
C      1  0.5203740000000  0.5381610000000  0.5980120000000 1.0
C      1  0.5220660000000  0.4031380000000  0.5382270000000 1.0
C      1  0.5271220000000  0.4650070000000  0.3986870000000 1.0
C      1  0.4399050000000  0.5764160000000  0.4278820000000 1.0
C      1  0.4378170000000  0.5718820000000  0.5841730000000 1.0
C      1  0.4378160000000  0.4179080000000  0.5749380000000 1.0
C      1  0.4359880000000  0.4328550000000  0.4202990000000 1.0
C      1  0.4909390000000  0.5961100000000  0.5501890000000 1.0
C      1  0.4844740000000  0.4689890000000  0.5900230000000 1.0
C      1  0.4910280000000  0.4034030000000  0.4556250000000 1.0
C      1  0.4923140000000  0.5248090000000  0.4151570000000 1.0
C      1  0.5056730000000  0.4971700000000  0.4367580000000 1.0
C      1  0.5027520000000  0.5616490000000  0.4960500000000 1.0
C      1  0.4950540000000  0.4929960000000  0.5727890000000 1.0
C      1  0.4947900000000  0.4366370000000  0.5041240000000 1.0
C      1  0.4827360000000  0.4128520000000  0.5775510000000 1.0
C      1  0.4804650000000  0.4408130000000  0.4166570000000 1.0
C      1  0.4841440000000  0.5856590000000  0.4308710000000 1.0
C      1  0.4784420000000  0.5789110000000  0.6013800000000 1.0
C      1  0.4593740000000  0.3991980000000  0.5650720000000 1.0
C      1  0.4548160000000  0.4421090000000  0.3999630000000 1.0
C      1  0.4584660000000  0.5958650000000  0.4418580000000 1.0
C      1  0.4547270000000  0.5620110000000  0.6060630000000 1.0
C      1  0.5344800000000  0.5960790000000  0.5252250000000 1.0
C      1  0.5404790000000  0.4719760000000  0.5959810000000 1.0
C      1  0.5368880000000  0.3978410000000  0.4757730000000 1.0
C      1  0.5407450000000  0.5322910000000  0.3986330000000 1.0
C      1  0.5177190000000  0.4406540000000  0.4636240000000 1.0
C      1  0.5249130000000  0.5546050000000  0.4455740000000 1.0
C      1  0.5149710000000  0.5515170000000  0.5502780000000 1.0
C      1  0.5227030000000  0.4498530000000  0.5537390000000 1.0
C      1  0.4233180000000  0.5245570000000  0.4107810000000 1.0
C      1  0.4221970000000  0.5800020000000  0.5302940000000 1.0
C      1  0.4169450000000  0.4756490000000  0.5748630000000 1.0
C      1  0.4237040000000  0.4192880000000  0.4791420000000 1.0
C      1  0.4777300000000  0.5721330000000  0.4872420000000 1.0
C      1  0.4744340000000  0.5157280000000  0.5750330000000 1.0
C      1  0.4733030000000  0.4244140000000  0.5169710000000 1.0
C      1  0.4820480000000  0.4727840000000  0.4241860000000 1.0
C      1  0.5205800000000  0.4121450000000  0.4546750000000 1.0
C      1  0.5334060000000  0.5567680000000  0.4165900000000 1.0
C      1  0.5193730000000  0.5827710000000  0.5508030000000 1.0
C      1  0.5324640000000  0.4479090000000  0.5805470000000 1.0
C      1  0.4554180000000  0.5339610000000  0.5076070000000 1.0
C      1  0.4550520000000  0.4853390000000  0.5401440000000 1.0
C      1  0.4550860000000  0.4629620000000  0.4922850000000 1.0
C      1  0.4573310000000  0.5018820000000  0.4590090000000 1.0
C      1  0.4680320000000  0.4554890000000  0.4673120000000 1.0
C      1  0.4704540000000  0.5350180000000  0.4508890000000 1.0
C      1  0.4662030000000  0.5423650000000  0.5334490000000 1.0
C      1  0.4691270000000  0.4605950000000  0.5468330000000 1.0
C      1  0.4550500000000  0.5597690000000  0.4071890000000 1.0
C      1  0.4481490000000  0.5944820000000  0.5695220000000 1.0
C      1  0.4472310000000  0.4385470000000  0.5937900000000 1.0
C      1  0.4480390000000  0.4109950000000  0.4370100000000 1.0
C      1  0.6213260000000  0.4755500000000  0.4557480000000 1.0
C      1  0.6229860000000  0.5414830000000  0.4771510000000 1.0
C      1  0.6288170000000  0.5283060000000  0.5404460000000 1.0
C      1  0.6235470000000  0.4552490000000  0.5198550000000 1.0
C      1  0.4102040000000  0.5094990000000  0.4532710000000 1.0
C      1  0.4053590000000  0.5411670000000  0.4948510000000 1.0
C      1  0.4075500000000  0.5043890000000  0.5323310000000 1.0
C      1  0.4033030000000  0.4635550000000  0.4993430000000 1.0
C      1  0.5746940000000  0.5268950000000  0.4321210000000 1.0
C      1  0.5735140000000  0.5655140000000  0.5256120000000 1.0
C      1  0.5795260000000  0.4727010000000  0.5636490000000 1.0
C      1  0.5714480000000  0.4342750000000  0.4727640000000 1.0
C      1  0.6320140000000  0.4778500000000  0.5061500000000 1.0
C      1  0.6298530000000  0.4881690000000  0.4791250000000 1.0
C      1  0.6322460000000  0.5169790000000  0.4862410000000 1.0
C      1  0.6368290000000  0.5113520000000  0.5204170000000 1.0
C      1  0.5579620000000  0.5856610000000  0.5121610000000 1.0
C      1  0.5661650000000  0.4823980000000  0.5879850000000 1.0
C      1  0.5608930000000  0.4106200000000  0.4854290000000 1.0
C      1  0.5671720000000  0.5200960000000  0.4052800000000 1.0
C      1  0.4288220000000  0.4790760000000  0.4962250000000 1.0
C      1  0.4300490000000  0.5035240000000  0.4757550000000 1.0
C      1  0.4300070000000  0.5275060000000  0.4951010000000 1.0
C      1  0.4305040000000  0.4895990000000  0.5254230000000 1.0
C      1  0.4770310000000  0.4161170000000  0.4331560000000 1.0
C      1  0.4835320000000  0.5604150000000  0.4150740000000 1.0
C      1  0.4771060000000  0.5950840000000  0.5765290000000 1.0
C      1  0.4776830000000  0.4394850000000  0.5900830000000 1.0
C      1  0.5293000000000  0.4174300000000  0.4251230000000 1.0
C      1  0.5329650000000  0.5861020000000  0.4128530000000 1.0
C      1  0.5309710000000  0.5846360000000  0.5796510000000 1.0
C      1  0.5351950000000  0.4194960000000  0.5849360000000 1.0
C      1  0.5587920000000  0.5110840000000  0.4506490000000 1.0
C      1  0.5635830000000  0.5419070000000  0.5132390000000 1.0
C      1  0.5847420000000  0.4954770000000  0.5466290000000 1.0
C      1  0.5654000000000  0.4566260000000  0.4895540000000 1.0
C      1  0.4559090000000  0.4730490000000  0.4446660000000 1.0
C      1  0.4558200000000  0.5553500000000  0.4649400000000 1.0
C      1  0.4576860000000  0.5346360000000  0.5596390000000 1.0
C      1  0.4566640000000  0.4375660000000  0.5364400000000 1.0
C      1  0.4444990000000  0.4036730000000  0.4659870000000 1.0
C      1  0.4479650000000  0.5327660000000  0.3997480000000 1.0
C      1  0.4445860000000  0.5950330000000  0.5405710000000 1.0
C      1  0.4373350000000  0.4663290000000  0.5953130000000 1.0
C      1  0.4709700000000  0.3955240000000  0.4776630000000 1.0
C      1  0.4710010000000  0.5146440000000  0.3996400000000 1.0
C      1  0.4708470000000  0.6005500000000  0.5271050000000 1.0
C      1  0.4609680000000  0.4831110000000  0.6051420000000 1.0
C      1  0.4327410000000  0.4329490000000  0.5514500000000 1.0
C      1  0.4301410000000  0.4540610000000  0.4396780000000 1.0
C      1  0.4309670000000  0.5576860000000  0.4483870000000 1.0
C      1  0.4351330000000  0.5501070000000  0.5669620000000 1.0
C      1  0.4948610000000  0.5405870000000  0.5341740000000 1.0
C      1  0.4983480000000  0.4590080000000  0.5433690000000 1.0
C      1  0.4970670000000  0.4587930000000  0.4652180000000 1.0
C      1  0.4999180000000  0.5410900000000  0.4542000000000 1.0
C      1  0.4774980000000  0.4852420000000  0.3948390000000 1.0
C      1  0.4757190000000  0.6012720000000  0.4910080000000 1.0
C      1  0.4710460000000  0.5135180000000  0.6055950000000 1.0
C      1  0.4754610000000  0.3950970000000  0.5138110000000 1.0
C      1  0.5464250000000  0.4802720000000  0.4134570000000 1.0
C      1  0.5360980000000  0.5767730000000  0.4647210000000 1.0
C      1  0.5244990000000  0.5315250000000  0.5699190000000 1.0
C      1  0.5413890000000  0.4310600000000  0.5279820000000 1.0
C      1  0.4114240000000  0.4512440000000  0.5477920000000 1.0
C      1  0.4163910000000  0.4421200000000  0.4623850000000 1.0
C      1  0.4175720000000  0.5342690000000  0.4384770000000 1.0
C      1  0.4136120000000  0.5500430000000  0.5490360000000 1.0
END
