TITL C-74080-5790-30 -1.77859414427352e-07 125000 -426.355149646569 0 0 73 (C1) n - 1
REM
REM in /home/nfs/bkarasulu/CARBON/AIRSS/Generating-Clusters/LCBOP/Higher-Symm/SD-CG/FIRE-CG
REM
REM
REM
REM
REM
REM ./C.cell (b20cbc046b6831c77cfcea5457e17084)
REM AIRSS Version 0.9.1 bugfix July 2018 build 013d7b7c2542+ Fri, 06 Jul 2018 19:26:36 +0100
REM compiler GCC version 9.2.1 20190827 (Red Hat 9.2.1-1)
REM options -cpp -mtune=generic -march=x86-64 -g -O0 -fpre-include=/usr/include/finclude/math-vector-fortran.h
REM seed -491494241 -1669622659 -781267522 -1472541842 -848254435 777225134 97729149 -405132496 -1953392698 1248991308 -1546664997 2015695645 -67610910 1578561680 -823363457 -631824609 -1863747591 535956628 -445743914 -45520741 -1266048188 1258045293 -730429798 -1570664850 129660048 1102701691 583000041 974456712 -345277304 -1060380494 1923715709 -275963858 1806668311
REM
CELL 1.54180   50.00000   50.00000   50.00000   90.00000   90.00000   90.00000
LATT -1
SFAC C  
C      1  0.4660850000000  0.5244290000000  0.5006860000000 1.0
C      1  0.5415230000000  0.5053520000000  0.5104690000000 1.0
C      1  0.4900960000000  0.4559170000000  0.5043900000000 1.0
C      1  0.5441340000000  0.4254320000000  0.4946140000000 1.0
C      1  0.4123220000000  0.5024530000000  0.4910150000000 1.0
C      1  0.5414910000000  0.5645960000000  0.4898630000000 1.0
C      1  0.4145430000000  0.4305500000000  0.4727740000000 1.0
C      1  0.4966300000000  0.6239740000000  0.4849290000000 1.0
C      1  0.6138790000000  0.4517910000000  0.4964300000000 1.0
C      1  0.5601670000000  0.4356160000000  0.4495640000000 1.0
C      1  0.4192620000000  0.4969280000000  0.4436830000000 1.0
C      1  0.5129360000000  0.5616450000000  0.4504980000000 1.0
C      1  0.4189570000000  0.5236650000000  0.5102420000000 1.0
C      1  0.5608740000000  0.5479670000000  0.5044780000000 1.0
C      1  0.5184330000000  0.4202050000000  0.5084720000000 1.0
C      1  0.4487310000000  0.4789490000000  0.5771180000000 1.0
C      1  0.5090300000000  0.5580940000000  0.5731960000000 1.0
C      1  0.5468920000000  0.4671560000000  0.5747860000000 1.0
C      1  0.5295630000000  0.5896330000000  0.4956730000000 1.0
C      1  0.5711110000000  0.4289030000000  0.5029710000000 1.0
C      1  0.4107600000000  0.4743950000000  0.4939100000000 1.0
C      1  0.4025780000000  0.4632950000000  0.5175570000000 1.0
C      1  0.5394670000000  0.6050100000000  0.5160980000000 1.0
C      1  0.5797380000000  0.4175050000000  0.5263680000000 1.0
C      1  0.4500480000000  0.5186560000000  0.5510400000000 1.0
C      1  0.5438020000000  0.5336670000000  0.5522300000000 1.0
C      1  0.5098460000000  0.4485670000000  0.5520070000000 1.0
C      1  0.4758090000000  0.5163920000000  0.5697140000000 1.0
C      1  0.5266670000000  0.5153860000000  0.5704500000000 1.0
C      1  0.5008540000000  0.4722080000000  0.5702520000000 1.0
C      1  0.5518610000000  0.5293170000000  0.5242920000000 1.0
C      1  0.5046380000000  0.4404510000000  0.5246310000000 1.0
C      1  0.4450020000000  0.5231560000000  0.5217880000000 1.0
C      1  0.4859470000000  0.5430810000000  0.5079870000000 1.0
C      1  0.5249580000000  0.4911050000000  0.5275860000000 1.0
C      1  0.4725770000000  0.4774440000000  0.5085620000000 1.0
C      1  0.5316420000000  0.5049730000000  0.4825650000000 1.0
C      1  0.5037830000000  0.4613630000000  0.4789060000000 1.0
C      1  0.4774140000000  0.4997680000000  0.4891330000000 1.0
C      1  0.5336670000000  0.5504280000000  0.4652610000000 1.0
C      1  0.5385220000000  0.4308730000000  0.4661790000000 1.0
C      1  0.4120690000000  0.5146270000000  0.4641890000000 1.0
C      1  0.5264760000000  0.4874630000000  0.5765420000000 1.0
C      1  0.4767180000000  0.4864450000000  0.5772100000000 1.0
C      1  0.5004320000000  0.5304440000000  0.5756130000000 1.0
C      1  0.5088060000000  0.4351830000000  0.4635380000000 1.0
C      1  0.4121570000000  0.5434650000000  0.4670780000000 1.0
C      1  0.5483630000000  0.5237390000000  0.4643690000000 1.0
C      1  0.4453980000000  0.5772630000000  0.4453830000000 1.0
C      1  0.5779400000000  0.4937400000000  0.4346110000000 1.0
C      1  0.4702290000000  0.4442300000000  0.4291580000000 1.0
C      1  0.4932160000000  0.4345550000000  0.4388810000000 1.0
C      1  0.4240640000000  0.5621210000000  0.4503330000000 1.0
C      1  0.5585420000000  0.5115200000000  0.4398190000000 1.0
C      1  0.4333080000000  0.4974190000000  0.5632890000000 1.0
C      1  0.5337730000000  0.5600470000000  0.5606090000000 1.0
C      1  0.5374380000000  0.4446920000000  0.5616630000000 1.0
C      1  0.5014290000000  0.5050700000000  0.5339920000000 1.0
C      1  0.4779180000000  0.4896150000000  0.5331540000000 1.0
C      1  0.5016260000000  0.5330410000000  0.5274770000000 1.0
C      1  0.5073650000000  0.5992320000000  0.4799410000000 1.0
C      1  0.5898310000000  0.4434290000000  0.4862550000000 1.0
C      1  0.4176380000000  0.4577410000000  0.4715330000000 1.0
C      1  0.5727610000000  0.5321730000000  0.4822790000000 1.0
C      1  0.5003040000000  0.4136970000000  0.4850580000000 1.0
C      1  0.4111240000000  0.5477140000000  0.4958390000000 1.0
C      1  0.4966120000000  0.5830430000000  0.4588540000000 1.0
C      1  0.5829930000000  0.4492060000000  0.4590020000000 1.0
C      1  0.4275460000000  0.4701440000000  0.4475890000000 1.0
C      1  0.5901420000000  0.4721240000000  0.4446080000000 1.0
C      1  0.4473880000000  0.4576050000000  0.4323740000000 1.0
C      1  0.4704380000000  0.5852500000000  0.4494280000000 1.0
C      1  0.5053190000000  0.4915260000000  0.4771970000000 1.0
END
