TITL C-74081-2727-368 -5.46110994236832e-07 125000 -895.744779441863 0 0 145 (C1) n - 1
REM
REM in /home/nfs/bkarasulu/CARBON/AIRSS/Generating-Clusters/LCBOP/Higher-Symm/SD-CG/FIRE-CG
REM
REM
REM
REM
REM
REM ./C.cell (b20cbc046b6831c77cfcea5457e17084)
REM AIRSS Version 0.9.1 bugfix July 2018 build 013d7b7c2542+ Fri, 06 Jul 2018 19:26:36 +0100
REM compiler GCC version 9.2.1 20190827 (Red Hat 9.2.1-1)
REM options -cpp -mtune=generic -march=x86-64 -g -O0 -fpre-include=/usr/include/finclude/math-vector-fortran.h
REM seed 1156888903 -2001930091 -544566857 436037259 2029977797 -1454195863 -1598433465 -1514088512 -472368911 164316792 817513462 645091042 572242342 1332163326 1464975839 -1633820329 315390254 -1866999870 -655682886 -549750470 797856029 516334197 1131889955 -1406924559 471256226 434464534 -643512745 -662644483 -1286023002 706445946 -784876137 1230450384 51183505
REM
CELL 1.54180   50.00000   50.00000   50.00000   90.00000   90.00000   90.00000
LATT -1
SFAC C  
C      1  0.4612650000000  0.4214720000000  0.4170350000000 1.0
C      1  0.4139070000000  0.5134060000000  0.4223420000000 1.0
C      1  0.4852300000000  0.5873730000000  0.4108060000000 1.0
C      1  0.5797640000000  0.5407400000000  0.4164110000000 1.0
C      1  0.5647500000000  0.4401940000000  0.4227520000000 1.0
C      1  0.6087910000000  0.5426730000000  0.4976090000000 1.0
C      1  0.5620110000000  0.4073120000000  0.4985090000000 1.0
C      1  0.4302740000000  0.4009380000000  0.4935020000000 1.0
C      1  0.3984770000000  0.5411930000000  0.4999870000000 1.0
C      1  0.5052080000000  0.6179920000000  0.4909040000000 1.0
C      1  0.5098730000000  0.5239680000000  0.4143690000000 1.0
C      1  0.5257360000000  0.4993850000000  0.4162620000000 1.0
C      1  0.5074210000000  0.4762520000000  0.4169050000000 1.0
C      1  0.4800000000000  0.4868980000000  0.4171420000000 1.0
C      1  0.4814670000000  0.5162470000000  0.4158380000000 1.0
C      1  0.5723240000000  0.4875350000000  0.4343320000000 1.0
C      1  0.5096970000000  0.4251270000000  0.4274570000000 1.0
C      1  0.4336110000000  0.4689880000000  0.4318690000000 1.0
C      1  0.4510740000000  0.5561300000000  0.4284940000000 1.0
C      1  0.5380690000000  0.5674330000000  0.4203400000000 1.0
C      1  0.4912980000000  0.5699900000000  0.5691850000000 1.0
C      1  0.5592410000000  0.5377610000000  0.5645440000000 1.0
C      1  0.5704320000000  0.4352530000000  0.5911820000000 1.0
C      1  0.4681620000000  0.4296150000000  0.5600120000000 1.0
C      1  0.4072370000000  0.5062150000000  0.5994640000000 1.0
C      1  0.4955390000000  0.4461490000000  0.6021030000000 1.0
C      1  0.4510010000000  0.4850920000000  0.6088790000000 1.0
C      1  0.4753770000000  0.5396950000000  0.6086900000000 1.0
C      1  0.5340410000000  0.5342950000000  0.6088680000000 1.0
C      1  0.5469740000000  0.4762900000000  0.6058880000000 1.0
C      1  0.4700080000000  0.4413040000000  0.5876090000000 1.0
C      1  0.4345450000000  0.5082590000000  0.6043330000000 1.0
C      1  0.4926380000000  0.5601880000000  0.5967460000000 1.0
C      1  0.5556380000000  0.5254000000000  0.5912630000000 1.0
C      1  0.5470130000000  0.4486670000000  0.5979050000000 1.0
C      1  0.5668530000000  0.5929040000000  0.4630210000000 1.0
C      1  0.5975140000000  0.4695580000000  0.4817150000000 1.0
C      1  0.4971300000000  0.3853290000000  0.4672090000000 1.0
C      1  0.4010040000000  0.4690510000000  0.4781780000000 1.0
C      1  0.4407630000000  0.5953580000000  0.4690800000000 1.0
C      1  0.5959800000000  0.4982240000000  0.4774520000000 1.0
C      1  0.5222720000000  0.3991790000000  0.4684550000000 1.0
C      1  0.4177430000000  0.4457990000000  0.4737400000000 1.0
C      1  0.4276740000000  0.5698450000000  0.4707910000000 1.0
C      1  0.5386190000000  0.5969180000000  0.4600920000000 1.0
C      1  0.3746140000000  0.5540440000000  0.5038340000000 1.0
C      1  0.5179880000000  0.6411820000000  0.4977490000000 1.0
C      1  0.6358300000000  0.5424540000000  0.5016580000000 1.0
C      1  0.5747840000000  0.3831460000000  0.4997380000000 1.0
C      1  0.4070890000000  0.3864850000000  0.4944320000000 1.0
C      1  0.5480080000000  0.5063880000000  0.4981850000000 1.0
C      1  0.5152420000000  0.4531210000000  0.4938810000000 1.0
C      1  0.4627650000000  0.4638320000000  0.4954380000000 1.0
C      1  0.4601940000000  0.5281740000000  0.4962710000000 1.0
C      1  0.5107300000000  0.5442740000000  0.4954040000000 1.0
C      1  0.5665270000000  0.5648280000000  0.4217640000000 1.0
C      1  0.5795560000000  0.4600680000000  0.4359480000000 1.0
C      1  0.4854900000000  0.4100490000000  0.4253500000000 1.0
C      1  0.4121570000000  0.4877140000000  0.4333790000000 1.0
C      1  0.4614510000000  0.5824360000000  0.4249550000000 1.0
C      1  0.4617360000000  0.4452110000000  0.4016290000000 1.0
C      1  0.4347990000000  0.5188510000000  0.4039450000000 1.0
C      1  0.4970640000000  0.5663820000000  0.3957740000000 1.0
C      1  0.5662760000000  0.5209920000000  0.4012550000000 1.0
C      1  0.5444880000000  0.4482160000000  0.4045090000000 1.0
C      1  0.4296890000000  0.4293540000000  0.4941100000000 1.0
C      1  0.4223500000000  0.5564220000000  0.4954890000000 1.0
C      1  0.5199090000000  0.5956770000000  0.4813010000000 1.0
C      1  0.5939270000000  0.5184450000000  0.4980500000000 1.0
C      1  0.5340940000000  0.4085430000000  0.4925630000000 1.0
C      1  0.4280600000000  0.5544120000000  0.4465800000000 1.0
C      1  0.5281820000000  0.5913660000000  0.4340480000000 1.0
C      1  0.5888770000000  0.5055500000000  0.4504400000000 1.0
C      1  0.5301310000000  0.4123360000000  0.4442460000000 1.0
C      1  0.4292290000000  0.4444240000000  0.4472910000000 1.0
C      1  0.5619610000000  0.5190820000000  0.5420320000000 1.0
C      1  0.5106890000000  0.4292470000000  0.5341780000000 1.0
C      1  0.4547920000000  0.4451490000000  0.5387940000000 1.0
C      1  0.4535500000000  0.5495510000000  0.5380300000000 1.0
C      1  0.5156730000000  0.5625460000000  0.5537070000000 1.0
C      1  0.4911990000000  0.4157430000000  0.5496590000000 1.0
C      1  0.3820240000000  0.5039370000000  0.5932780000000 1.0
C      1  0.4667650000000  0.5697680000000  0.5536650000000 1.0
C      1  0.5437840000000  0.5620880000000  0.5596770000000 1.0
C      1  0.5917420000000  0.4218860000000  0.5843750000000 1.0
C      1  0.4580150000000  0.5321660000000  0.4140140000000 1.0
C      1  0.5176210000000  0.5507060000000  0.4082820000000 1.0
C      1  0.5540480000000  0.4996690000000  0.4157230000000 1.0
C      1  0.5175360000000  0.4497150000000  0.4142660000000 1.0
C      1  0.4573170000000  0.4699120000000  0.4153290000000 1.0
C      1  0.6016720000000  0.4628070000000  0.5296810000000 1.0
C      1  0.4909960000000  0.3596810000000  0.5078090000000 1.0
C      1  0.3929550000000  0.4723720000000  0.5259690000000 1.0
C      1  0.4321380000000  0.6202220000000  0.5097690000000 1.0
C      1  0.5805650000000  0.6110060000000  0.5057640000000 1.0
C      1  0.4775660000000  0.4822330000000  0.5136880000000 1.0
C      1  0.4771660000000  0.5120360000000  0.5133020000000 1.0
C      1  0.5052160000000  0.5240850000000  0.5161080000000 1.0
C      1  0.5247140000000  0.4995800000000  0.5153150000000 1.0
C      1  0.5081380000000  0.4745580000000  0.5135960000000 1.0
C      1  0.4393530000000  0.4209930000000  0.4351560000000 1.0
C      1  0.4082420000000  0.5358050000000  0.4388540000000 1.0
C      1  0.5050210000000  0.6033730000000  0.4233470000000 1.0
C      1  0.5957390000000  0.5295430000000  0.4371740000000 1.0
C      1  0.5570350000000  0.4169690000000  0.4370030000000 1.0
C      1  0.5116820000000  0.4577350000000  0.5399880000000 1.0
C      1  0.4644610000000  0.4724390000000  0.5402110000000 1.0
C      1  0.4610320000000  0.5235150000000  0.5456360000000 1.0
C      1  0.5083590000000  0.5370780000000  0.5431590000000 1.0
C      1  0.5396300000000  0.4999740000000  0.5428550000000 1.0
C      1  0.4773030000000  0.6158000000000  0.4934840000000 1.0
C      1  0.5951270000000  0.5668970000000  0.4930850000000 1.0
C      1  0.5762760000000  0.4312670000000  0.5033680000000 1.0
C      1  0.4552860000000  0.3879940000000  0.4921130000000 1.0
C      1  0.3996590000000  0.5128540000000  0.5006170000000 1.0
C      1  0.4479240000000  0.5336840000000  0.6045280000000 1.0
C      1  0.5197100000000  0.5587900000000  0.6068220000000 1.0
C      1  0.5632240000000  0.4979280000000  0.5963060000000 1.0
C      1  0.5214670000000  0.4356140000000  0.5969090000000 1.0
C      1  0.4489660000000  0.4588820000000  0.5972760000000 1.0
C      1  0.4975900000000  0.4706420000000  0.6176190000000 1.0
C      1  0.4766850000000  0.4905630000000  0.6199640000000 1.0
C      1  0.4890010000000  0.5171890000000  0.6207860000000 1.0
C      1  0.5179330000000  0.5136300000000  0.6206930000000 1.0
C      1  0.5232230000000  0.4851110000000  0.6190110000000 1.0
C      1  0.4759680000000  0.5105040000000  0.5645080000000 1.0
C      1  0.5032450000000  0.5188380000000  0.5644100000000 1.0
C      1  0.5214870000000  0.4968500000000  0.5641070000000 1.0
C      1  0.5055260000000  0.4733790000000  0.5625110000000 1.0
C      1  0.4777330000000  0.4822290000000  0.5625390000000 1.0
C      1  0.4510300000000  0.6012630000000  0.4433030000000 1.0
C      1  0.5789910000000  0.5834280000000  0.4392040000000 1.0
C      1  0.5969140000000  0.4545310000000  0.4574950000000 1.0
C      1  0.4848820000000  0.3869220000000  0.4416870000000 1.0
C      1  0.3936530000000  0.4820010000000  0.4539430000000 1.0
C      1  0.5703110000000  0.5172370000000  0.5135570000000 1.0
C      1  0.5187980000000  0.4273520000000  0.5065990000000 1.0
C      1  0.4486470000000  0.4427590000000  0.5100380000000 1.0
C      1  0.4452700000000  0.5487360000000  0.5100990000000 1.0
C      1  0.5131610000000  0.5699820000000  0.4897620000000 1.0
C      1  0.5807760000000  0.5905230000000  0.4876350000000 1.0
C      1  0.5917920000000  0.4548710000000  0.5054520000000 1.0
C      1  0.4813110000000  0.3774950000000  0.4894510000000 1.0
C      1  0.3980920000000  0.4845440000000  0.5019950000000 1.0
C      1  0.4497680000000  0.6105680000000  0.4912470000000 1.0
END
