TITL C-74083-3671-100 16830.8847714436 125000 -949.1725014337 0 0 156 (C1) n - 1
REM
REM in /home/nfs/bkarasulu/CARBON/AIRSS/Generating-Clusters/LCBOP/Higher-Symm/SD-CG/FIRE-CG
REM
REM
REM
REM
REM
REM ./C.cell (b20cbc046b6831c77cfcea5457e17084)
REM AIRSS Version 0.9.1 bugfix July 2018 build 013d7b7c2542+ Fri, 06 Jul 2018 19:26:36 +0100
REM compiler GCC version 9.2.1 20190827 (Red Hat 9.2.1-1)
REM options -cpp -mtune=generic -march=x86-64 -g -O0 -fpre-include=/usr/include/finclude/math-vector-fortran.h
REM seed 911174959 -2008111453 -1301528745 898373163 -1215258209 -1569023355 475310797 2109696426 71119151 -1740735646 -1739782590 256173966 949904648 811826203 1507347727 774104559 -849445046 1793052076 327627591 200605116 1134535409 579354612 -596646765 -2130590610 1592250016 2054872437 -1101524669 308408778 1694201635 665006356 400029469 -858408549 1565977223
REM
CELL 1.54180   50.00000   50.00000   50.00000   90.00000   90.00000   90.00000
LATT -1
SFAC C  
C      1  0.5047330000000  0.4556580000000  0.3647730000000 1.0
C      1  0.4239770000000  0.4557090000000  0.5638460000000 1.0
C      1  0.4227130000000  0.5808900000000  0.5543710000000 1.0
C      1  0.5475760000000  0.5963190000000  0.5002690000000 1.0
C      1  0.5556430000000  0.5949180000000  0.4402660000000 1.0
C      1  0.5376520000000  0.4884560000000  0.5399110000000 1.0
C      1  0.4817080000000  0.4424600000000  0.4938590000000 1.0
C      1  0.4462150000000  0.5876350000000  0.5382210000000 1.0
C      1  0.5105700000000  0.4787990000000  0.4451580000000 1.0
C      1  0.6358070000000  0.5647030000000  0.4663690000000 1.0
C      1  0.4422410000000  0.4939820000000  0.4451030000000 1.0
C      1  0.3962970000000  0.4598880000000  0.5605370000000 1.0
C      1  0.4904070000000  0.4744360000000  0.3807320000000 1.0
C      1  0.5006190000000  0.4064660000000  0.4459560000000 1.0
C      1  0.4973040000000  0.4159400000000  0.4181520000000 1.0
C      1  0.4538830000000  0.5711180000000  0.4435290000000 1.0
C      1  0.4337360000000  0.4523110000000  0.5901400000000 1.0
C      1  0.5853640000000  0.5385300000000  0.4226450000000 1.0
C      1  0.4335190000000  0.5116670000000  0.5703600000000 1.0
C      1  0.4509110000000  0.6009280000000  0.4898350000000 1.0
C      1  0.5795730000000  0.5193400000000  0.5722020000000 1.0
C      1  0.4521980000000  0.3079610000000  0.5525230000000 1.0
C      1  0.5257070000000  0.5638360000000  0.5663810000000 1.0
C      1  0.4523640000000  0.4464510000000  0.4980280000000 1.0
C      1  0.5802060000000  0.4954930000000  0.5848860000000 1.0
C      1  0.4785150000000  0.5602810000000  0.4317520000000 1.0
C      1  0.4403560000000  0.4935460000000  0.5035320000000 1.0
C      1  0.4298350000000  0.4376890000000  0.4834120000000 1.0
C      1  0.5021500000000  0.4221730000000  0.5544600000000 1.0
C      1  0.4510510000000  0.4944280000000  0.5564430000000 1.0
C      1  0.3840750000000  0.5030490000000  0.5381120000000 1.0
C      1  0.5939280000000  0.5556110000000  0.4441850000000 1.0
C      1  0.5070420000000  0.6331210000000  0.4838300000000 1.0
C      1  0.5305830000000  0.5055910000000  0.4951510000000 1.0
C      1  0.4490420000000  0.5778780000000  0.4720720000000 1.0
C      1  0.5064920000000  0.6228130000000  0.5100230000000 1.0
C      1  0.4846240000000  0.5514730000000  0.5405680000000 1.0
C      1  0.5231710000000  0.4659000000000  0.5521180000000 1.0
C      1  0.4824980000000  0.5497170000000  0.4859510000000 1.0
C      1  0.5098370000000  0.4295340000000  0.3710670000000 1.0
C      1  0.3590360000000  0.5080210000000  0.4805360000000 1.0
C      1  0.4981470000000  0.3790710000000  0.5024240000000 1.0
C      1  0.4418800000000  0.4657310000000  0.6118400000000 1.0
C      1  0.5586420000000  0.4622490000000  0.5078760000000 1.0
C      1  0.4232760000000  0.5157670000000  0.5110360000000 1.0
C      1  0.4868850000000  0.4826960000000  0.5247440000000 1.0
C      1  0.4369380000000  0.4790840000000  0.4215090000000 1.0
C      1  0.5929500000000  0.4397560000000  0.5491120000000 1.0
C      1  0.5062270000000  0.5087300000000  0.4821690000000 1.0
C      1  0.5883840000000  0.5109360000000  0.4261820000000 1.0
C      1  0.5684630000000  0.4696640000000  0.5884050000000 1.0
C      1  0.5685780000000  0.4902410000000  0.4696510000000 1.0
C      1  0.4934610000000  0.4562270000000  0.5160840000000 1.0
C      1  0.4779430000000  0.3519360000000  0.5380110000000 1.0
C      1  0.3957320000000  0.5088260000000  0.5131190000000 1.0
C      1  0.5321110000000  0.6133700000000  0.5187330000000 1.0
C      1  0.4805510000000  0.4613410000000  0.4036910000000 1.0
C      1  0.5254210000000  0.4547980000000  0.5788730000000 1.0
C      1  0.5180780000000  0.5928840000000  0.5606130000000 1.0
C      1  0.5683730000000  0.5332860000000  0.4999330000000 1.0
C      1  0.5630090000000  0.5863200000000  0.5443430000000 1.0
C      1  0.5066830000000  0.5573200000000  0.5226580000000 1.0
C      1  0.6159420000000  0.5465020000000  0.4606500000000 1.0
C      1  0.4210860000000  0.5346940000000  0.5766490000000 1.0
C      1  0.4867350000000  0.5025960000000  0.3805620000000 1.0
C      1  0.3367530000000  0.5184100000000  0.4718890000000 1.0
C      1  0.4936400000000  0.6059930000000  0.5532220000000 1.0
C      1  0.5573950000000  0.5107980000000  0.4852270000000 1.0
C      1  0.5064740000000  0.4120070000000  0.3917120000000 1.0
C      1  0.6189370000000  0.5199900000000  0.4714640000000 1.0
C      1  0.4835560000000  0.5210610000000  0.4973920000000 1.0
C      1  0.4387880000000  0.2867060000000  0.5594530000000 1.0
C      1  0.5129050000000  0.4294630000000  0.5800190000000 1.0
C      1  0.4351690000000  0.4966730000000  0.3991710000000 1.0
C      1  0.4658760000000  0.5710730000000  0.5514730000000 1.0
C      1  0.4318420000000  0.5460950000000  0.4061170000000 1.0
C      1  0.4534670000000  0.5552550000000  0.4894880000000 1.0
C      1  0.3901750000000  0.4706370000000  0.4823390000000 1.0
C      1  0.4215780000000  0.5119020000000  0.4521440000000 1.0
C      1  0.5450100000000  0.6182190000000  0.4518780000000 1.0
C      1  0.4905050000000  0.5428000000000  0.4118380000000 1.0
C      1  0.4377590000000  0.4260280000000  0.4326490000000 1.0
C      1  0.3820960000000  0.4962470000000  0.4910320000000 1.0
C      1  0.5288720000000  0.5395350000000  0.5242440000000 1.0
C      1  0.4920950000000  0.3977840000000  0.5464900000000 1.0
C      1  0.5915140000000  0.4291690000000  0.5202470000000 1.0
C      1  0.4891560000000  0.3759140000000  0.5293460000000 1.0
C      1  0.6157970000000  0.4734650000000  0.4951120000000 1.0
C      1  0.5014970000000  0.4528210000000  0.4469090000000 1.0
C      1  0.5712440000000  0.5896680000000  0.5166990000000 1.0
C      1  0.4845340000000  0.6143490000000  0.5265590000000 1.0
C      1  0.4326010000000  0.5652760000000  0.4253240000000 1.0
C      1  0.5661460000000  0.5478470000000  0.4042870000000 1.0
C      1  0.5528780000000  0.4436370000000  0.4648140000000 1.0
C      1  0.3816620000000  0.4812310000000  0.5534970000000 1.0
C      1  0.5397670000000  0.6046950000000  0.5457130000000 1.0
C      1  0.5340070000000  0.4250800000000  0.4750130000000 1.0
C      1  0.5071140000000  0.4453560000000  0.5378910000000 1.0
C      1  0.5811040000000  0.4936730000000  0.4450900000000 1.0
C      1  0.4612650000000  0.5024660000000  0.4872060000000 1.0
C      1  0.6170960000000  0.5028210000000  0.4944510000000 1.0
C      1  0.5716150000000  0.4103070000000  0.5072350000000 1.0
C      1  0.5431890000000  0.4415260000000  0.5163630000000 1.0
C      1  0.5027210000000  0.5067040000000  0.5942790000000 1.0
C      1  0.5890210000000  0.4848640000000  0.5381670000000 1.0
C      1  0.5252570000000  0.4931330000000  0.6046070000000 1.0
C      1  0.4747750000000  0.5244690000000  0.3950420000000 1.0
C      1  0.4949010000000  0.4966940000000  0.4589760000000 1.0
C      1  0.6098540000000  0.5180650000000  0.5178460000000 1.0
C      1  0.4831660000000  0.5243670000000  0.6073230000000 1.0
C      1  0.5005820000000  0.5442320000000  0.5665960000000 1.0
C      1  0.4022040000000  0.5293540000000  0.4522360000000 1.0
C      1  0.4434810000000  0.4679540000000  0.5166130000000 1.0
C      1  0.5556750000000  0.5603220000000  0.5567510000000 1.0
C      1  0.5789020000000  0.5798570000000  0.4476790000000 1.0
C      1  0.4898650000000  0.4434530000000  0.4226690000000 1.0
C      1  0.4408820000000  0.4695580000000  0.5453640000000 1.0
C      1  0.4460310000000  0.5231730000000  0.3973820000000 1.0
C      1  0.4798330000000  0.5487910000000  0.5911130000000 1.0
C      1  0.5777380000000  0.4451380000000  0.5739440000000 1.0
C      1  0.4058410000000  0.4491960000000  0.4792020000000 1.0
C      1  0.4640880000000  0.5111620000000  0.6230860000000 1.0
C      1  0.4771340000000  0.5036840000000  0.5445330000000 1.0
C      1  0.5739920000000  0.5377260000000  0.5509240000000 1.0
C      1  0.4781360000000  0.3808270000000  0.4822930000000 1.0
C      1  0.4339350000000  0.4510280000000  0.4233300000000 1.0
C      1  0.5335140000000  0.5731240000000  0.4902870000000 1.0
C      1  0.4583400000000  0.6042020000000  0.5177940000000 1.0
C      1  0.5042100000000  0.4302850000000  0.4673530000000 1.0
C      1  0.6072740000000  0.4479370000000  0.5021980000000 1.0
C      1  0.4655230000000  0.3297380000000  0.5453980000000 1.0
C      1  0.4659770000000  0.4953060000000  0.4600420000000 1.0
C      1  0.5280410000000  0.5122320000000  0.4124070000000 1.0
C      1  0.6062690000000  0.4655200000000  0.5460650000000 1.0
C      1  0.5245110000000  0.6311100000000  0.4634290000000 1.0
C      1  0.4461220000000  0.4050090000000  0.4473280000000 1.0
C      1  0.5288410000000  0.5108440000000  0.5241570000000 1.0
C      1  0.5274930000000  0.4891860000000  0.4256670000000 1.0
C      1  0.5045880000000  0.5664070000000  0.4948940000000 1.0
C      1  0.5631090000000  0.4647840000000  0.4799710000000 1.0
C      1  0.5451130000000  0.4047730000000  0.4931960000000 1.0
C      1  0.5405660000000  0.4708160000000  0.5957970000000 1.0
C      1  0.5393150000000  0.5830080000000  0.4204290000000 1.0
C      1  0.5190010000000  0.5388640000000  0.4101970000000 1.0
C      1  0.5631120000000  0.4808420000000  0.5285920000000 1.0
C      1  0.5398690000000  0.5579140000000  0.4082470000000 1.0
C      1  0.5467240000000  0.5506100000000  0.5036930000000 1.0
C      1  0.4293590000000  0.5616130000000  0.5760680000000 1.0
C      1  0.4986010000000  0.5130670000000  0.5657360000000 1.0
C      1  0.4423600000000  0.5384590000000  0.5130250000000 1.0
C      1  0.4507680000000  0.4879100000000  0.6238460000000 1.0
C      1  0.4585060000000  0.5638650000000  0.5791570000000 1.0
C      1  0.4707390000000  0.5282830000000  0.5260630000000 1.0
C      1  0.5259330000000  0.3845190000000  0.4989350000000 1.0
C      1  0.4591230000000  0.3897540000000  0.4653830000000 1.0
C      1  0.5853500000000  0.5315480000000  0.5235550000000 1.0
END
