TITL C-74086-5274-84 6035.84784946655 125000 -935.840077592697 0 0 157 (C1) n - 1
REM
REM in /home/nfs/bkarasulu/CARBON/AIRSS/Generating-Clusters/LCBOP/Higher-Symm/SD-CG/FIRE-CG
REM
REM
REM
REM
REM
REM ./C.cell (b20cbc046b6831c77cfcea5457e17084)
REM AIRSS Version 0.9.1 bugfix July 2018 build 013d7b7c2542+ Fri, 06 Jul 2018 19:26:36 +0100
REM compiler GCC version 9.2.1 20190827 (Red Hat 9.2.1-1)
REM options -cpp -mtune=generic -march=x86-64 -g -O0 -fpre-include=/usr/include/finclude/math-vector-fortran.h
REM seed 1744810584 -87227723 311437077 -1441989293 1746274654 -229587909 -1033370633 -1848589452 569487609 1267941259 1303503769 -105477560 780138230 1346989836 585420020 391433950 789248921 1980671152 1862583801 -890895614 -700871539 1624085166 -1408799540 -31839516 2062725599 1504312916 702939660 -2079566841 -1005561383 1621024197 -229875864 -255106683 1753944535
REM
CELL 1.54180   50.00000   50.00000   50.00000   90.00000   90.00000   90.00000
LATT -1
SFAC C  
C      1  0.5437810000000  0.4740190000000  0.5427070000000 1.0
C      1  0.5431910000000  0.4622080000000  0.4734570000000 1.0
C      1  0.5361140000000  0.5213990000000  0.4533720000000 1.0
C      1  0.5375050000000  0.5453940000000  0.5219310000000 1.0
C      1  0.4580270000000  0.5246250000000  0.5398740000000 1.0
C      1  0.4648840000000  0.5465830000000  0.4791270000000 1.0
C      1  0.4630460000000  0.4784900000000  0.4556740000000 1.0
C      1  0.4570700000000  0.4595920000000  0.5250440000000 1.0
C      1  0.5104560000000  0.4875580000000  0.3722790000000 1.0
C      1  0.5121810000000  0.6290580000000  0.4939020000000 1.0
C      1  0.5060480000000  0.5194100000000  0.6128940000000 1.0
C      1  0.5077090000000  0.3895050000000  0.5122810000000 1.0
C      1  0.4884580000000  0.5041800000000  0.3716740000000 1.0
C      1  0.4924460000000  0.3896400000000  0.4863450000000 1.0
C      1  0.4863590000000  0.4980200000000  0.6169870000000 1.0
C      1  0.4899680000000  0.6292060000000  0.5102770000000 1.0
C      1  0.5219610000000  0.5144310000000  0.5563570000000 1.0
C      1  0.5190670000000  0.4460720000000  0.5117900000000 1.0
C      1  0.5310750000000  0.4841860000000  0.4235180000000 1.0
C      1  0.5323770000000  0.5776480000000  0.4877330000000 1.0
C      1  0.4750890000000  0.4872090000000  0.5690390000000 1.0
C      1  0.4697310000000  0.5782860000000  0.5144450000000 1.0
C      1  0.4685840000000  0.5117960000000  0.4226060000000 1.0
C      1  0.4809030000000  0.4456510000000  0.4874050000000 1.0
C      1  0.5046760000000  0.4485180000000  0.5869250000000 1.0
C      1  0.5024530000000  0.4046910000000  0.4612640000000 1.0
C      1  0.5049050000000  0.5439450000000  0.4109130000000 1.0
C      1  0.5064740000000  0.5890240000000  0.5474960000000 1.0
C      1  0.4975100000000  0.5422340000000  0.5947660000000 1.0
C      1  0.4961850000000  0.5886310000000  0.4553500000000 1.0
C      1  0.4945960000000  0.4505110000000  0.4140320000000 1.0
C      1  0.4973660000000  0.4039150000000  0.5377570000000 1.0
C      1  0.4872280000000  0.4084350000000  0.4336610000000 1.0
C      1  0.4902610000000  0.5687560000000  0.4147080000000 1.0
C      1  0.4922090000000  0.5844950000000  0.5726690000000 1.0
C      1  0.4902990000000  0.4234980000000  0.5816040000000 1.0
C      1  0.5109130000000  0.5846590000000  0.4306240000000 1.0
C      1  0.5085390000000  0.4248850000000  0.4179730000000 1.0
C      1  0.5115590000000  0.4070510000000  0.5660450000000 1.0
C      1  0.5132160000000  0.5688930000000  0.5890260000000 1.0
C      1  0.4238210000000  0.5324240000000  0.4489980000000 1.0
C      1  0.4310130000000  0.5459820000000  0.5377020000000 1.0
C      1  0.4315970000000  0.4602680000000  0.5422770000000 1.0
C      1  0.4232840000000  0.4472900000000  0.4648250000000 1.0
C      1  0.5681240000000  0.4621670000000  0.4569230000000 1.0
C      1  0.5687410000000  0.4562820000000  0.5390880000000 1.0
C      1  0.5780940000000  0.5359260000000  0.5516560000000 1.0
C      1  0.5772500000000  0.5509270000000  0.4677080000000 1.0
C      1  0.4670840000000  0.5205430000000  0.3787470000000 1.0
C      1  0.4684610000000  0.6214240000000  0.5261970000000 1.0
C      1  0.4662500000000  0.4795730000000  0.6115650000000 1.0
C      1  0.4636120000000  0.3875960000000  0.4838280000000 1.0
C      1  0.5317940000000  0.4716820000000  0.3804760000000 1.0
C      1  0.5367520000000  0.3897550000000  0.5149600000000 1.0
C      1  0.5350280000000  0.5196440000000  0.6132150000000 1.0
C      1  0.5337130000000  0.6213610000000  0.4780270000000 1.0
C      1  0.6071770000000  0.4898860000000  0.5220210000000 1.0
C      1  0.6058950000000  0.4800210000000  0.4926370000000 1.0
C      1  0.6052170000000  0.5087380000000  0.4818600000000 1.0
C      1  0.6071840000000  0.5214410000000  0.5122000000000 1.0
C      1  0.3952210000000  0.5091370000000  0.5192790000000 1.0
C      1  0.3968830000000  0.5173140000000  0.4914570000000 1.0
C      1  0.3950210000000  0.4895860000000  0.4800860000000 1.0
C      1  0.3927120000000  0.4741820000000  0.5108760000000 1.0
C      1  0.4633620000000  0.4222650000000  0.5695980000000 1.0
C      1  0.4607440000000  0.4236530000000  0.4318020000000 1.0
C      1  0.4627190000000  0.5704640000000  0.4273060000000 1.0
C      1  0.4646700000000  0.5734230000000  0.5753330000000 1.0
C      1  0.5399230000000  0.5699840000000  0.5743040000000 1.0
C      1  0.5384450000000  0.5720080000000  0.4290980000000 1.0
C      1  0.5361520000000  0.4225250000000  0.4291730000000 1.0
C      1  0.5376520000000  0.4216530000000  0.5699750000000 1.0
C      1  0.5447200000000  0.4450290000000  0.4989310000000 1.0
C      1  0.5486610000000  0.5034220000000  0.4353050000000 1.0
C      1  0.5497420000000  0.5643730000000  0.5056350000000 1.0
C      1  0.5480470000000  0.4987770000000  0.5619210000000 1.0
C      1  0.4522120000000  0.5654850000000  0.4959890000000 1.0
C      1  0.4509770000000  0.4943830000000  0.4363070000000 1.0
C      1  0.4551420000000  0.4406180000000  0.5007470000000 1.0
C      1  0.4528100000000  0.5016960000000  0.5589860000000 1.0
C      1  0.4461180000000  0.5754130000000  0.5527690000000 1.0
C      1  0.4454160000000  0.4454890000000  0.5723370000000 1.0
C      1  0.4402160000000  0.4240140000000  0.4525440000000 1.0
C      1  0.4431140000000  0.5486700000000  0.4238800000000 1.0
C      1  0.5567160000000  0.4249360000000  0.5490580000000 1.0
C      1  0.5599270000000  0.5485480000000  0.5747690000000 1.0
C      1  0.5579940000000  0.5757350000000  0.4509860000000 1.0
C      1  0.5545310000000  0.4455910000000  0.4264920000000 1.0
C      1  0.5879140000000  0.5182170000000  0.4613220000000 1.0
C      1  0.5895550000000  0.5416090000000  0.5215310000000 1.0
C      1  0.5906560000000  0.4830740000000  0.5435460000000 1.0
C      1  0.5892220000000  0.4589230000000  0.4859800000000 1.0
C      1  0.4110910000000  0.4797740000000  0.4590030000000 1.0
C      1  0.4113330000000  0.4548400000000  0.5175240000000 1.0
C      1  0.4113960000000  0.5147580000000  0.5406370000000 1.0
C      1  0.4131810000000  0.5386920000000  0.4816520000000 1.0
C      1  0.4267280000000  0.4928870000000  0.5521850000000 1.0
C      1  0.4267090000000  0.4431200000000  0.4942720000000 1.0
C      1  0.4245990000000  0.5019500000000  0.4442130000000 1.0
C      1  0.4267230000000  0.5544510000000  0.5036210000000 1.0
C      1  0.5761440000000  0.5057430000000  0.5566450000000 1.0
C      1  0.5762540000000  0.5559910000000  0.4984940000000 1.0
C      1  0.5741010000000  0.4960990000000  0.4462670000000 1.0
C      1  0.5724700000000  0.4491360000000  0.5077580000000 1.0
C      1  0.5470380000000  0.4919780000000  0.5160290000000 1.0
C      1  0.5449950000000  0.4890400000000  0.4871660000000 1.0
C      1  0.5451910000000  0.5156930000000  0.4788990000000 1.0
C      1  0.5472220000000  0.5197750000000  0.5183560000000 1.0
C      1  0.4570400000000  0.5127580000000  0.5129980000000 1.0
C      1  0.4556930000000  0.5216690000000  0.4866100000000 1.0
C      1  0.4539710000000  0.4823980000000  0.4814210000000 1.0
C      1  0.4562200000000  0.4844660000000  0.5092220000000 1.0
C      1  0.4905570000000  0.4789240000000  0.4526690000000 1.0
C      1  0.4926290000000  0.5479900000000  0.4801350000000 1.0
C      1  0.4816850000000  0.5363330000000  0.5500660000000 1.0
C      1  0.4807280000000  0.4487960000000  0.5373000000000 1.0
C      1  0.5083880000000  0.5201230000000  0.4520240000000 1.0
C      1  0.5199710000000  0.4499410000000  0.4614360000000 1.0
C      1  0.5139610000000  0.4725440000000  0.5460930000000 1.0
C      1  0.5095780000000  0.5487980000000  0.5218620000000 1.0
C      1  0.4945860000000  0.5231500000000  0.4276840000000 1.0
C      1  0.4965140000000  0.5736640000000  0.5252730000000 1.0
C      1  0.4982220000000  0.4699830000000  0.5693150000000 1.0
C      1  0.4994510000000  0.4332320000000  0.4698870000000 1.0
C      1  0.5047530000000  0.4727330000000  0.4294730000000 1.0
C      1  0.5011710000000  0.4324690000000  0.5292250000000 1.0
C      1  0.5015030000000  0.5300050000000  0.5677580000000 1.0
C      1  0.5064810000000  0.5721830000000  0.4763790000000 1.0
C      1  0.5503810000000  0.4524430000000  0.6079870000000 1.0
C      1  0.5504340000000  0.3844340000000  0.4589730000000 1.0
C      1  0.5516480000000  0.5403110000000  0.3924700000000 1.0
C      1  0.5531160000000  0.6073710000000  0.5436350000000 1.0
C      1  0.4492390000000  0.5449380000000  0.6137160000000 1.0
C      1  0.4495690000000  0.6074580000000  0.4585210000000 1.0
C      1  0.4484570000000  0.4549470000000  0.3946920000000 1.0
C      1  0.4487440000000  0.3847040000000  0.5391070000000 1.0
C      1  0.4556580000000  0.5957770000000  0.5328090000000 1.0
C      1  0.4504890000000  0.4622880000000  0.5962680000000 1.0
C      1  0.4439460000000  0.4008990000000  0.4702890000000 1.0
C      1  0.4542790000000  0.5286620000000  0.4038770000000 1.0
C      1  0.5551280000000  0.4041090000000  0.5292760000000 1.0
C      1  0.5550370000000  0.5314390000000  0.5984920000000 1.0
C      1  0.5467060000000  0.5960810000000  0.4705910000000 1.0
C      1  0.5447960000000  0.4653720000000  0.4060690000000 1.0
C      1  0.4672650000000  0.4025810000000  0.5476230000000 1.0
C      1  0.4661400000000  0.4450720000000  0.4127880000000 1.0
C      1  0.4675860000000  0.5894000000000  0.4490860000000 1.0
C      1  0.4681440000000  0.5528390000000  0.5959240000000 1.0
C      1  0.5349960000000  0.5895180000000  0.5531820000000 1.0
C      1  0.5335620000000  0.5501150000000  0.4102620000000 1.0
C      1  0.5321370000000  0.4027050000000  0.4507840000000 1.0
C      1  0.5329050000000  0.4422660000000  0.5899730000000 1.0
C      1  0.5003650000000  0.5314480000000  0.5019110000000 1.0
C      1  0.4995540000000  0.4654230000000  0.5000840000000 1.0
C      1  0.5006230000000  0.4989220000000  0.4690230000000 1.0
C      1  0.5081550000000  0.4984020000000  0.5345920000000 1.0
C      1  0.5016640000000  0.5002000000000  0.5025060000000 1.0
END
