TITL C-74082-2733-384 -3.5355483354181e-06 125000 -782.646290533925 0 0 130 (C1) n - 1
REM
REM in /home/nfs/bkarasulu/CARBON/AIRSS/Generating-Clusters/LCBOP/Higher-Symm/SD-CG/FIRE-CG
REM
REM
REM
REM
REM
REM ./C.cell (b20cbc046b6831c77cfcea5457e17084)
REM AIRSS Version 0.9.1 bugfix July 2018 build 013d7b7c2542+ Fri, 06 Jul 2018 19:26:36 +0100
REM compiler GCC version 9.2.1 20190827 (Red Hat 9.2.1-1)
REM options -cpp -mtune=generic -march=x86-64 -g -O0 -fpre-include=/usr/include/finclude/math-vector-fortran.h
REM seed 1815134498 -281069447 1314151045 342040380 2048036836 -414028448 -2145544357 42739613 -2116126328 1749627360 1542900212 834481516 -1766279439 2036589882 -839730838 -461805148 448950423 -707170534 -325856488 1076765157 -397259359 567529634 -670676687 2019858184 -1681609089 -191556474 1019378572 1567859361 1027319766 2050699431 -1507570883 241361567 309990334
REM
CELL 1.54180   50.00000   50.00000   50.00000   90.00000   90.00000   90.00000
LATT -1
SFAC C  
C      1  0.6096650000000  0.4799020000000  0.5103950000000 1.0
C      1  0.6071020000000  0.4780860000000  0.4829670000000 1.0
C      1  0.5247370000000  0.5837200000000  0.5305610000000 1.0
C      1  0.5233120000000  0.5913900000000  0.4688390000000 1.0
C      1  0.4929700000000  0.4371650000000  0.4751830000000 1.0
C      1  0.4879430000000  0.4349890000000  0.5255120000000 1.0
C      1  0.5346950000000  0.4439780000000  0.6259880000000 1.0
C      1  0.5517400000000  0.4555230000000  0.3806140000000 1.0
C      1  0.4867370000000  0.5570190000000  0.4002240000000 1.0
C      1  0.4929030000000  0.5546760000000  0.5977460000000 1.0
C      1  0.5125610000000  0.4718870000000  0.5533480000000 1.0
C      1  0.5218160000000  0.4787870000000  0.4554840000000 1.0
C      1  0.4753700000000  0.5727510000000  0.4196750000000 1.0
C      1  0.4793880000000  0.5703060000000  0.5796390000000 1.0
C      1  0.4197460000000  0.5603150000000  0.5395280000000 1.0
C      1  0.4187850000000  0.5560720000000  0.4580810000000 1.0
C      1  0.4957100000000  0.4177690000000  0.5776550000000 1.0
C      1  0.5095200000000  0.4242190000000  0.4218170000000 1.0
C      1  0.4805010000000  0.4561370000000  0.4034240000000 1.0
C      1  0.4673840000000  0.4508700000000  0.5964820000000 1.0
C      1  0.4350230000000  0.4761290000000  0.4096320000000 1.0
C      1  0.4320330000000  0.4869590000000  0.5974620000000 1.0
C      1  0.4633640000000  0.5805670000000  0.4449710000000 1.0
C      1  0.4658490000000  0.5798630000000  0.5558010000000 1.0
C      1  0.4209000000000  0.4632110000000  0.4573370000000 1.0
C      1  0.3986050000000  0.4799680000000  0.5625210000000 1.0
C      1  0.5610990000000  0.4876900000000  0.4987610000000 1.0
C      1  0.5605080000000  0.4849720000000  0.5258740000000 1.0
C      1  0.4611810000000  0.3949420000000  0.5274060000000 1.0
C      1  0.4643160000000  0.3998760000000  0.4611280000000 1.0
C      1  0.3897100000000  0.4500760000000  0.4952530000000 1.0
C      1  0.3842720000000  0.4552080000000  0.5212380000000 1.0
C      1  0.4957790000000  0.5304210000000  0.5291190000000 1.0
C      1  0.4956340000000  0.5374960000000  0.4703450000000 1.0
C      1  0.4617890000000  0.4214090000000  0.5120350000000 1.0
C      1  0.4637710000000  0.4236670000000  0.4800730000000 1.0
C      1  0.4948900000000  0.4396440000000  0.5992510000000 1.0
C      1  0.5092140000000  0.4479030000000  0.4017170000000 1.0
C      1  0.4953060000000  0.4360180000000  0.4450400000000 1.0
C      1  0.4825750000000  0.4316680000000  0.5551920000000 1.0
C      1  0.4021070000000  0.5169780000000  0.4850180000000 1.0
C      1  0.3999880000000  0.5205460000000  0.5145430000000 1.0
C      1  0.5307750000000  0.5780960000000  0.4463320000000 1.0
C      1  0.5327330000000  0.5680510000000  0.5514090000000 1.0
C      1  0.4992170000000  0.4919720000000  0.4423640000000 1.0
C      1  0.4886140000000  0.4859720000000  0.5615970000000 1.0
C      1  0.4155660000000  0.5325310000000  0.5362780000000 1.0
C      1  0.4165930000000  0.5284230000000  0.4628200000000 1.0
C      1  0.4408220000000  0.4459820000000  0.5198970000000 1.0
C      1  0.4440190000000  0.4520470000000  0.4699280000000 1.0
C      1  0.5725340000000  0.5166430000000  0.5650760000000 1.0
C      1  0.5619380000000  0.5077720000000  0.4282760000000 1.0
C      1  0.4766080000000  0.4532200000000  0.4320150000000 1.0
C      1  0.4629170000000  0.4484660000000  0.5678090000000 1.0
C      1  0.5037960000000  0.5304540000000  0.5567550000000 1.0
C      1  0.5029450000000  0.5395050000000  0.4427210000000 1.0
C      1  0.6140190000000  0.5473430000000  0.4635240000000 1.0
C      1  0.6205360000000  0.5510470000000  0.5187290000000 1.0
C      1  0.4360770000000  0.5742230000000  0.4487980000000 1.0
C      1  0.4381760000000  0.5753560000000  0.5520360000000 1.0
C      1  0.5221760000000  0.4848080000000  0.6038180000000 1.0
C      1  0.5364800000000  0.4941400000000  0.4043260000000 1.0
C      1  0.5667750000000  0.5558460000000  0.4686840000000 1.0
C      1  0.5731460000000  0.5593930000000  0.5243530000000 1.0
C      1  0.5726500000000  0.4391560000000  0.5225410000000 1.0
C      1  0.5740880000000  0.4416310000000  0.4951930000000 1.0
C      1  0.4190490000000  0.4960420000000  0.5738160000000 1.0
C      1  0.4264160000000  0.4838490000000  0.4360730000000 1.0
C      1  0.4788500000000  0.5899390000000  0.5324490000000 1.0
C      1  0.4768180000000  0.5895390000000  0.4688040000000 1.0
C      1  0.5257230000000  0.5207780000000  0.3983870000000 1.0
C      1  0.5283460000000  0.5128360000000  0.5984480000000 1.0
C      1  0.5290170000000  0.4527330000000  0.5387060000000 1.0
C      1  0.5344410000000  0.4582820000000  0.4727190000000 1.0
C      1  0.3802410000000  0.5027730000000  0.5254820000000 1.0
C      1  0.3886010000000  0.4933220000000  0.4760960000000 1.0
C      1  0.4892500000000  0.3905150000000  0.5711060000000 1.0
C      1  0.4990420000000  0.3973760000000  0.4226170000000 1.0
C      1  0.5565250000000  0.4586280000000  0.5361190000000 1.0
C      1  0.5600670000000  0.4637570000000  0.4830880000000 1.0
C      1  0.4692170000000  0.5253840000000  0.4723730000000 1.0
C      1  0.4676950000000  0.5222900000000  0.5281370000000 1.0
C      1  0.5292820000000  0.5418580000000  0.5621620000000 1.0
C      1  0.5269510000000  0.5524750000000  0.4348620000000 1.0
C      1  0.5316150000000  0.4664960000000  0.3963100000000 1.0
C      1  0.5166720000000  0.4565420000000  0.6091500000000 1.0
C      1  0.5203520000000  0.4364200000000  0.4881170000000 1.0
C      1  0.5175250000000  0.4345510000000  0.5179900000000 1.0
C      1  0.5467030000000  0.5416590000000  0.4821130000000 1.0
C      1  0.5526800000000  0.5418090000000  0.5169530000000 1.0
C      1  0.5030190000000  0.5368160000000  0.3907800000000 1.0
C      1  0.5091010000000  0.5340110000000  0.6063060000000 1.0
C      1  0.4633190000000  0.4762180000000  0.4722620000000 1.0
C      1  0.4563470000000  0.4729810000000  0.5259640000000 1.0
C      1  0.5001060000000  0.5917620000000  0.4855410000000 1.0
C      1  0.5013830000000  0.5898760000000  0.5150390000000 1.0
C      1  0.4582200000000  0.5211090000000  0.5560980000000 1.0
C      1  0.4606470000000  0.5204600000000  0.4437830000000 1.0
C      1  0.6257820000000  0.5703310000000  0.4749210000000 1.0
C      1  0.6289670000000  0.5721580000000  0.5019880000000 1.0
C      1  0.4298790000000  0.5171070000000  0.5572590000000 1.0
C      1  0.4328060000000  0.5115410000000  0.4445240000000 1.0
C      1  0.5752260000000  0.5827180000000  0.5081550000000 1.0
C      1  0.5731550000000  0.5808000000000  0.4811000000000 1.0
C      1  0.4592120000000  0.5022820000000  0.4858950000000 1.0
C      1  0.4561200000000  0.5008160000000  0.5135010000000 1.0
C      1  0.4636480000000  0.4730550000000  0.5547340000000 1.0
C      1  0.4753090000000  0.4770160000000  0.4455810000000 1.0
C      1  0.5967850000000  0.5481800000000  0.5353900000000 1.0
C      1  0.5869180000000  0.5424430000000  0.4537730000000 1.0
C      1  0.3975070000000  0.4666080000000  0.4736790000000 1.0
C      1  0.3847790000000  0.4778270000000  0.5381220000000 1.0
C      1  0.4826370000000  0.4632440000000  0.5149510000000 1.0
C      1  0.4852570000000  0.4641150000000  0.4873040000000 1.0
C      1  0.5830340000000  0.5133700000000  0.4470130000000 1.0
C      1  0.5936290000000  0.5201350000000  0.5452370000000 1.0
C      1  0.4735990000000  0.3839760000000  0.5492920000000 1.0
C      1  0.4791320000000  0.3901010000000  0.4402810000000 1.0
C      1  0.5183870000000  0.5351090000000  0.4853250000000 1.0
C      1  0.5176970000000  0.5325160000000  0.5130180000000 1.0
C      1  0.6037000000000  0.5006170000000  0.4657160000000 1.0
C      1  0.6100080000000  0.5047060000000  0.5245220000000 1.0
C      1  0.5466550000000  0.5230260000000  0.5765960000000 1.0
C      1  0.5425340000000  0.5356510000000  0.4183780000000 1.0
C      1  0.4498420000000  0.4695380000000  0.6081940000000 1.0
C      1  0.4561100000000  0.4676670000000  0.3942420000000 1.0
C      1  0.6197180000000  0.5226280000000  0.4778340000000 1.0
C      1  0.6228950000000  0.5245960000000  0.5066800000000 1.0
C      1  0.4838880000000  0.5131320000000  0.5685750000000 1.0
C      1  0.4882610000000  0.5170520000000  0.4322100000000 1.0
END
