TITL C-74081-2727-427 27335.6701967604 125000 -747.868188357457 0 0 125 (C1) n - 1
REM
REM in /home/nfs/bkarasulu/CARBON/AIRSS/Generating-Clusters/LCBOP/Higher-Symm/SD-CG/FIRE-CG
REM
REM
REM
REM
REM
REM ./C.cell (b20cbc046b6831c77cfcea5457e17084)
REM AIRSS Version 0.9.1 bugfix July 2018 build 013d7b7c2542+ Fri, 06 Jul 2018 19:26:36 +0100
REM compiler GCC version 9.2.1 20190827 (Red Hat 9.2.1-1)
REM options -cpp -mtune=generic -march=x86-64 -g -O0 -fpre-include=/usr/include/finclude/math-vector-fortran.h
REM seed -1667677581 -1583623568 385299812 1654615562 82765229 1565297306 575294090 -928379200 -1591294902 -736946963 -2018965974 -338649000 -679165343 -1572230970 -52058140 -2127828644 -353999259 -259324825 -1103113057 -60915090 1653252092 -2032230742 -1597341916 471207769 -982098549 1683222657 626340961 1941180493 1370442453 1910155941 850254463 -498202346 771539971
REM
CELL 1.54180   50.00000   50.00000   50.00000   90.00000   90.00000   90.00000
LATT -1
SFAC C  
C      1  0.4063480000000  0.4799110000000  0.4530980000000 1.0
C      1  0.5721680000000  0.4353460000000  0.4583270000000 1.0
C      1  0.5274140000000  0.5975370000000  0.4633590000000 1.0
C      1  0.4987830000000  0.5820370000000  0.4980370000000 1.0
C      1  0.4271880000000  0.4553230000000  0.4890650000000 1.0
C      1  0.5769010000000  0.4648320000000  0.4978100000000 1.0
C      1  0.5103860000000  0.4072540000000  0.5558520000000 1.0
C      1  0.5632110000000  0.5476180000000  0.5564090000000 1.0
C      1  0.4191460000000  0.5454070000000  0.5543070000000 1.0
C      1  0.4369150000000  0.4949270000000  0.5684450000000 1.0
C      1  0.5426710000000  0.4485760000000  0.5730670000000 1.0
C      1  0.5398850000000  0.5578210000000  0.5701240000000 1.0
C      1  0.4893540000000  0.5943250000000  0.4233160000000 1.0
C      1  0.4314730000000  0.4506150000000  0.4140760000000 1.0
C      1  0.5428840000000  0.4764100000000  0.4447880000000 1.0
C      1  0.4269690000000  0.3830460000000  0.4428310000000 1.0
C      1  0.5817160000000  0.5351660000000  0.4501970000000 1.0
C      1  0.4386870000000  0.5566130000000  0.4620040000000 1.0
C      1  0.4849330000000  0.5221500000000  0.5543230000000 1.0
C      1  0.4837400000000  0.4725430000000  0.5554930000000 1.0
C      1  0.5257050000000  0.4958150000000  0.5520110000000 1.0
C      1  0.5758080000000  0.4370520000000  0.5364770000000 1.0
C      1  0.5223320000000  0.5972920000000  0.5375870000000 1.0
C      1  0.4093650000000  0.4760710000000  0.5298200000000 1.0
C      1  0.4530570000000  0.4963300000000  0.5929980000000 1.0
C      1  0.5300490000000  0.4605460000000  0.5962130000000 1.0
C      1  0.5276610000000  0.5444150000000  0.5933550000000 1.0
C      1  0.5164250000000  0.4528150000000  0.5029740000000 1.0
C      1  0.5288660000000  0.5324730000000  0.4818400000000 1.0
C      1  0.4554770000000  0.5096310000000  0.4985140000000 1.0
C      1  0.5812550000000  0.5083800000000  0.4488020000000 1.0
C      1  0.4554830000000  0.5760130000000  0.4548350000000 1.0
C      1  0.4246370000000  0.4088060000000  0.4396540000000 1.0
C      1  0.4057460000000  0.5220590000000  0.4822050000000 1.0
C      1  0.5441260000000  0.4048860000000  0.4885350000000 1.0
C      1  0.5648040000000  0.5723730000000  0.4827150000000 1.0
C      1  0.4028320000000  0.5302020000000  0.5097480000000 1.0
C      1  0.5377530000000  0.3993510000000  0.5156530000000 1.0
C      1  0.5782760000000  0.5659740000000  0.5071920000000 1.0
C      1  0.4091630000000  0.4779270000000  0.5006290000000 1.0
C      1  0.5747770000000  0.4358560000000  0.5072790000000 1.0
C      1  0.5267600000000  0.5890010000000  0.5100660000000 1.0
C      1  0.4963720000000  0.6098290000000  0.5375080000000 1.0
C      1  0.4122540000000  0.4476070000000  0.5341390000000 1.0
C      1  0.5956860000000  0.4577810000000  0.5410480000000 1.0
C      1  0.4085370000000  0.5579630000000  0.3954010000000 1.0
C      1  0.5092030000000  0.3779520000000  0.4087320000000 1.0
C      1  0.5949390000000  0.5824890000000  0.3930730000000 1.0
C      1  0.5206710000000  0.5302350000000  0.4320110000000 1.0
C      1  0.4584610000000  0.4806700000000  0.4626070000000 1.0
C      1  0.5196540000000  0.4653460000000  0.4585920000000 1.0
C      1  0.4683640000000  0.5411570000000  0.5634470000000 1.0
C      1  0.4803990000000  0.4472560000000  0.5634980000000 1.0
C      1  0.5509960000000  0.5003460000000  0.5590270000000 1.0
C      1  0.5522610000000  0.4315240000000  0.5517620000000 1.0
C      1  0.5302750000000  0.5821390000000  0.5596500000000 1.0
C      1  0.4177840000000  0.4977290000000  0.5463690000000 1.0
C      1  0.5324910000000  0.4133610000000  0.4417300000000 1.0
C      1  0.5592650000000  0.5780080000000  0.4331620000000 1.0
C      1  0.4196380000000  0.5216010000000  0.4335100000000 1.0
C      1  0.4954730000000  0.4901320000000  0.4042670000000 1.0
C      1  0.4666910000000  0.4846380000000  0.4144850000000 1.0
C      1  0.5119910000000  0.4656330000000  0.4128850000000 1.0
C      1  0.5688050000000  0.4195090000000  0.4843010000000 1.0
C      1  0.5435910000000  0.5914200000000  0.4864740000000 1.0
C      1  0.4001860000000  0.4938460000000  0.4783290000000 1.0
C      1  0.4495580000000  0.4214280000000  0.5120100000000 1.0
C      1  0.5921230000000  0.5044390000000  0.5179560000000 1.0
C      1  0.4574850000000  0.5814560000000  0.5205170000000 1.0
C      1  0.4736390000000  0.4887990000000  0.5055010000000 1.0
C      1  0.5240520000000  0.4799830000000  0.5062390000000 1.0
C      1  0.5044820000000  0.5278080000000  0.4954580000000 1.0
C      1  0.5132950000000  0.5200410000000  0.5955400000000 1.0
C      1  0.4812800000000  0.4993930000000  0.5970420000000 1.0
C      1  0.5145910000000  0.4840750000000  0.5979880000000 1.0
C      1  0.4899560000000  0.4222860000000  0.5645460000000 1.0
C      1  0.5683140000000  0.5205340000000  0.5618300000000 1.0
C      1  0.4432760000000  0.5505910000000  0.5651600000000 1.0
C      1  0.5800330000000  0.4623870000000  0.4678230000000 1.0
C      1  0.4996780000000  0.5915910000000  0.4695930000000 1.0
C      1  0.4171040000000  0.4532720000000  0.4598290000000 1.0
C      1  0.4793970000000  0.5990000000000  0.5174550000000 1.0
C      1  0.4241880000000  0.4339730000000  0.5116080000000 1.0
C      1  0.5980270000000  0.4764840000000  0.5189510000000 1.0
C      1  0.5314080000000  0.5581750000000  0.6177440000000 1.0
C      1  0.4378630000000  0.4947750000000  0.6167350000000 1.0
C      1  0.5333690000000  0.4462220000000  0.6202350000000 1.0
C      1  0.5260820000000  0.4169810000000  0.4695950000000 1.0
C      1  0.5615840000000  0.5570240000000  0.4548700000000 1.0
C      1  0.4282010000000  0.5289490000000  0.4614900000000 1.0
C      1  0.4133510000000  0.5402520000000  0.4139000000000 1.0
C      1  0.5211600000000  0.3946380000000  0.4247850000000 1.0
C      1  0.5778710000000  0.5806220000000  0.4126750000000 1.0
C      1  0.5687600000000  0.4837720000000  0.4529520000000 1.0
C      1  0.4799010000000  0.5884400000000  0.4494530000000 1.0
C      1  0.4241290000000  0.4365070000000  0.4378840000000 1.0
C      1  0.4234280000000  0.4953170000000  0.6384260000000 1.0
C      1  0.5347550000000  0.4316830000000  0.6418190000000 1.0
C      1  0.5363560000000  0.5703580000000  0.6402430000000 1.0
C      1  0.5525410000000  0.4834690000000  0.5045580000000 1.0
C      1  0.4903900000000  0.5525820000000  0.5017940000000 1.0
C      1  0.4589730000000  0.4642470000000  0.4893840000000 1.0
C      1  0.4735000000000  0.4734450000000  0.4407750000000 1.0
C      1  0.4988140000000  0.4618400000000  0.4396490000000 1.0
C      1  0.5076880000000  0.5150960000000  0.4133850000000 1.0
C      1  0.5344730000000  0.5403840000000  0.4550840000000 1.0
C      1  0.4493610000000  0.5079940000000  0.4703250000000 1.0
C      1  0.5206730000000  0.4441940000000  0.4768590000000 1.0
C      1  0.5528210000000  0.4330250000000  0.4339400000000 1.0
C      1  0.5362600000000  0.5945260000000  0.4363720000000 1.0
C      1  0.4183850000000  0.4935100000000  0.4300270000000 1.0
C      1  0.4498480000000  0.5316430000000  0.5136090000000 1.0
C      1  0.4951570000000  0.4402190000000  0.5149500000000 1.0
C      1  0.5511750000000  0.5297920000000  0.4985080000000 1.0
C      1  0.5413130000000  0.4586850000000  0.4207880000000 1.0
C      1  0.5156520000000  0.5975100000000  0.4171810000000 1.0
C      1  0.4375920000000  0.4787640000000  0.4132910000000 1.0
C      1  0.5655530000000  0.5090350000000  0.5089780000000 1.0
C      1  0.4639150000000  0.5549570000000  0.5133190000000 1.0
C      1  0.4700730000000  0.4390720000000  0.5035300000000 1.0
C      1  0.5346150000000  0.4105730000000  0.5417430000000 1.0
C      1  0.5751610000000  0.5601190000000  0.5335850000000 1.0
C      1  0.4100590000000  0.5245950000000  0.5372900000000 1.0
C      1  0.4976380000000  0.4969610000000  0.5524390000000 1.0
C      1  0.5013510000000  0.4989680000000  0.5036810000000 1.0
END
