TITL C-74082-2733-203 -3.79388170076732e-07 125000 -55.2341850081807 0 0 19 (D3d) n - 1
REM
REM in /home/nfs/bkarasulu/CARBON/AIRSS/Generating-Clusters/LCBOP/Higher-Symm/SD-CG/FIRE-CG
REM
REM
REM
REM
REM
REM ./C.cell (b20cbc046b6831c77cfcea5457e17084)
REM AIRSS Version 0.9.1 bugfix July 2018 build 013d7b7c2542+ Fri, 06 Jul 2018 19:26:36 +0100
REM compiler GCC version 9.2.1 20190827 (Red Hat 9.2.1-1)
REM options -cpp -mtune=generic -march=x86-64 -g -O0 -fpre-include=/usr/include/finclude/math-vector-fortran.h
REM seed -20075310 -973419640 -2141020323 -401206887 -1210882181 2063673417 -382734003 1958791343 1302929268 -1637503702 1219737830 627075256 -647985720 2046575102 1813445376 -665649003 -688596603 -411404637 75847861 -658363542 -1590084436 480732040 1114527115 -998667621 -1288608444 1305434823 -242147051 553326454 -499985638 -440372501 76062043 929972855 -2119791976
REM
CELL 1.54180   50.00000   50.00000   50.00000   90.00000   90.00000   90.00000
LATT -1
SFAC C  
C      1  0.4822070000000  0.5574710000000  0.5000170000000 1.0
C      1  0.4822070000000  0.4748610000000  0.5477120000000 1.0
C      1  0.4822070000000  0.4748610000000  0.4523220000000 1.0
C      1  0.5164070000000  0.4473240000000  0.5000170000000 1.0
C      1  0.5164070000000  0.5299350000000  0.5477120000000 1.0
C      1  0.5164070000000  0.5299340000000  0.4523220000000 1.0
C      1  0.5463340000000  0.4915820000000  0.4812840000000 1.0
C      1  0.5463340000000  0.5240290000000  0.5000170000000 1.0
C      1  0.5463340000000  0.4915820000000  0.5187510000000 1.0
C      1  0.4522800000000  0.5132140000000  0.4812840000000 1.0
C      1  0.4522800000000  0.4807660000000  0.5000170000000 1.0
C      1  0.4522800000000  0.5132140000000  0.5187510000000 1.0
C      1  0.5201870000000  0.5157150000000  0.5230830000000 1.0
C      1  0.5201870000000  0.4757640000000  0.5000170000000 1.0
C      1  0.5201870000000  0.5157150000000  0.4769520000000 1.0
C      1  0.4784270000000  0.4890810000000  0.5230830000000 1.0
C      1  0.4784270000000  0.5290310000000  0.5000170000000 1.0
C      1  0.4784270000000  0.4890810000000  0.4769520000000 1.0
C      1  0.4993070000000  0.5023980000000  0.5000170000000 1.0
END
