TITL C-74079-2735-265 -5.64524715381894e-07 125000 -91.653761363366 0 0 16 (C1) n - 1
REM
REM in /home/nfs/bkarasulu/CARBON/AIRSS/Generating-Clusters/LCBOP/Higher-Symm/SD-CG/FIRE-CG
REM
REM
REM
REM
REM
REM ./C.cell (b20cbc046b6831c77cfcea5457e17084)
REM AIRSS Version 0.9.1 bugfix July 2018 build 013d7b7c2542+ Fri, 06 Jul 2018 19:26:36 +0100
REM compiler GCC version 9.2.1 20190827 (Red Hat 9.2.1-1)
REM options -cpp -mtune=generic -march=x86-64 -g -O0 -fpre-include=/usr/include/finclude/math-vector-fortran.h
REM seed -1439300465 2120289058 -1764522708 -243148992 -782997419 231538292 1031225883 -1334753734 1452804568 910910689 844490333 -1943496978 1860450190 -1886445860 -68314814 1657703395 -890018616 -174438686 -2045210810 -1007326453 399972797 -1192912177 -1662617773 86318344 -1473420526 -1765633483 -118548376 1494830952 1928246993 -1943862935 -1828209090 1891737752 -1802408405
REM
CELL 1.54180   50.00000   50.00000   50.00000   90.00000   90.00000   90.00000
LATT -1
SFAC C  
C      1  0.4762390000000  0.4903440000000  0.4586700000000 1.0
C      1  0.5227600000000  0.5035650000000  0.4582360000000 1.0
C      1  0.4954820000000  0.5112080000000  0.4595320000000 1.0
C      1  0.5193540000000  0.4825220000000  0.5199550000000 1.0
C      1  0.5053110000000  0.5294230000000  0.5213620000000 1.0
C      1  0.4712860000000  0.4936000000000  0.5217210000000 1.0
C      1  0.4831650000000  0.5356980000000  0.5028490000000 1.0
C      1  0.4756190000000  0.4703030000000  0.5043880000000 1.0
C      1  0.5384000000000  0.4991940000000  0.5050960000000 1.0
C      1  0.4611240000000  0.5186800000000  0.5116320000000 1.0
C      1  0.5028150000000  0.4612770000000  0.5095340000000 1.0
C      1  0.5329040000000  0.5265720000000  0.5136280000000 1.0
C      1  0.4676960000000  0.4727680000000  0.4773810000000 1.0
C      1  0.5406580000000  0.4960940000000  0.4771110000000 1.0
C      1  0.4887670000000  0.5343040000000  0.4750050000000 1.0
C      1  0.4987200000000  0.5015340000000  0.5313480000000 1.0
END
