TITL C-74083-3671-430 -1.20375118222219e-06 125000 -969.929715954483 0 0 156 (C1) n - 1
REM
REM in /home/nfs/bkarasulu/CARBON/AIRSS/Generating-Clusters/LCBOP/Higher-Symm/SD-CG/FIRE-CG
REM
REM
REM
REM
REM
REM ./C.cell (b20cbc046b6831c77cfcea5457e17084)
REM AIRSS Version 0.9.1 bugfix July 2018 build 013d7b7c2542+ Fri, 06 Jul 2018 19:26:36 +0100
REM compiler GCC version 9.2.1 20190827 (Red Hat 9.2.1-1)
REM options -cpp -mtune=generic -march=x86-64 -g -O0 -fpre-include=/usr/include/finclude/math-vector-fortran.h
REM seed -1800504457 1269879092 2053705569 147632551 751094165 -2108778817 15150733 1502773228 1165689195 427989766 -1661859044 337786877 -75077837 107344761 1531098128 538300345 -646405060 -1795859103 199127801 -167662414 -2006461931 -1133693600 -320428822 1609424336 1587745124 -432989923 1324403807 2076508975 -377008478 554976831 -1736192443 88697277 135651032
REM
CELL 1.54180   50.00000   50.00000   50.00000   90.00000   90.00000   90.00000
LATT -1
SFAC C  
C      1  0.5560630000000  0.4191470000000  0.5733650000000 1.0
C      1  0.4345590000000  0.4213990000000  0.4187310000000 1.0
C      1  0.5589150000000  0.5787570000000  0.5718070000000 1.0
C      1  0.4339090000000  0.5787790000000  0.4184390000000 1.0
C      1  0.6263320000000  0.4659750000000  0.5118340000000 1.0
C      1  0.3723090000000  0.4668720000000  0.4917420000000 1.0
C      1  0.6248580000000  0.5322820000000  0.5135680000000 1.0
C      1  0.3730880000000  0.5317030000000  0.4928030000000 1.0
C      1  0.5918960000000  0.5489000000000  0.4804220000000 1.0
C      1  0.4147600000000  0.5457470000000  0.5158960000000 1.0
C      1  0.5920600000000  0.4504670000000  0.4796870000000 1.0
C      1  0.4134360000000  0.4521750000000  0.5154610000000 1.0
C      1  0.5796480000000  0.4647910000000  0.5285970000000 1.0
C      1  0.4156410000000  0.4677090000000  0.4675750000000 1.0
C      1  0.5773180000000  0.5325360000000  0.5289570000000 1.0
C      1  0.4156930000000  0.5322270000000  0.4675580000000 1.0
C      1  0.4959820000000  0.4223420000000  0.5361600000000 1.0
C      1  0.5065930000000  0.4250580000000  0.4902900000000 1.0
C      1  0.4957630000000  0.5827000000000  0.5368740000000 1.0
C      1  0.5061380000000  0.5750540000000  0.4906860000000 1.0
C      1  0.5746000000000  0.4447700000000  0.4318670000000 1.0
C      1  0.4281090000000  0.4398290000000  0.5623320000000 1.0
C      1  0.5748720000000  0.5552840000000  0.4321520000000 1.0
C      1  0.4277160000000  0.5600220000000  0.5626020000000 1.0
C      1  0.5219330000000  0.5538950000000  0.5949990000000 1.0
C      1  0.4767850000000  0.5562880000000  0.4142550000000 1.0
C      1  0.5212130000000  0.4473560000000  0.5933020000000 1.0
C      1  0.4771340000000  0.4443220000000  0.4142620000000 1.0
C      1  0.5854910000000  0.4855020000000  0.6005440000000 1.0
C      1  0.4274680000000  0.4865870000000  0.3944310000000 1.0
C      1  0.5853920000000  0.5133600000000  0.6014990000000 1.0
C      1  0.4274300000000  0.5135260000000  0.3944430000000 1.0
C      1  0.5506600000000  0.5559330000000  0.5855910000000 1.0
C      1  0.4471590000000  0.5538950000000  0.4142470000000 1.0
C      1  0.5499120000000  0.4441020000000  0.5849090000000 1.0
C      1  0.4474960000000  0.4463960000000  0.4142590000000 1.0
C      1  0.5523670000000  0.5845370000000  0.4811590000000 1.0
C      1  0.4573830000000  0.5768130000000  0.5102560000000 1.0
C      1  0.5527340000000  0.4159640000000  0.4812540000000 1.0
C      1  0.4575550000000  0.4224640000000  0.5099560000000 1.0
C      1  0.5607380000000  0.4604800000000  0.4119670000000 1.0
C      1  0.4454930000000  0.4515780000000  0.5836640000000 1.0
C      1  0.5610920000000  0.5395790000000  0.4121120000000 1.0
C      1  0.4464570000000  0.5489810000000  0.5836030000000 1.0
C      1  0.5234940000000  0.4617580000000  0.4631800000000 1.0
C      1  0.4777060000000  0.4651340000000  0.5457150000000 1.0
C      1  0.5233630000000  0.5388510000000  0.4629440000000 1.0
C      1  0.4815660000000  0.5392890000000  0.5457250000000 1.0
C      1  0.4095680000000  0.4581380000000  0.5451990000000 1.0
C      1  0.5942550000000  0.4591740000000  0.4509130000000 1.0
C      1  0.4095850000000  0.5407980000000  0.5455410000000 1.0
C      1  0.5945000000000  0.5405870000000  0.4513800000000 1.0
C      1  0.4468430000000  0.5997800000000  0.5250250000000 1.0
C      1  0.5464630000000  0.5976270000000  0.4563800000000 1.0
C      1  0.4487400000000  0.3997560000000  0.5261030000000 1.0
C      1  0.5471320000000  0.4025060000000  0.4566360000000 1.0
C      1  0.5233360000000  0.6153930000000  0.4593570000000 1.0
C      1  0.4609170000000  0.6221460000000  0.5116090000000 1.0
C      1  0.5245330000000  0.3842300000000  0.4599020000000 1.0
C      1  0.4636890000000  0.3775260000000  0.5136700000000 1.0
C      1  0.5980080000000  0.5383650000000  0.5076490000000 1.0
C      1  0.4006210000000  0.5363860000000  0.4921210000000 1.0
C      1  0.5994000000000  0.4597730000000  0.5067190000000 1.0
C      1  0.3998560000000  0.4621570000000  0.4915020000000 1.0
C      1  0.5654030000000  0.4405950000000  0.4796410000000 1.0
C      1  0.4421090000000  0.4453910000000  0.5141450000000 1.0
C      1  0.5656170000000  0.5601380000000  0.4795830000000 1.0
C      1  0.4432800000000  0.5531080000000  0.5154770000000 1.0
C      1  0.5801930000000  0.4832110000000  0.5522820000000 1.0
C      1  0.4175280000000  0.4844620000000  0.4427820000000 1.0
C      1  0.5768360000000  0.5141710000000  0.5523070000000 1.0
C      1  0.4175550000000  0.5155310000000  0.4428260000000 1.0
C      1  0.3538580000000  0.4861230000000  0.4924650000000 1.0
C      1  0.6434150000000  0.4860630000000  0.5157460000000 1.0
C      1  0.3542360000000  0.5128450000000  0.4929610000000 1.0
C      1  0.6427220000000  0.5127360000000  0.5165470000000 1.0
C      1  0.5329380000000  0.4173650000000  0.5012270000000 1.0
C      1  0.4860750000000  0.4235800000000  0.5094580000000 1.0
C      1  0.5325920000000  0.5823300000000  0.5010480000000 1.0
C      1  0.4859380000000  0.5779480000000  0.5100920000000 1.0
C      1  0.4005730000000  0.4855390000000  0.5524920000000 1.0
C      1  0.6027450000000  0.4862890000000  0.4454760000000 1.0
C      1  0.4003660000000  0.5134010000000  0.5527310000000 1.0
C      1  0.6029490000000  0.5134730000000  0.4456450000000 1.0
C      1  0.5331130000000  0.4890670000000  0.5839910000000 1.0
C      1  0.4920180000000  0.4788820000000  0.4359040000000 1.0
C      1  0.5401890000000  0.5125000000000  0.5959090000000 1.0
C      1  0.4921640000000  0.5219040000000  0.4358290000000 1.0
C      1  0.4618570000000  0.4723910000000  0.4716820000000 1.0
C      1  0.5326680000000  0.4713780000000  0.5335390000000 1.0
C      1  0.4618170000000  0.5293580000000  0.4715610000000 1.0
C      1  0.5302780000000  0.5257430000000  0.5233570000000 1.0
C      1  0.5143790000000  0.4849890000000  0.3966110000000 1.0
C      1  0.4881250000000  0.4847980000000  0.6035620000000 1.0
C      1  0.5144250000000  0.5156860000000  0.3965980000000 1.0
C      1  0.4888810000000  0.5161300000000  0.6046560000000 1.0
C      1  0.5204210000000  0.5077540000000  0.5038540000000 1.0
C      1  0.4700190000000  0.5146400000000  0.4940610000000 1.0
C      1  0.5188590000000  0.4814930000000  0.5108090000000 1.0
C      1  0.4704040000000  0.4875260000000  0.4937730000000 1.0
C      1  0.4929450000000  0.4688920000000  0.4094590000000 1.0
C      1  0.5161960000000  0.4744370000000  0.6006930000000 1.0
C      1  0.4929630000000  0.5319140000000  0.4093730000000 1.0
C      1  0.5176940000000  0.5269760000000  0.6061990000000 1.0
C      1  0.4318360000000  0.5892480000000  0.4432900000000 1.0
C      1  0.5532790000000  0.5869170000000  0.5468970000000 1.0
C      1  0.4331240000000  0.4112350000000  0.4437570000000 1.0
C      1  0.5509700000000  0.4096820000000  0.5486380000000 1.0
C      1  0.5602390000000  0.5131660000000  0.4775650000000 1.0
C      1  0.4442120000000  0.5129210000000  0.5389100000000 1.0
C      1  0.5596780000000  0.4872770000000  0.4801850000000 1.0
C      1  0.4413500000000  0.4888800000000  0.5295810000000 1.0
C      1  0.4338510000000  0.5873130000000  0.5493360000000 1.0
C      1  0.5624440000000  0.5821830000000  0.4367010000000 1.0
C      1  0.4353590000000  0.4125730000000  0.5499380000000 1.0
C      1  0.5625120000000  0.4178710000000  0.4365970000000 1.0
C      1  0.4556120000000  0.4652960000000  0.5287010000000 1.0
C      1  0.5483110000000  0.4625830000000  0.4752940000000 1.0
C      1  0.4574280000000  0.5361530000000  0.5329200000000 1.0
C      1  0.5487090000000  0.5380460000000  0.4738180000000 1.0
C      1  0.4682190000000  0.4864000000000  0.4481810000000 1.0
C      1  0.5321070000000  0.4893670000000  0.5558350000000 1.0
C      1  0.4682120000000  0.5149800000000  0.4482610000000 1.0
C      1  0.5216970000000  0.5147210000000  0.5477640000000 1.0
C      1  0.5448750000000  0.4252770000000  0.5261040000000 1.0
C      1  0.4398040000000  0.4261490000000  0.4651680000000 1.0
C      1  0.5442780000000  0.5720700000000  0.5249860000000 1.0
C      1  0.4382350000000  0.5748170000000  0.4651160000000 1.0
C      1  0.4403100000000  0.5471290000000  0.4694990000000 1.0
C      1  0.5511340000000  0.5442820000000  0.5246300000000 1.0
C      1  0.4409330000000  0.4539070000000  0.4696460000000 1.0
C      1  0.5531560000000  0.4526660000000  0.5283770000000 1.0
C      1  0.5743010000000  0.4694810000000  0.5791330000000 1.0
C      1  0.4303160000000  0.4705980000000  0.4179380000000 1.0
C      1  0.5644480000000  0.5273360000000  0.5848580000000 1.0
C      1  0.4302070000000  0.5295130000000  0.4179610000000 1.0
C      1  0.5058220000000  0.4384500000000  0.4641300000000 1.0
C      1  0.4904760000000  0.4415040000000  0.5551850000000 1.0
C      1  0.5052970000000  0.5618580000000  0.4643850000000 1.0
C      1  0.4920390000000  0.5634120000000  0.5565200000000 1.0
C      1  0.5151700000000  0.4856730000000  0.4507770000000 1.0
C      1  0.4832060000000  0.4905410000000  0.5560680000000 1.0
C      1  0.5151340000000  0.5147420000000  0.4506690000000 1.0
C      1  0.4944390000000  0.5156630000000  0.5523510000000 1.0
C      1  0.4904010000000  0.4320580000000  0.4393950000000 1.0
C      1  0.4943560000000  0.4406420000000  0.5834220000000 1.0
C      1  0.4898310000000  0.5684420000000  0.4396460000000 1.0
C      1  0.4954690000000  0.5604810000000  0.5846050000000 1.0
C      1  0.4807730000000  0.6267470000000  0.4925310000000 1.0
C      1  0.5015340000000  0.6239390000000  0.4743680000000 1.0
C      1  0.4832210000000  0.3728150000000  0.4943870000000 1.0
C      1  0.5033030000000  0.3755260000000  0.4755410000000 1.0
C      1  0.5405880000000  0.5280160000000  0.3988210000000 1.0
C      1  0.4732440000000  0.5416910000000  0.5945560000000 1.0
C      1  0.5404560000000  0.4724840000000  0.3987360000000 1.0
C      1  0.4720280000000  0.4590640000000  0.5945820000000 1.0
END
