TITL C-74085-4933-19 -0.000270371078551 125000 -492.492129392266 0 0 81 (C1) n - 1
REM
REM in /home/nfs/bkarasulu/CARBON/AIRSS/Generating-Clusters/LCBOP/Higher-Symm/SD-CG/FIRE-CG
REM
REM
REM
REM
REM
REM ./C.cell (b20cbc046b6831c77cfcea5457e17084)
REM AIRSS Version 0.9.1 bugfix July 2018 build 013d7b7c2542+ Fri, 06 Jul 2018 19:26:36 +0100
REM compiler GCC version 9.2.1 20190827 (Red Hat 9.2.1-1)
REM options -cpp -mtune=generic -march=x86-64 -g -O0 -fpre-include=/usr/include/finclude/math-vector-fortran.h
REM seed -1899342341 -805118904 -1681054236 934321477 541225380 2106113600 936945444 -1807871836 932133160 71868392 -1248270983 -1025302281 104616416 -824651978 789666141 -1284670958 2123447793 -1966356998 1142438478 -1482975780 982263717 -1808220689 -533756773 -672975614 1086582638 -1052700039 -635450877 -1652793582 1102582918 -325291606 -890169431 1474971346 1600174421
REM
CELL 1.54180   50.00000   50.00000   50.00000   90.00000   90.00000   90.00000
LATT -1
SFAC C  
C      1  0.4871650000000  0.5215380000000  0.5295740000000 1.0
C      1  0.5174600000000  0.5238910000000  0.5241540000000 1.0
C      1  0.5124830000000  0.5265490000000  0.4919740000000 1.0
C      1  0.4805390000000  0.5251050000000  0.4995570000000 1.0
C      1  0.4728210000000  0.4669110000000  0.4923580000000 1.0
C      1  0.5290400000000  0.4699210000000  0.4993850000000 1.0
C      1  0.5232860000000  0.4699770000000  0.5501590000000 1.0
C      1  0.4607590000000  0.4685190000000  0.5164600000000 1.0
C      1  0.4805570000000  0.4122630000000  0.5407390000000 1.0
C      1  0.5493880000000  0.4162660000000  0.5128860000000 1.0
C      1  0.5203880000000  0.4282520000000  0.4447460000000 1.0
C      1  0.4507190000000  0.4233730000000  0.4723120000000 1.0
C      1  0.4782380000000  0.5724940000000  0.4473690000000 1.0
C      1  0.5483450000000  0.5759070000000  0.4733170000000 1.0
C      1  0.5216130000000  0.5867680000000  0.5429570000000 1.0
C      1  0.4518490000000  0.5836430000000  0.5162820000000 1.0
C      1  0.5843470000000  0.5104930000000  0.4701710000000 1.0
C      1  0.4710530000000  0.5022940000000  0.4241610000000 1.0
C      1  0.4123590000000  0.5219110000000  0.5337940000000 1.0
C      1  0.5283570000000  0.5318800000000  0.5948340000000 1.0
C      1  0.5800700000000  0.4848090000000  0.5270530000000 1.0
C      1  0.4774620000000  0.4731310000000  0.5854600000000 1.0
C      1  0.4178440000000  0.4919760000000  0.4752720000000 1.0
C      1  0.5274400000000  0.4984780000000  0.4235960000000 1.0
C      1  0.4714320000000  0.5284250000000  0.4186060000000 1.0
C      1  0.4142880000000  0.5479700000000  0.5285310000000 1.0
C      1  0.5265420000000  0.5574280000000  0.5873730000000 1.0
C      1  0.5846940000000  0.5372200000000  0.4699990000000 1.0
C      1  0.4777430000000  0.4467140000000  0.5814570000000 1.0
C      1  0.4170780000000  0.4651670000000  0.4730120000000 1.0
C      1  0.5267950000000  0.4726750000000  0.4167000000000 1.0
C      1  0.5811140000000  0.4582770000000  0.5230870000000 1.0
C      1  0.5044660000000  0.3991670000000  0.5316940000000 1.0
C      1  0.5414310000000  0.4072740000000  0.4867080000000 1.0
C      1  0.4961470000000  0.4138030000000  0.4499090000000 1.0
C      1  0.4587990000000  0.4061450000000  0.4940660000000 1.0
C      1  0.5027800000000  0.5864930000000  0.4522570000000 1.0
C      1  0.5412330000000  0.5924920000000  0.4956080000000 1.0
C      1  0.4973760000000  0.5993230000000  0.5343160000000 1.0
C      1  0.4589310000000  0.5930350000000  0.4901740000000 1.0
C      1  0.4788030000000  0.4255910000000  0.5652340000000 1.0
C      1  0.5704910000000  0.4342840000000  0.5176000000000 1.0
C      1  0.5232100000000  0.4475380000000  0.4247870000000 1.0
C      1  0.4287140000000  0.4409700000000  0.4726680000000 1.0
C      1  0.4748720000000  0.5533690000000  0.4273280000000 1.0
C      1  0.5714130000000  0.5602400000000  0.4720580000000 1.0
C      1  0.5247020000000  0.5761510000000  0.5685540000000 1.0
C      1  0.4285020000000  0.5694070000000  0.5217290000000 1.0
C      1  0.5223770000000  0.6131350000000  0.4902520000000 1.0
C      1  0.5011170000000  0.6098230000000  0.4685350000000 1.0
C      1  0.4784430000000  0.6136510000000  0.4886190000000 1.0
C      1  0.4995890000000  0.6178280000000  0.5132510000000 1.0
C      1  0.5219930000000  0.3864720000000  0.4852530000000 1.0
C      1  0.5014530000000  0.3813250000000  0.5101640000000 1.0
C      1  0.4780550000000  0.3860810000000  0.4877330000000 1.0
C      1  0.4988010000000  0.3902550000000  0.4656870000000 1.0
C      1  0.4345760000000  0.5128750000000  0.4796420000000 1.0
C      1  0.4769330000000  0.4968460000000  0.5728850000000 1.0
C      1  0.5652060000000  0.5071550000000  0.5298670000000 1.0
C      1  0.5246520000000  0.5144080000000  0.4449710000000 1.0
C      1  0.4255150000000  0.4986970000000  0.5352220000000 1.0
C      1  0.4739130000000  0.4849850000000  0.4444370000000 1.0
C      1  0.5677040000000  0.4898900000000  0.4746110000000 1.0
C      1  0.5299450000000  0.5068610000000  0.5854370000000 1.0
C      1  0.4717570000000  0.5874950000000  0.5362650000000 1.0
C      1  0.5415930000000  0.5843790000000  0.5227610000000 1.0
C      1  0.5284410000000  0.5745280000000  0.4528950000000 1.0
C      1  0.4578220000000  0.5772190000000  0.4667090000000 1.0
C      1  0.4700600000000  0.4248960000000  0.4511900000000 1.0
C      1  0.5414200000000  0.4235280000000  0.4634840000000 1.0
C      1  0.5306850000000  0.4098820000000  0.5335930000000 1.0
C      1  0.4594370000000  0.4133940000000  0.5215020000000 1.0
C      1  0.4627100000000  0.5117870000000  0.4826380000000 1.0
C      1  0.4720160000000  0.5046900000000  0.5463770000000 1.0
C      1  0.5388660000000  0.5126770000000  0.5384910000000 1.0
C      1  0.5251570000000  0.5110900000000  0.4728410000000 1.0
C      1  0.4516800000000  0.4888770000000  0.5335900000000 1.0
C      1  0.4727750000000  0.4866180000000  0.4723220000000 1.0
C      1  0.5404680000000  0.4884680000000  0.4817280000000 1.0
C      1  0.5308100000000  0.4952440000000  0.5600740000000 1.0
C      1  0.5217500000000  0.4627720000000  0.5241860000000 1.0
END
