TITL C-74085-4933-194 -0.0365749000844172 125000 -986.491102787465 0 0 164 (C1) n - 1
REM
REM in /home/nfs/bkarasulu/CARBON/AIRSS/Generating-Clusters/LCBOP/Higher-Symm/SD-CG/FIRE-CG
REM
REM
REM
REM
REM
REM ./C.cell (b20cbc046b6831c77cfcea5457e17084)
REM AIRSS Version 0.9.1 bugfix July 2018 build 013d7b7c2542+ Fri, 06 Jul 2018 19:26:36 +0100
REM compiler GCC version 9.2.1 20190827 (Red Hat 9.2.1-1)
REM options -cpp -mtune=generic -march=x86-64 -g -O0 -fpre-include=/usr/include/finclude/math-vector-fortran.h
REM seed -1262477288 -2121996874 -1429271423 545665002 -350124095 2121207314 -158134369 325408314 398004638 -149356329 -871831960 -1361737315 2083952783 1613435310 417034260 -982660211 -1203218533 47808969 -1515830206 -1396830176 2092943401 1551513991 329279311 -2104181978 -1228066289 278527619 1596712726 -529071708 -1536070071 -1485523403 1343821300 -792127660 -1246547355
REM
CELL 1.54180   50.00000   50.00000   50.00000   90.00000   90.00000   90.00000
LATT -1
SFAC C  
C      1  0.5650290000000  0.5250910000000  0.5770500000000 1.0
C      1  0.4636910000000  0.4840370000000  0.5894780000000 1.0
C      1  0.3970420000000  0.5136900000000  0.5160480000000 1.0
C      1  0.4325910000000  0.4706320000000  0.4245650000000 1.0
C      1  0.5308930000000  0.5237050000000  0.4094420000000 1.0
C      1  0.5993250000000  0.4814270000000  0.4865430000000 1.0
C      1  0.4665420000000  0.4862130000000  0.5409200000000 1.0
C      1  0.4369990000000  0.5065840000000  0.4923500000000 1.0
C      1  0.4731600000000  0.4778720000000  0.4439190000000 1.0
C      1  0.5332410000000  0.5125400000000  0.4545670000000 1.0
C      1  0.5599270000000  0.4917240000000  0.5104330000000 1.0
C      1  0.5241140000000  0.5203510000000  0.5547250000000 1.0
C      1  0.4016770000000  0.5654750000000  0.4956220000000 1.0
C      1  0.4271410000000  0.4029840000000  0.4133970000000 1.0
C      1  0.5289150000000  0.6014250000000  0.4315230000000 1.0
C      1  0.5827510000000  0.4082390000000  0.4949740000000 1.0
C      1  0.6050030000000  0.6181810000000  0.5652840000000 1.0
C      1  0.4605550000000  0.4099250000000  0.5784020000000 1.0
C      1  0.5911220000000  0.5213690000000  0.5654470000000 1.0
C      1  0.4853480000000  0.4869390000000  0.6078770000000 1.0
C      1  0.3914590000000  0.5088930000000  0.5431370000000 1.0
C      1  0.4075590000000  0.4752460000000  0.4373130000000 1.0
C      1  0.5077100000000  0.5167040000000  0.3943950000000 1.0
C      1  0.6008400000000  0.4868880000000  0.4584670000000 1.0
C      1  0.4032620000000  0.4042580000000  0.4278870000000 1.0
C      1  0.5172070000000  0.5891380000000  0.4083880000000 1.0
C      1  0.5989180000000  0.4161220000000  0.4727540000000 1.0
C      1  0.5945630000000  0.6058300000000  0.5418480000000 1.0
C      1  0.4890290000000  0.4055130000000  0.5793940000000 1.0
C      1  0.4031960000000  0.5809240000000  0.5199800000000 1.0
C      1  0.4964930000000  0.5567230000000  0.5422730000000 1.0
C      1  0.4634960000000  0.4437680000000  0.5161480000000 1.0
C      1  0.4793890000000  0.5269240000000  0.4863400000000 1.0
C      1  0.5014860000000  0.4581150000000  0.4751840000000 1.0
C      1  0.5338000000000  0.5539930000000  0.4761110000000 1.0
C      1  0.5228770000000  0.4638930000000  0.5165740000000 1.0
C      1  0.4743150000000  0.4094510000000  0.3904870000000 1.0
C      1  0.5479180000000  0.6012620000000  0.4823650000000 1.0
C      1  0.5368920000000  0.4123340000000  0.5245150000000 1.0
C      1  0.5895660000000  0.6611600000000  0.5545340000000 1.0
C      1  0.4545960000000  0.4001540000000  0.5304190000000 1.0
C      1  0.4505480000000  0.5705050000000  0.4854230000000 1.0
C      1  0.3805730000000  0.5066310000000  0.4935900000000 1.0
C      1  0.4430710000000  0.4835830000000  0.4002690000000 1.0
C      1  0.5589470000000  0.5162240000000  0.4057710000000 1.0
C      1  0.6170880000000  0.4846920000000  0.5091990000000 1.0
C      1  0.5524350000000  0.5161550000000  0.6024110000000 1.0
C      1  0.4350110000000  0.4880600000000  0.5927510000000 1.0
C      1  0.5153680000000  0.4337850000000  0.4731040000000 1.0
C      1  0.5432100000000  0.5746230000000  0.4920370000000 1.0
C      1  0.5252800000000  0.4384050000000  0.5287270000000 1.0
C      1  0.4749770000000  0.5720110000000  0.5405870000000 1.0
C      1  0.4540840000000  0.4185240000000  0.5082290000000 1.0
C      1  0.4753620000000  0.5558570000000  0.4800070000000 1.0
C      1  0.3805510000000  0.4801070000000  0.4833330000000 1.0
C      1  0.4536990000000  0.5106270000000  0.3983230000000 1.0
C      1  0.5704160000000  0.4905830000000  0.4129370000000 1.0
C      1  0.6218240000000  0.5097530000000  0.5223400000000 1.0
C      1  0.5392770000000  0.4908770000000  0.6098050000000 1.0
C      1  0.4192400000000  0.5117430000000  0.5878860000000 1.0
C      1  0.5429490000000  0.5268000000000  0.4774880000000 1.0
C      1  0.5406500000000  0.4823300000000  0.5279510000000 1.0
C      1  0.4992660000000  0.5293100000000  0.5460830000000 1.0
C      1  0.4559700000000  0.4701050000000  0.5201520000000 1.0
C      1  0.4563550000000  0.5146480000000  0.4740810000000 1.0
C      1  0.4994250000000  0.4726180000000  0.4512890000000 1.0
C      1  0.4517390000000  0.4358860000000  0.4599250000000 1.0
C      1  0.5165160000000  0.5551450000000  0.4532250000000 1.0
C      1  0.5587820000000  0.4518350000000  0.4833920000000 1.0
C      1  0.5505570000000  0.5572400000000  0.5394850000000 1.0
C      1  0.4940460000000  0.4549820000000  0.5626230000000 1.0
C      1  0.4382660000000  0.5412040000000  0.5274900000000 1.0
C      1  0.3777020000000  0.4339550000000  0.4898650000000 1.0
C      1  0.4479530000000  0.5569160000000  0.4053320000000 1.0
C      1  0.5684580000000  0.4438480000000  0.4082900000000 1.0
C      1  0.6294860000000  0.5529410000000  0.5103750000000 1.0
C      1  0.5462590000000  0.4447490000000  0.6155500000000 1.0
C      1  0.4105840000000  0.5573880000000  0.5944620000000 1.0
C      1  0.5296090000000  0.5917200000000  0.3840960000000 1.0
C      1  0.6260380000000  0.4128320000000  0.4733150000000 1.0
C      1  0.5788890000000  0.6236090000000  0.5235270000000 1.0
C      1  0.4986320000000  0.3910680000000  0.5542190000000 1.0
C      1  0.4239990000000  0.6011370000000  0.5140810000000 1.0
C      1  0.3805210000000  0.3928530000000  0.4177830000000 1.0
C      1  0.5319940000000  0.4940120000000  0.5513310000000 1.0
C      1  0.4783230000000  0.5116400000000  0.5397900000000 1.0
C      1  0.4386980000000  0.4802290000000  0.5009580000000 1.0
C      1  0.4621720000000  0.5031510000000  0.4495280000000 1.0
C      1  0.5224480000000  0.4879380000000  0.4471600000000 1.0
C      1  0.5570080000000  0.5166840000000  0.4988220000000 1.0
C      1  0.5302810000000  0.4260280000000  0.5758730000000 1.0
C      1  0.4302930000000  0.5785210000000  0.5578440000000 1.0
C      1  0.4162720000000  0.4086350000000  0.4778070000000 1.0
C      1  0.4777840000000  0.5777050000000  0.4356440000000 1.0
C      1  0.5569230000000  0.4206660000000  0.4477650000000 1.0
C      1  0.5860260000000  0.5713140000000  0.5106950000000 1.0
C      1  0.4444250000000  0.4084570000000  0.5562050000000 1.0
C      1  0.4237620000000  0.5606730000000  0.4797190000000 1.0
C      1  0.4505950000000  0.4043430000000  0.4011570000000 1.0
C      1  0.5392850000000  0.6069350000000  0.4558640000000 1.0
C      1  0.5612910000000  0.4072410000000  0.5112120000000 1.0
C      1  0.6028910000000  0.6445640000000  0.5714780000000 1.0
C      1  0.4237190000000  0.5229680000000  0.5110650000000 1.0
C      1  0.4529330000000  0.4577040000000  0.4413500000000 1.0
C      1  0.5250750000000  0.5334820000000  0.4355810000000 1.0
C      1  0.5734210000000  0.4728430000000  0.4945010000000 1.0
C      1  0.5461450000000  0.5374720000000  0.5589730000000 1.0
C      1  0.4726190000000  0.4727260000000  0.5648120000000 1.0
C      1  0.5155250000000  0.4463970000000  0.6139090000000 1.0
C      1  0.3961940000000  0.5504660000000  0.5683260000000 1.0
C      1  0.3856700000000  0.4388550000000  0.4613230000000 1.0
C      1  0.4766360000000  0.5538910000000  0.3965100000000 1.0
C      1  0.5886500000000  0.4487500000000  0.4301590000000 1.0
C      1  0.6175540000000  0.5556100000000  0.5385390000000 1.0
C      1  0.5784670000000  0.6510500000000  0.5318700000000 1.0
C      1  0.4776490000000  0.3841490000000  0.5354840000000 1.0
C      1  0.4470260000000  0.5953400000000  0.4998280000000 1.0
C      1  0.4970260000000  0.4167260000000  0.3799560000000 1.0
C      1  0.5640030000000  0.6170890000000  0.4999580000000 1.0
C      1  0.5241430000000  0.3926720000000  0.5412430000000 1.0
C      1  0.4425010000000  0.4686810000000  0.3770390000000 1.0
C      1  0.5757150000000  0.5350990000000  0.3947350000000 1.0
C      1  0.6300770000000  0.4624060000000  0.5187400000000 1.0
C      1  0.5529280000000  0.5351890000000  0.6226680000000 1.0
C      1  0.4209360000000  0.4660090000000  0.6017450000000 1.0
C      1  0.3636150000000  0.5251560000000  0.4826150000000 1.0
C      1  0.5575990000000  0.4703930000000  0.6201770000000 1.0
C      1  0.4196580000000  0.5334910000000  0.6073100000000 1.0
C      1  0.3705940000000  0.4590760000000  0.5010300000000 1.0
C      1  0.4342270000000  0.5322980000000  0.4020230000000 1.0
C      1  0.5620000000000  0.4683730000000  0.3957010000000 1.0
C      1  0.6400660000000  0.5268840000000  0.5070780000000 1.0
C      1  0.4502000000000  0.5741130000000  0.4282030000000 1.0
C      1  0.5508090000000  0.4243840000000  0.4199360000000 1.0
C      1  0.6076590000000  0.5628950000000  0.4939930000000 1.0
C      1  0.5533420000000  0.4300670000000  0.5917480000000 1.0
C      1  0.4290140000000  0.5779280000000  0.5862320000000 1.0
C      1  0.3958750000000  0.4132470000000  0.4980710000000 1.0
C      1  0.5994320000000  0.5786740000000  0.5357180000000 1.0
C      1  0.5075560000000  0.4229960000000  0.5951730000000 1.0
C      1  0.4031920000000  0.5708810000000  0.5474170000000 1.0
C      1  0.4026840000000  0.4170990000000  0.4528040000000 1.0
C      1  0.4929690000000  0.5742430000000  0.4104030000000 1.0
C      1  0.5859520000000  0.4273010000000  0.4500330000000 1.0
C      1  0.5118540000000  0.4766910000000  0.6111390000000 1.0
C      1  0.4007600000000  0.5212110000000  0.5664690000000 1.0
C      1  0.3901220000000  0.4675750000000  0.4581600000000 1.0
C      1  0.4804060000000  0.5245660000000  0.3939750000000 1.0
C      1  0.5887180000000  0.4782810000000  0.4340340000000 1.0
C      1  0.6101390000000  0.5268650000000  0.5446420000000 1.0
C      1  0.4270850000000  0.5313640000000  0.6333570000000 1.0
C      1  0.3558790000000  0.4625890000000  0.5235870000000 1.0
C      1  0.4071880000000  0.5294510000000  0.4017020000000 1.0
C      1  0.5504820000000  0.4708360000000  0.3712000000000 1.0
C      1  0.6623020000000  0.5194760000000  0.4935120000000 1.0
C      1  0.5812950000000  0.4751760000000  0.6325990000000 1.0
C      1  0.5586290000000  0.5671490000000  0.5143730000000 1.0
C      1  0.5174910000000  0.4411610000000  0.5556280000000 1.0
C      1  0.4485470000000  0.5638710000000  0.5418150000000 1.0
C      1  0.4428270000000  0.4182790000000  0.4814040000000 1.0
C      1  0.4904490000000  0.5653460000000  0.4575720000000 1.0
C      1  0.5430020000000  0.4329530000000  0.4689650000000 1.0
C      1  0.5048450000000  0.4754030000000  0.4977050000000 1.0
C      1  0.4969170000000  0.5043870000000  0.4955510000000 1.0
END
