TITL C-74080-5790-380 -7.57619906206144e-07 125000 -1221.78736482218 0 0 200 (C1) n - 1
REM
REM in /home/nfs/bkarasulu/CARBON/AIRSS/Generating-Clusters/LCBOP/Higher-Symm/SD-CG/FIRE-CG
REM
REM
REM
REM
REM
REM ./C.cell (b20cbc046b6831c77cfcea5457e17084)
REM AIRSS Version 0.9.1 bugfix July 2018 build 013d7b7c2542+ Fri, 06 Jul 2018 19:26:36 +0100
REM compiler GCC version 9.2.1 20190827 (Red Hat 9.2.1-1)
REM options -cpp -mtune=generic -march=x86-64 -g -O0 -fpre-include=/usr/include/finclude/math-vector-fortran.h
REM seed 1453107633 -1445037162 1397781126 276919065 -319085721 1457284480 -1168555757 -2002790463 1078110906 1233935257 977259925 1255272053 -186774824 -1577748767 -244730520 -427236247 1111492568 -311698663 -1138773000 -2129665520 -1595146916 -295345765 -210450631 1528247686 1484665999 620844905 1793160589 791816002 -865223914 1883211292 -1039549123 -2063286675 470382611
REM
CELL 1.54180   50.00000   50.00000   50.00000   90.00000   90.00000   90.00000
LATT -1
SFAC C  
C      1  0.5187290000000  0.4864190000000  0.4435040000000 1.0
C      1  0.5236670000000  0.5032210000000  0.5552890000000 1.0
C      1  0.5179480000000  0.5146630000000  0.4434260000000 1.0
C      1  0.5057750000000  0.5247370000000  0.5558530000000 1.0
C      1  0.4908430000000  0.5225340000000  0.4444650000000 1.0
C      1  0.4796340000000  0.5147650000000  0.5555050000000 1.0
C      1  0.4748570000000  0.4991360000000  0.4451710000000 1.0
C      1  0.4813780000000  0.4865680000000  0.5549450000000 1.0
C      1  0.4921250000000  0.4768910000000  0.4445200000000 1.0
C      1  0.5087020000000  0.4791520000000  0.5544650000000 1.0
C      1  0.3936950000000  0.5016540000000  0.5568130000000 1.0
C      1  0.4182040000000  0.4429190000000  0.4232600000000 1.0
C      1  0.4672410000000  0.4002730000000  0.5554140000000 1.0
C      1  0.5316880000000  0.3984180000000  0.4448200000000 1.0
C      1  0.5815950000000  0.4350910000000  0.5872640000000 1.0
C      1  0.6060070000000  0.4982940000000  0.4439720000000 1.0
C      1  0.5887020000000  0.5550130000000  0.5854430000000 1.0
C      1  0.5339530000000  0.6007150000000  0.4437530000000 1.0
C      1  0.4685830000000  0.6027660000000  0.5546820000000 1.0
C      1  0.4136680000000  0.5628500000000  0.4440560000000 1.0
C      1  0.5295550000000  0.5839170000000  0.4942240000000 1.0
C      1  0.4743170000000  0.5864950000000  0.5036130000000 1.0
C      1  0.4284480000000  0.5549030000000  0.4953360000000 1.0
C      1  0.4101670000000  0.5031450000000  0.5057550000000 1.0
C      1  0.4272990000000  0.4511470000000  0.4974800000000 1.0
C      1  0.4698310000000  0.4167920000000  0.5044100000000 1.0
C      1  0.5246860000000  0.4152650000000  0.4948010000000 1.0
C      1  0.5677610000000  0.4481520000000  0.5030210000000 1.0
C      1  0.5875420000000  0.4975460000000  0.4938370000000 1.0
C      1  0.5709340000000  0.5488810000000  0.5022620000000 1.0
C      1  0.4452000000000  0.5952290000000  0.4646750000000 1.0
C      1  0.4001280000000  0.5459930000000  0.5352320000000 1.0
C      1  0.3926350000000  0.4773590000000  0.4670940000000 1.0
C      1  0.4265440000000  0.4198230000000  0.5348430000000 1.0
C      1  0.4870250000000  0.3912620000000  0.4653790000000 1.0
C      1  0.5546150000000  0.4082850000000  0.5336370000000 1.0
C      1  0.5992760000000  0.4545010000000  0.4664980000000 1.0
C      1  0.6047500000000  0.5221720000000  0.5319120000000 1.0
C      1  0.5738520000000  0.5805840000000  0.4659090000000 1.0
C      1  0.5130750000000  0.6084260000000  0.5328850000000 1.0
C      1  0.5038920000000  0.5948170000000  0.4407830000000 1.0
C      1  0.4478890000000  0.5801200000000  0.5578820000000 1.0
C      1  0.4105640000000  0.5323270000000  0.4418970000000 1.0
C      1  0.4091710000000  0.4752330000000  0.5594110000000 1.0
C      1  0.4406910000000  0.4278450000000  0.4375190000000 1.0
C      1  0.4971830000000  0.4065020000000  0.5577250000000 1.0
C      1  0.5520720000000  0.4210800000000  0.4415810000000 1.0
C      1  0.5936360000000  0.4571820000000  0.5729130000000 1.0
C      1  0.5910770000000  0.5249300000000  0.4405460000000 1.0
C      1  0.5716860000000  0.5745350000000  0.5723460000000 1.0
C      1  0.3917820000000  0.4856030000000  0.4390260000000 1.0
C      1  0.4221350000000  0.4262550000000  0.5633080000000 1.0
C      1  0.4803320000000  0.3932080000000  0.4368640000000 1.0
C      1  0.5472800000000  0.4033160000000  0.5611330000000 1.0
C      1  0.5954620000000  0.4475480000000  0.4377910000000 1.0
C      1  0.6061960000000  0.5111000000000  0.5583100000000 1.0
C      1  0.5787960000000  0.5737630000000  0.4372790000000 1.0
C      1  0.5234140000000  0.6039490000000  0.5596720000000 1.0
C      1  0.4533640000000  0.5971660000000  0.4364440000000 1.0
C      1  0.4058660000000  0.5526280000000  0.5634640000000 1.0
C      1  0.5448870000000  0.5669720000000  0.5844670000000 1.0
C      1  0.4946150000000  0.5812480000000  0.4136900000000 1.0
C      1  0.4492350000000  0.5635150000000  0.5852070000000 1.0
C      1  0.4211730000000  0.5185340000000  0.4147640000000 1.0
C      1  0.4251010000000  0.4702110000000  0.5861830000000 1.0
C      1  0.4612580000000  0.4310430000000  0.4133940000000 1.0
C      1  0.5067220000000  0.4198100000000  0.5848330000000 1.0
C      1  0.5531940000000  0.4369610000000  0.4145590000000 1.0
C      1  0.5778000000000  0.4802460000000  0.5846690000000 1.0
C      1  0.5762270000000  0.5300340000000  0.4133180000000 1.0
C      1  0.5406760000000  0.5627370000000  0.4036860000000 1.0
C      1  0.4979990000000  0.5743070000000  0.5933770000000 1.0
C      1  0.4525400000000  0.5570610000000  0.4040140000000 1.0
C      1  0.4292080000000  0.5197130000000  0.5962000000000 1.0
C      1  0.4278100000000  0.4672510000000  0.4093360000000 1.0
C      1  0.4606370000000  0.4373310000000  0.5958070000000 1.0
C      1  0.5068290000000  0.4236550000000  0.4032850000000 1.0
C      1  0.5533970000000  0.4397450000000  0.5940240000000 1.0
C      1  0.5729370000000  0.4804520000000  0.4038260000000 1.0
C      1  0.5748290000000  0.5299600000000  0.5919290000000 1.0
C      1  0.4536840000000  0.5467920000000  0.4570600000000 1.0
C      1  0.4353660000000  0.5121400000000  0.5436420000000 1.0
C      1  0.4395200000000  0.4705940000000  0.4565860000000 1.0
C      1  0.4701080000000  0.4434960000000  0.5429270000000 1.0
C      1  0.5081290000000  0.4351420000000  0.4560630000000 1.0
C      1  0.5485280000000  0.4559670000000  0.5451950000000 1.0
C      1  0.5636310000000  0.4883220000000  0.4552610000000 1.0
C      1  0.5583530000000  0.5330780000000  0.5443620000000 1.0
C      1  0.5301250000000  0.5575900000000  0.4560410000000 1.0
C      1  0.4902650000000  0.5655400000000  0.5417860000000 1.0
C      1  0.5917590000000  0.4833060000000  0.4659870000000 1.0
C      1  0.5815760000000  0.5384960000000  0.5289250000000 1.0
C      1  0.5440640000000  0.5829090000000  0.4659970000000 1.0
C      1  0.4868660000000  0.5941750000000  0.5321660000000 1.0
C      1  0.4336370000000  0.5677730000000  0.4663220000000 1.0
C      1  0.4068750000000  0.5169580000000  0.5343390000000 1.0
C      1  0.4163770000000  0.4622320000000  0.4713860000000 1.0
C      1  0.4563010000000  0.4178160000000  0.5334430000000 1.0
C      1  0.5124490000000  0.4068650000000  0.4665190000000 1.0
C      1  0.5613410000000  0.4357230000000  0.5299910000000 1.0
C      1  0.5279900000000  0.5041900000000  0.3967020000000 1.0
C      1  0.5216040000000  0.5175850000000  0.6021580000000 1.0
C      1  0.5044520000000  0.5274000000000  0.3969380000000 1.0
C      1  0.4888420000000  0.5244790000000  0.6023470000000 1.0
C      1  0.4754330000000  0.5123810000000  0.3971860000000 1.0
C      1  0.4736080000000  0.4953290000000  0.6024950000000 1.0
C      1  0.4802570000000  0.4809340000000  0.3968190000000 1.0
C      1  0.4963130000000  0.4722670000000  0.6021690000000 1.0
C      1  0.5129210000000  0.4748860000000  0.3967940000000 1.0
C      1  0.5247650000000  0.4855660000000  0.6021290000000 1.0
C      1  0.5238570000000  0.5355610000000  0.4999110000000 1.0
C      1  0.4984260000000  0.5440470000000  0.4967070000000 1.0
C      1  0.4732300000000  0.5357450000000  0.5018530000000 1.0
C      1  0.4578720000000  0.5136570000000  0.4981390000000 1.0
C      1  0.4584640000000  0.4868360000000  0.5028720000000 1.0
C      1  0.4740280000000  0.4652660000000  0.4966800000000 1.0
C      1  0.4994290000000  0.4573000000000  0.5013800000000 1.0
C      1  0.5243580000000  0.4659800000000  0.4958080000000 1.0
C      1  0.5395630000000  0.4878000000000  0.5002420000000 1.0
C      1  0.5393900000000  0.5141120000000  0.4948840000000 1.0
C      1  0.5004990000000  0.4281470000000  0.5106970000000 1.0
C      1  0.5419160000000  0.4424460000000  0.4872980000000 1.0
C      1  0.5676680000000  0.4796950000000  0.5101080000000 1.0
C      1  0.5676970000000  0.5228320000000  0.4864310000000 1.0
C      1  0.5411440000000  0.5591000000000  0.5095990000000 1.0
C      1  0.4987440000000  0.5734460000000  0.4877930000000 1.0
C      1  0.4559180000000  0.5594290000000  0.5106950000000 1.0
C      1  0.4297370000000  0.5222060000000  0.4892800000000 1.0
C      1  0.4310560000000  0.4776130000000  0.5128020000000 1.0
C      1  0.4567760000000  0.4409360000000  0.4882180000000 1.0
C      1  0.5830500000000  0.5755850000000  0.4934890000000 1.0
C      1  0.5221670000000  0.6112900000000  0.5055610000000 1.0
C      1  0.4514360000000  0.6035280000000  0.4919340000000 1.0
C      1  0.4000510000000  0.5553940000000  0.5075150000000 1.0
C      1  0.3865230000000  0.4863510000000  0.4946560000000 1.0
C      1  0.4165210000000  0.4245320000000  0.5079250000000 1.0
C      1  0.4779190000000  0.3892900000000  0.4930140000000 1.0
C      1  0.5480850000000  0.3987820000000  0.5064930000000 1.0
C      1  0.5969130000000  0.4449960000000  0.4942570000000 1.0
C      1  0.6112310000000  0.5135650000000  0.5048070000000 1.0
C      1  0.3861180000000  0.5307010000000  0.4621590000000 1.0
C      1  0.3903190000000  0.4590330000000  0.5401270000000 1.0
C      1  0.4264730000000  0.4086170000000  0.4579070000000 1.0
C      1  0.5062750000000  0.3838200000000  0.5378280000000 1.0
C      1  0.5731980000000  0.4088220000000  0.4611180000000 1.0
C      1  0.6072930000000  0.4532230000000  0.5473820000000 1.0
C      1  0.6095900000000  0.5410920000000  0.4598440000000 1.0
C      1  0.5794470000000  0.5870310000000  0.5469850000000 1.0
C      1  0.4946450000000  0.6176320000000  0.4605070000000 1.0
C      1  0.4267050000000  0.5929550000000  0.5380640000000 1.0
C      1  0.3826600000000  0.5446220000000  0.4861210000000 1.0
C      1  0.3788530000000  0.4678500000000  0.5162810000000 1.0
C      1  0.4162500000000  0.4077940000000  0.4836650000000 1.0
C      1  0.4936390000000  0.3760440000000  0.5141910000000 1.0
C      1  0.5682810000000  0.3961000000000  0.4853900000000 1.0
C      1  0.6110170000000  0.4475270000000  0.5203680000000 1.0
C      1  0.6202320000000  0.5319810000000  0.4839330000000 1.0
C      1  0.5855660000000  0.5893870000000  0.5198360000000 1.0
C      1  0.5069490000000  0.6250830000000  0.4844600000000 1.0
C      1  0.4315800000000  0.6056800000000  0.5136990000000 1.0
C      1  0.5590050000000  0.5064630000000  0.4024710000000 1.0
C      1  0.5450800000000  0.5370720000000  0.5955160000000 1.0
C      1  0.5116850000000  0.5575600000000  0.4028070000000 1.0
C      1  0.4771130000000  0.5536260000000  0.5956530000000 1.0
C      1  0.4488440000000  0.5278400000000  0.4034650000000 1.0
C      1  0.4426890000000  0.4935280000000  0.5969640000000 1.0
C      1  0.4576310000000  0.4609370000000  0.4025870000000 1.0
C      1  0.4894220000000  0.4427120000000  0.5962030000000 1.0
C      1  0.5259770000000  0.4457390000000  0.4028360000000 1.0
C      1  0.5502290000000  0.4702100000000  0.5961830000000 1.0
C      1  0.4253590000000  0.5458350000000  0.5847880000000 1.0
C      1  0.4117970000000  0.4903990000000  0.4168300000000 1.0
C      1  0.4345500000000  0.4422110000000  0.5849200000000 1.0
C      1  0.4831840000000  0.4131110000000  0.4152420000000 1.0
C      1  0.5360890000000  0.4192460000000  0.5836370000000 1.0
C      1  0.5767510000000  0.4544610000000  0.4156270000000 1.0
C      1  0.5875940000000  0.5067030000000  0.5806200000000 1.0
C      1  0.5666680000000  0.5580290000000  0.4150250000000 1.0
C      1  0.5220870000000  0.5840320000000  0.5811190000000 1.0
C      1  0.4649930000000  0.5805370000000  0.4148960000000 1.0
C      1  0.4567730000000  0.5286710000000  0.5487530000000 1.0
C      1  0.4480720000000  0.4966690000000  0.4515290000000 1.0
C      1  0.4610840000000  0.4687850000000  0.5493460000000 1.0
C      1  0.4857380000000  0.4506770000000  0.4507330000000 1.0
C      1  0.5201430000000  0.4543880000000  0.5488030000000 1.0
C      1  0.5418080000000  0.4724390000000  0.4493480000000 1.0
C      1  0.5502840000000  0.5061230000000  0.5486120000000 1.0
C      1  0.5386210000000  0.5321270000000  0.4491460000000 1.0
C      1  0.5120620000000  0.5501340000000  0.5477900000000 1.0
C      1  0.4806170000000  0.5474740000000  0.4506610000000 1.0
C      1  0.5381480000000  0.4444720000000  0.4577760000000 1.0
C      1  0.5616760000000  0.4817610000000  0.5396730000000 1.0
C      1  0.5643980000000  0.5198000000000  0.4569180000000 1.0
C      1  0.5384430000000  0.5535060000000  0.5389840000000 1.0
C      1  0.5003180000000  0.5684570000000  0.4580370000000 1.0
C      1  0.4601220000000  0.5568620000000  0.5403180000000 1.0
C      1  0.4344920000000  0.5217200000000  0.4594960000000 1.0
C      1  0.4351070000000  0.4807880000000  0.5420150000000 1.0
C      1  0.4570620000000  0.4454690000000  0.4576100000000 1.0
C      1  0.5001970000000  0.4331860000000  0.5405300000000 1.0
END
