TITL C-74080-5790-74 -1119.28266535149 125000 -508.88663165998 0 0 83 (C1) n - 1
REM
REM in /home/nfs/bkarasulu/CARBON/AIRSS/Generating-Clusters/LCBOP/Higher-Symm/SD-CG/FIRE-CG
REM
REM
REM
REM
REM
REM ./C.cell (b20cbc046b6831c77cfcea5457e17084)
REM AIRSS Version 0.9.1 bugfix July 2018 build 013d7b7c2542+ Fri, 06 Jul 2018 19:26:36 +0100
REM compiler GCC version 9.2.1 20190827 (Red Hat 9.2.1-1)
REM options -cpp -mtune=generic -march=x86-64 -g -O0 -fpre-include=/usr/include/finclude/math-vector-fortran.h
REM seed 1835656118 -1775454974 86691361 926792419 -517297491 -770321207 371730867 -1278292161 327387852 1224701914 -241543904 1429982027 -1555213806 -2111006115 -89503220 798353620 183668620 1920284108 -112801498 1749846335 1461108708 -1023585059 -1260048465 977676614 -147254323 -1390782220 -465558931 -572774512 992960089 -1116057910 242643538 625139852 -467569001
REM
CELL 1.54180   50.00000   50.00000   50.00000   90.00000   90.00000   90.00000
LATT -1
SFAC C  
C      1  0.5196580000000  0.5687260000000  0.5086700000000 1.0
C      1  0.4769360000000  0.4186990000000  0.4905260000000 1.0
C      1  0.5430830000000  0.4423490000000  0.4638390000000 1.0
C      1  0.4601620000000  0.5648910000000  0.5287240000000 1.0
C      1  0.4232720000000  0.4215110000000  0.5297540000000 1.0
C      1  0.5727550000000  0.5821620000000  0.4771640000000 1.0
C      1  0.5248500000000  0.4483730000000  0.4160990000000 1.0
C      1  0.4692340000000  0.5680010000000  0.5792970000000 1.0
C      1  0.4929610000000  0.4218970000000  0.5356130000000 1.0
C      1  0.5073160000000  0.5857280000000  0.4630800000000 1.0
C      1  0.5042950000000  0.5570910000000  0.5516720000000 1.0
C      1  0.4953460000000  0.4397810000000  0.4502310000000 1.0
C      1  0.5609580000000  0.5445490000000  0.4459910000000 1.0
C      1  0.4368190000000  0.4648010000000  0.5490150000000 1.0
C      1  0.4866620000000  0.4410700000000  0.4768790000000 1.0
C      1  0.5178040000000  0.5486340000000  0.5284350000000 1.0
C      1  0.4597860000000  0.4517770000000  0.5589330000000 1.0
C      1  0.5411350000000  0.5603990000000  0.4332860000000 1.0
C      1  0.4769220000000  0.5475160000000  0.4147860000000 1.0
C      1  0.5086180000000  0.4726690000000  0.5853270000000 1.0
C      1  0.5146340000000  0.4667130000000  0.5084840000000 1.0
C      1  0.4928850000000  0.5336960000000  0.4862340000000 1.0
C      1  0.4382490000000  0.5210330000000  0.4658530000000 1.0
C      1  0.5728860000000  0.4651710000000  0.5314330000000 1.0
C      1  0.4130420000000  0.5621010000000  0.4540190000000 1.0
C      1  0.5845790000000  0.4191070000000  0.5432600000000 1.0
C      1  0.5151070000000  0.4762420000000  0.5366430000000 1.0
C      1  0.4950630000000  0.5345590000000  0.4581690000000 1.0
C      1  0.4458230000000  0.4075500000000  0.5252410000000 1.0
C      1  0.5503290000000  0.5952080000000  0.4845690000000 1.0
C      1  0.5622220000000  0.5401860000000  0.5946520000000 1.0
C      1  0.4268950000000  0.4458870000000  0.4220600000000 1.0
C      1  0.5341630000000  0.4986660000000  0.5345300000000 1.0
C      1  0.4786510000000  0.4885390000000  0.4889480000000 1.0
C      1  0.4566320000000  0.5075140000000  0.4837300000000 1.0
C      1  0.5559400000000  0.4846980000000  0.5198680000000 1.0
C      1  0.5408410000000  0.4746200000000  0.4971520000000 1.0
C      1  0.4664640000000  0.5306700000000  0.4984850000000 1.0
C      1  0.4916490000000  0.4645930000000  0.4920350000000 1.0
C      1  0.5214180000000  0.5206980000000  0.5214440000000 1.0
C      1  0.5015520000000  0.4872280000000  0.6064600000000 1.0
C      1  0.4790180000000  0.5291310000000  0.3955850000000 1.0
C      1  0.4366300000000  0.5518300000000  0.4669520000000 1.0
C      1  0.5664380000000  0.4362740000000  0.5293650000000 1.0
C      1  0.5777210000000  0.5596450000000  0.4631610000000 1.0
C      1  0.4181670000000  0.4467860000000  0.5377980000000 1.0
C      1  0.6125860000000  0.4536940000000  0.5584320000000 1.0
C      1  0.3985700000000  0.5206760000000  0.4366430000000 1.0
C      1  0.5963960000000  0.4716950000000  0.5460430000000 1.0
C      1  0.4192560000000  0.5081630000000  0.4490750000000 1.0
C      1  0.4936940000000  0.4796170000000  0.3905050000000 1.0
C      1  0.4852240000000  0.5348450000000  0.6151610000000 1.0
C      1  0.4768030000000  0.5684150000000  0.5512520000000 1.0
C      1  0.5239770000000  0.4390040000000  0.4434640000000 1.0
C      1  0.5237190000000  0.5799800000000  0.4399940000000 1.0
C      1  0.4859970000000  0.4431760000000  0.5538010000000 1.0
C      1  0.4888060000000  0.5545100000000  0.5957760000000 1.0
C      1  0.4990960000000  0.4579340000000  0.4069690000000 1.0
C      1  0.5487530000000  0.4696130000000  0.4708130000000 1.0
C      1  0.4552250000000  0.5373880000000  0.5231270000000 1.0
C      1  0.4914390000000  0.5089940000000  0.6180570000000 1.0
C      1  0.4858010000000  0.5048200000000  0.3870640000000 1.0
C      1  0.4568910000000  0.5802030000000  0.5045620000000 1.0
C      1  0.5459290000000  0.4244010000000  0.4860030000000 1.0
C      1  0.4803160000000  0.4484200000000  0.4271670000000 1.0
C      1  0.5124900000000  0.5526070000000  0.5787890000000 1.0
C      1  0.4362520000000  0.4927570000000  0.5461720000000 1.0
C      1  0.5603060000000  0.5164230000000  0.4467320000000 1.0
C      1  0.5053570000000  0.4632270000000  0.5592380000000 1.0
C      1  0.4824780000000  0.5534780000000  0.4412380000000 1.0
C      1  0.5568110000000  0.4910260000000  0.4545140000000 1.0
C      1  0.4430880000000  0.5176050000000  0.5389010000000 1.0
C      1  0.6065830000000  0.4271810000000  0.5570570000000 1.0
C      1  0.3953570000000  0.5475560000000  0.4393450000000 1.0
C      1  0.4794630000000  0.5764320000000  0.4593830000000 1.0
C      1  0.5203190000000  0.4177050000000  0.5281810000000 1.0
C      1  0.5233710000000  0.5863880000000  0.4872040000000 1.0
C      1  0.4724420000000  0.4125920000000  0.5176360000000 1.0
C      1  0.5382620000000  0.5474740000000  0.5874510000000 1.0
C      1  0.4527910000000  0.4475490000000  0.4244530000000 1.0
C      1  0.4563920000000  0.5723880000000  0.4766860000000 1.0
C      1  0.5445520000000  0.4245800000000  0.5146640000000 1.0
C      1  0.5058960000000  0.5126230000000  0.4984580000000 1.0
END
