TITL C-74081-2727-126 5.20552541516923e-07 125000 -393.960372015719 0 0 64 (C1) n - 1
REM
REM in /home/nfs/bkarasulu/CARBON/AIRSS/Generating-Clusters/LCBOP/Higher-Symm/SD-CG/FIRE-CG
REM
REM
REM
REM
REM
REM ./C.cell (b20cbc046b6831c77cfcea5457e17084)
REM AIRSS Version 0.9.1 bugfix July 2018 build 013d7b7c2542+ Fri, 06 Jul 2018 19:26:36 +0100
REM compiler GCC version 9.2.1 20190827 (Red Hat 9.2.1-1)
REM options -cpp -mtune=generic -march=x86-64 -g -O0 -fpre-include=/usr/include/finclude/math-vector-fortran.h
REM seed -1530108990 577371711 -1690296215 680487043 831127320 1420713024 -545864362 -1297999595 409023665 53062073 1158229080 -1861932586 -1807248921 -1391138555 -1210747893 515160511 1831334427 -499097930 374451754 -581232772 194608680 1381234165 -1412277975 -1348191992 2045870419 2082092022 495260616 459065225 -845138123 -523967189 1374889270 -547457070 252562466
REM
CELL 1.54180   50.00000   50.00000   50.00000   90.00000   90.00000   90.00000
LATT -1
SFAC C  
C      1  0.4668300000000  0.4723600000000  0.5692200000000 1.0
C      1  0.5226300000000  0.4747080000000  0.5728190000000 1.0
C      1  0.4662370000000  0.4684660000000  0.4768260000000 1.0
C      1  0.5348530000000  0.4650820000000  0.4756810000000 1.0
C      1  0.5457900000000  0.5802780000000  0.5149280000000 1.0
C      1  0.4421590000000  0.5912800000000  0.5327330000000 1.0
C      1  0.5125110000000  0.5714400000000  0.5687440000000 1.0
C      1  0.4842250000000  0.5687040000000  0.5708340000000 1.0
C      1  0.5765850000000  0.4263700000000  0.5434670000000 1.0
C      1  0.4253990000000  0.4097360000000  0.5430260000000 1.0
C      1  0.4413930000000  0.4642760000000  0.4352880000000 1.0
C      1  0.5573570000000  0.4584810000000  0.4331930000000 1.0
C      1  0.4678710000000  0.5916940000000  0.5739230000000 1.0
C      1  0.5219430000000  0.5945360000000  0.5549510000000 1.0
C      1  0.4473700000000  0.4231500000000  0.5389650000000 1.0
C      1  0.5518990000000  0.4337960000000  0.5396560000000 1.0
C      1  0.5130480000000  0.4374370000000  0.5099180000000 1.0
C      1  0.4842710000000  0.4367920000000  0.5096300000000 1.0
C      1  0.5308670000000  0.5492800000000  0.5702530000000 1.0
C      1  0.4711950000000  0.5461580000000  0.5588710000000 1.0
C      1  0.5270110000000  0.4970930000000  0.4173840000000 1.0
C      1  0.4753120000000  0.5000060000000  0.4211240000000 1.0
C      1  0.5282920000000  0.5186240000000  0.4357590000000 1.0
C      1  0.4765580000000  0.5216850000000  0.4395150000000 1.0
C      1  0.4870010000000  0.4878490000000  0.4733620000000 1.0
C      1  0.5163490000000  0.4864740000000  0.4717780000000 1.0
C      1  0.5141510000000  0.4714220000000  0.4155860000000 1.0
C      1  0.4850580000000  0.4731900000000  0.4168520000000 1.0
C      1  0.5258420000000  0.4424280000000  0.5348660000000 1.0
C      1  0.4705570000000  0.4378000000000  0.5343090000000 1.0
C      1  0.4665060000000  0.5472970000000  0.5303120000000 1.0
C      1  0.5509190000000  0.5487740000000  0.5499820000000 1.0
C      1  0.5483750000000  0.5529690000000  0.5218240000000 1.0
C      1  0.4496620000000  0.5680030000000  0.5212790000000 1.0
C      1  0.4889760000000  0.5457030000000  0.4301020000000 1.0
C      1  0.5174490000000  0.5438110000000  0.4274600000000 1.0
C      1  0.4747520000000  0.5682380000000  0.4243460000000 1.0
C      1  0.5330880000000  0.5640450000000  0.4180020000000 1.0
C      1  0.5274210000000  0.5126120000000  0.4638160000000 1.0
C      1  0.4786410000000  0.5154500000000  0.4675770000000 1.0
C      1  0.5251040000000  0.5111460000000  0.5250130000000 1.0
C      1  0.4980450000000  0.5107070000000  0.5282240000000 1.0
C      1  0.4836700000000  0.4260560000000  0.4618920000000 1.0
C      1  0.5122670000000  0.4247920000000  0.4618420000000 1.0
C      1  0.5233770000000  0.4261910000000  0.4357170000000 1.0
C      1  0.4722230000000  0.4287080000000  0.4360250000000 1.0
C      1  0.5269790000000  0.5254210000000  0.5844780000000 1.0
C      1  0.4630630000000  0.5236240000000  0.5732300000000 1.0
C      1  0.5260550000000  0.4987150000000  0.5839900000000 1.0
C      1  0.4606490000000  0.4972970000000  0.5761340000000 1.0
C      1  0.5244200000000  0.4397010000000  0.4837620000000 1.0
C      1  0.4733020000000  0.4416640000000  0.4839230000000 1.0
C      1  0.5206130000000  0.5326390000000  0.4836030000000 1.0
C      1  0.4908880000000  0.5331630000000  0.4870370000000 1.0
C      1  0.4423190000000  0.4715250000000  0.4615830000000 1.0
C      1  0.5584190000000  0.4650850000000  0.4596500000000 1.0
C      1  0.4652580000000  0.4532450000000  0.4236750000000 1.0
C      1  0.5320780000000  0.4497710000000  0.4226340000000 1.0
C      1  0.4822560000000  0.4543970000000  0.5543110000000 1.0
C      1  0.5108950000000  0.4563520000000  0.5550400000000 1.0
C      1  0.4821090000000  0.5301280000000  0.5143570000000 1.0
C      1  0.5356130000000  0.5318260000000  0.5080550000000 1.0
C      1  0.5342050000000  0.5985910000000  0.5312190000000 1.0
C      1  0.4498390000000  0.6017600000000  0.5564430000000 1.0
END
