TITL C-74085-4933-237 -0.00163317964342215 125000 -1033.91066142656 0 0 170 (C1) n - 1
REM
REM in /home/nfs/bkarasulu/CARBON/AIRSS/Generating-Clusters/LCBOP/Higher-Symm/SD-CG/FIRE-CG
REM
REM
REM
REM
REM
REM ./C.cell (b20cbc046b6831c77cfcea5457e17084)
REM AIRSS Version 0.9.1 bugfix July 2018 build 013d7b7c2542+ Fri, 06 Jul 2018 19:26:36 +0100
REM compiler GCC version 9.2.1 20190827 (Red Hat 9.2.1-1)
REM options -cpp -mtune=generic -march=x86-64 -g -O0 -fpre-include=/usr/include/finclude/math-vector-fortran.h
REM seed -1213189692 119946813 29300559 -122416792 184861554 -1205239183 275165770 -1964851687 1830450036 -847667052 -492284336 -1683269927 758150477 1028201355 -867317436 1177487006 1165051041 1334406357 2133819698 311725546 432230134 -365074161 1620715405 -1027386613 1201748401 692799031 1800457031 30093937 -280521282 1069145655 556620105 -1627553718 1720464763
REM
CELL 1.54180   50.00000   50.00000   50.00000   90.00000   90.00000   90.00000
LATT -1
SFAC C  
C      1  0.4838270000000  0.3982060000000  0.5359380000000 1.0
C      1  0.4914210000000  0.3882330000000  0.4766970000000 1.0
C      1  0.4733500000000  0.5670640000000  0.5041160000000 1.0
C      1  0.5813200000000  0.4999300000000  0.5254770000000 1.0
C      1  0.5432560000000  0.5421040000000  0.5278340000000 1.0
C      1  0.5231530000000  0.4430020000000  0.6060500000000 1.0
C      1  0.5344100000000  0.4479610000000  0.5231200000000 1.0
C      1  0.5747640000000  0.4440900000000  0.4671680000000 1.0
C      1  0.5081120000000  0.5493400000000  0.4700930000000 1.0
C      1  0.4993020000000  0.5645940000000  0.4943210000000 1.0
C      1  0.5602020000000  0.4985760000000  0.4774040000000 1.0
C      1  0.6066420000000  0.5175790000000  0.4894660000000 1.0
C      1  0.4706010000000  0.5533390000000  0.5825940000000 1.0
C      1  0.5296610000000  0.5716940000000  0.5927520000000 1.0
C      1  0.4698980000000  0.4332060000000  0.4076600000000 1.0
C      1  0.4509850000000  0.5826260000000  0.4932710000000 1.0
C      1  0.4477060000000  0.5495710000000  0.4401950000000 1.0
C      1  0.4169880000000  0.5849160000000  0.5241170000000 1.0
C      1  0.5482060000000  0.6015930000000  0.4737560000000 1.0
C      1  0.5249640000000  0.4949830000000  0.5591560000000 1.0
C      1  0.4728980000000  0.5971000000000  0.4268790000000 1.0
C      1  0.5202020000000  0.5024790000000  0.4366910000000 1.0
C      1  0.4420350000000  0.4608410000000  0.5566150000000 1.0
C      1  0.5626700000000  0.4514650000000  0.4419030000000 1.0
C      1  0.4432920000000  0.5986500000000  0.5176000000000 1.0
C      1  0.5485970000000  0.5104300000000  0.5607790000000 1.0
C      1  0.5570910000000  0.4258060000000  0.4826520000000 1.0
C      1  0.6077930000000  0.5596410000000  0.5146680000000 1.0
C      1  0.4654730000000  0.3975240000000  0.4740450000000 1.0
C      1  0.5083630000000  0.5734460000000  0.4495540000000 1.0
C      1  0.5317340000000  0.4886400000000  0.3811080000000 1.0
C      1  0.4357580000000  0.4724000000000  0.4082440000000 1.0
C      1  0.5267340000000  0.4074920000000  0.4455680000000 1.0
C      1  0.4863540000000  0.5044540000000  0.5381320000000 1.0
C      1  0.5079130000000  0.4466550000000  0.3826570000000 1.0
C      1  0.6073680000000  0.5075490000000  0.5166670000000 1.0
C      1  0.5377100000000  0.5423120000000  0.4714390000000 1.0
C      1  0.6127380000000  0.4598990000000  0.5325440000000 1.0
C      1  0.4738940000000  0.5005180000000  0.5617540000000 1.0
C      1  0.4150610000000  0.4716770000000  0.4482340000000 1.0
C      1  0.5760510000000  0.4603180000000  0.4190130000000 1.0
C      1  0.4123520000000  0.4856890000000  0.4217040000000 1.0
C      1  0.5024290000000  0.4836370000000  0.4320030000000 1.0
C      1  0.5947730000000  0.4637120000000  0.4789730000000 1.0
C      1  0.4677670000000  0.6166240000000  0.4447430000000 1.0
C      1  0.6296370000000  0.5536180000000  0.5316370000000 1.0
C      1  0.4737890000000  0.4281260000000  0.5848390000000 1.0
C      1  0.5447250000000  0.4288100000000  0.5944350000000 1.0
C      1  0.4529560000000  0.5315780000000  0.5909450000000 1.0
C      1  0.5420490000000  0.5396610000000  0.5561130000000 1.0
C      1  0.4590030000000  0.3994010000000  0.5217050000000 1.0
C      1  0.6265130000000  0.5057470000000  0.5376080000000 1.0
C      1  0.4855390000000  0.4966940000000  0.5877010000000 1.0
C      1  0.4097330000000  0.4452280000000  0.4570210000000 1.0
C      1  0.4303080000000  0.4902060000000  0.5131300000000 1.0
C      1  0.3698900000000  0.4594810000000  0.5869570000000 1.0
C      1  0.5545400000000  0.4324290000000  0.5681740000000 1.0
C      1  0.4146650000000  0.5532620000000  0.5688100000000 1.0
C      1  0.5912230000000  0.4938950000000  0.4697730000000 1.0
C      1  0.4997940000000  0.4573510000000  0.5628750000000 1.0
C      1  0.3890430000000  0.5493920000000  0.4946650000000 1.0
C      1  0.4649120000000  0.5081120000000  0.6042910000000 1.0
C      1  0.5416100000000  0.6113000000000  0.5016860000000 1.0
C      1  0.5331000000000  0.4829930000000  0.4832130000000 1.0
C      1  0.3724050000000  0.4482430000000  0.5342720000000 1.0
C      1  0.4222920000000  0.4080990000000  0.4912110000000 1.0
C      1  0.5498840000000  0.4096370000000  0.5519870000000 1.0
C      1  0.4975310000000  0.5999910000000  0.5320320000000 1.0
C      1  0.5686160000000  0.5213210000000  0.4338820000000 1.0
C      1  0.4395940000000  0.5465830000000  0.5301350000000 1.0
C      1  0.5589870000000  0.4788680000000  0.6013240000000 1.0
C      1  0.4562300000000  0.4236150000000  0.4648770000000 1.0
C      1  0.4990150000000  0.4340380000000  0.4070850000000 1.0
C      1  0.5588980000000  0.5606430000000  0.5144980000000 1.0
C      1  0.4465570000000  0.4465030000000  0.4009050000000 1.0
C      1  0.4797150000000  0.5233990000000  0.5198210000000 1.0
C      1  0.4490540000000  0.4881910000000  0.6166720000000 1.0
C      1  0.5328310000000  0.3953400000000  0.5373630000000 1.0
C      1  0.4438110000000  0.4635690000000  0.6066690000000 1.0
C      1  0.5423660000000  0.5452920000000  0.3965030000000 1.0
C      1  0.4226630000000  0.5587920000000  0.4529070000000 1.0
C      1  0.5677550000000  0.5800850000000  0.4719390000000 1.0
C      1  0.5169130000000  0.5536350000000  0.3924430000000 1.0
C      1  0.6124140000000  0.4807400000000  0.5801240000000 1.0
C      1  0.4562810000000  0.4894600000000  0.4968580000000 1.0
C      1  0.4904730000000  0.5749160000000  0.4265600000000 1.0
C      1  0.5221130000000  0.4620870000000  0.4675930000000 1.0
C      1  0.4960030000000  0.4336080000000  0.6034000000000 1.0
C      1  0.4687580000000  0.5496960000000  0.5294350000000 1.0
C      1  0.6212550000000  0.4811510000000  0.5514480000000 1.0
C      1  0.5834590000000  0.5711220000000  0.5247700000000 1.0
C      1  0.5096780000000  0.3958330000000  0.5211930000000 1.0
C      1  0.5129260000000  0.6104230000000  0.5085230000000 1.0
C      1  0.5015770000000  0.4946040000000  0.3774540000000 1.0
C      1  0.5186810000000  0.4302890000000  0.4293720000000 1.0
C      1  0.3542020000000  0.4589990000000  0.5160220000000 1.0
C      1  0.5529930000000  0.5218300000000  0.4587350000000 1.0
C      1  0.3935180000000  0.4323960000000  0.5251920000000 1.0
C      1  0.4164500000000  0.5158650000000  0.4254210000000 1.0
C      1  0.4566560000000  0.4706490000000  0.4758920000000 1.0
C      1  0.3698090000000  0.4536750000000  0.5615500000000 1.0
C      1  0.5579370000000  0.5239010000000  0.4069840000000 1.0
C      1  0.4274650000000  0.5290270000000  0.5773930000000 1.0
C      1  0.4411040000000  0.5312000000000  0.4819720000000 1.0
C      1  0.4789060000000  0.6229520000000  0.4685090000000 1.0
C      1  0.4452720000000  0.5337640000000  0.4165350000000 1.0
C      1  0.4432640000000  0.4781910000000  0.4530440000000 1.0
C      1  0.4212870000000  0.5639080000000  0.5437310000000 1.0
C      1  0.5536610000000  0.5600360000000  0.4868630000000 1.0
C      1  0.4848280000000  0.4493570000000  0.5416800000000 1.0
C      1  0.5334180000000  0.4590330000000  0.3798490000000 1.0
C      1  0.4558920000000  0.4813100000000  0.4277010000000 1.0
C      1  0.5838680000000  0.5913160000000  0.5431870000000 1.0
C      1  0.5354310000000  0.4072970000000  0.4737030000000 1.0
C      1  0.4857920000000  0.5272820000000  0.4708440000000 1.0
C      1  0.4678680000000  0.6068640000000  0.5314290000000 1.0
C      1  0.6106180000000  0.4596660000000  0.5034080000000 1.0
C      1  0.4985510000000  0.4492360000000  0.4758350000000 1.0
C      1  0.5922210000000  0.5059490000000  0.4416270000000 1.0
C      1  0.4911840000000  0.4674560000000  0.3703890000000 1.0
C      1  0.5186140000000  0.5279090000000  0.4317910000000 1.0
C      1  0.5520240000000  0.4357340000000  0.5084090000000 1.0
C      1  0.4570800000000  0.4451870000000  0.5380020000000 1.0
C      1  0.6333070000000  0.4797380000000  0.5984760000000 1.0
C      1  0.5746330000000  0.4791470000000  0.3999170000000 1.0
C      1  0.4296470000000  0.4846400000000  0.5437050000000 1.0
C      1  0.3961440000000  0.5247020000000  0.4795440000000 1.0
C      1  0.4060810000000  0.5322580000000  0.4517230000000 1.0
C      1  0.6056020000000  0.5474870000000  0.4879040000000 1.0
C      1  0.4603070000000  0.5361550000000  0.4616350000000 1.0
C      1  0.4263500000000  0.5754160000000  0.4771900000000 1.0
C      1  0.4050280000000  0.5735070000000  0.4983400000000 1.0
C      1  0.4264610000000  0.4249150000000  0.4676870000000 1.0
C      1  0.5686690000000  0.4907510000000  0.5497190000000 1.0
C      1  0.5642050000000  0.5082800000000  0.5052590000000 1.0
C      1  0.5302960000000  0.4710460000000  0.6015210000000 1.0
C      1  0.5107580000000  0.4808500000000  0.5808880000000 1.0
C      1  0.5278430000000  0.5637460000000  0.5656030000000 1.0
C      1  0.4318860000000  0.5345540000000  0.5065950000000 1.0
C      1  0.5396300000000  0.5188510000000  0.5133720000000 1.0
C      1  0.5141870000000  0.3963140000000  0.4918360000000 1.0
C      1  0.4910790000000  0.5556920000000  0.4048550000000 1.0
C      1  0.4712700000000  0.5335170000000  0.4013760000000 1.0
C      1  0.4833590000000  0.5076270000000  0.3960500000000 1.0
C      1  0.5927140000000  0.4446460000000  0.5447310000000 1.0
C      1  0.6384190000000  0.5305790000000  0.5429740000000 1.0
C      1  0.5338380000000  0.4519400000000  0.4429450000000 1.0
C      1  0.5085750000000  0.5740250000000  0.6094470000000 1.0
C      1  0.5853340000000  0.4810930000000  0.5924330000000 1.0
C      1  0.4771910000000  0.5108780000000  0.4944620000000 1.0
C      1  0.4220470000000  0.5055190000000  0.5619600000000 1.0
C      1  0.5940140000000  0.5671750000000  0.4690500000000 1.0
C      1  0.5044170000000  0.5759960000000  0.5507560000000 1.0
C      1  0.5556520000000  0.4991460000000  0.3927610000000 1.0
C      1  0.4710350000000  0.4466490000000  0.4733180000000 1.0
C      1  0.4804720000000  0.4077680000000  0.5639660000000 1.0
C      1  0.4432270000000  0.4228340000000  0.5286890000000 1.0
C      1  0.4802700000000  0.5594440000000  0.5553740000000 1.0
C      1  0.4830730000000  0.5675060000000  0.6038060000000 1.0
C      1  0.4796260000000  0.4899450000000  0.4181930000000 1.0
C      1  0.4173800000000  0.4220430000000  0.5161200000000 1.0
C      1  0.3388820000000  0.4699460000000  0.4980040000000 1.0
C      1  0.4063300000000  0.5010870000000  0.4964080000000 1.0
C      1  0.4508820000000  0.4490400000000  0.5831390000000 1.0
C      1  0.5203330000000  0.5975830000000  0.4623080000000 1.0
C      1  0.5015070000000  0.6118300000000  0.4809550000000 1.0
C      1  0.5692500000000  0.4550740000000  0.5564080000000 1.0
C      1  0.5226510000000  0.4958590000000  0.5085840000000 1.0
C      1  0.4474860000000  0.3919230000000  0.4960070000000 1.0
C      1  0.5111570000000  0.4926640000000  0.5341240000000 1.0
END
