TITL C-74083-3671-221 383453.239009928 125000 -1195.70507862445 0 0 197 (C1) n - 1
REM
REM in /home/nfs/bkarasulu/CARBON/AIRSS/Generating-Clusters/LCBOP/Higher-Symm/SD-CG/FIRE-CG
REM
REM
REM
REM
REM
REM ./C.cell (b20cbc046b6831c77cfcea5457e17084)
REM AIRSS Version 0.9.1 bugfix July 2018 build 013d7b7c2542+ Fri, 06 Jul 2018 19:26:36 +0100
REM compiler GCC version 9.2.1 20190827 (Red Hat 9.2.1-1)
REM options -cpp -mtune=generic -march=x86-64 -g -O0 -fpre-include=/usr/include/finclude/math-vector-fortran.h
REM seed -417225799 -462884365 -944054801 -636720608 845491762 892914961 524852090 2137126732 1580278615 -209838881 -203469404 1671402467 558531798 679555117 -1486438577 1541522605 1594082559 2057762312 -416499383 -1495796645 -1135861194 1571430966 1613167242 872623775 872734521 1149345033 -1365460380 1368975560 -2031119954 841999159 -1313896 -584230047 -1943412149
REM
CELL 1.54180   50.00000   50.00000   50.00000   90.00000   90.00000   90.00000
LATT -1
SFAC C  
C      1  0.4845100000000  0.5535520000000  0.6226890000000 1.0
C      1  0.4456180000000  0.4809930000000  0.3753740000000 1.0
C      1  0.5249800000000  0.4431020000000  0.6238430000000 1.0
C      1  0.5581130000000  0.5174680000000  0.3828230000000 1.0
C      1  0.4998880000000  0.6234940000000  0.5218850000000 1.0
C      1  0.3683910000000  0.5026160000000  0.4687620000000 1.0
C      1  0.5003800000000  0.3724720000000  0.5256320000000 1.0
C      1  0.6315780000000  0.5098280000000  0.4628580000000 1.0
C      1  0.3789490000000  0.4464070000000  0.4429880000000 1.0
C      1  0.5536710000000  0.3801200000000  0.5544170000000 1.0
C      1  0.6072840000000  0.5586140000000  0.4434270000000 1.0
C      1  0.4458510000000  0.6160830000000  0.5490190000000 1.0
C      1  0.5427280000000  0.5007310000000  0.6043350000000 1.0
C      1  0.4997890000000  0.5384650000000  0.3971530000000 1.0
C      1  0.4684180000000  0.4915760000000  0.6041260000000 1.0
C      1  0.5031700000000  0.4614010000000  0.3948610000000 1.0
C      1  0.5568960000000  0.5669760000000  0.4043650000000 1.0
C      1  0.4399340000000  0.5542580000000  0.5896410000000 1.0
C      1  0.4478080000000  0.4311200000000  0.3985240000000 1.0
C      1  0.5751090000000  0.4462760000000  0.6035570000000 1.0
C      1  0.5655260000000  0.4480560000000  0.4250340000000 1.0
C      1  0.5572050000000  0.5690720000000  0.5797760000000 1.0
C      1  0.4336450000000  0.5530640000000  0.4190140000000 1.0
C      1  0.4483840000000  0.4321990000000  0.5792680000000 1.0
C      1  0.5667410000000  0.3875800000000  0.5302070000000 1.0
C      1  0.6061590000000  0.5687080000000  0.4698850000000 1.0
C      1  0.4326690000000  0.6087820000000  0.5242720000000 1.0
C      1  0.3838050000000  0.4326060000000  0.4678620000000 1.0
C      1  0.5195010000000  0.4691660000000  0.5643890000000 1.0
C      1  0.5340550000000  0.5266250000000  0.4398570000000 1.0
C      1  0.4857060000000  0.5299800000000  0.5732610000000 1.0
C      1  0.4617670000000  0.4732340000000  0.4292250000000 1.0
C      1  0.4084410000000  0.5280530000000  0.4842000000000 1.0
C      1  0.4741840000000  0.4098020000000  0.5114310000000 1.0
C      1  0.5699540000000  0.4674730000000  0.4971240000000 1.0
C      1  0.5218350000000  0.5838390000000  0.5074680000000 1.0
C      1  0.5291600000000  0.4292600000000  0.4927410000000 1.0
C      1  0.5777040000000  0.5238530000000  0.5113030000000 1.0
C      1  0.4664650000000  0.5607740000000  0.5025510000000 1.0
C      1  0.4214690000000  0.4761130000000  0.5047450000000 1.0
C      1  0.4586680000000  0.5384320000000  0.4136250000000 1.0
C      1  0.4628130000000  0.4441510000000  0.6025310000000 1.0
C      1  0.5404960000000  0.4612420000000  0.4181070000000 1.0
C      1  0.5453460000000  0.5445330000000  0.5906290000000 1.0
C      1  0.4425420000000  0.4532510000000  0.3834810000000 1.0
C      1  0.5524850000000  0.4413470000000  0.6170250000000 1.0
C      1  0.5624850000000  0.5448170000000  0.3900510000000 1.0
C      1  0.4592950000000  0.5570510000000  0.6086570000000 1.0
C      1  0.4180480000000  0.5060970000000  0.4671930000000 1.0
C      1  0.4950950000000  0.4212790000000  0.5285490000000 1.0
C      1  0.5765710000000  0.4877050000000  0.4779550000000 1.0
C      1  0.5051210000000  0.5759610000000  0.5303750000000 1.0
C      1  0.5508080000000  0.3820250000000  0.5052590000000 1.0
C      1  0.6163660000000  0.5507460000000  0.4918810000000 1.0
C      1  0.4506050000000  0.6136060000000  0.5003070000000 1.0
C      1  0.3780960000000  0.4503090000000  0.4920960000000 1.0
C      1  0.5185100000000  0.4142460000000  0.5145820000000 1.0
C      1  0.5916660000000  0.5097980000000  0.4889310000000 1.0
C      1  0.4788350000000  0.5812760000000  0.5192550000000 1.0
C      1  0.4068310000000  0.4840720000000  0.4807660000000 1.0
C      1  0.6164960000000  0.5225520000000  0.4835100000000 1.0
C      1  0.4766820000000  0.6091930000000  0.5107790000000 1.0
C      1  0.3785690000000  0.4787040000000  0.4831580000000 1.0
C      1  0.5231560000000  0.3854690000000  0.5124060000000 1.0
C      1  0.4706040000000  0.6220350000000  0.5597310000000 1.0
C      1  0.3752420000000  0.4713700000000  0.4323640000000 1.0
C      1  0.5288120000000  0.3752860000000  0.5643500000000 1.0
C      1  0.6100260000000  0.5354440000000  0.4296240000000 1.0
C      1  0.4955820000000  0.5288100000000  0.5286650000000 1.0
C      1  0.4664360000000  0.4700720000000  0.4741940000000 1.0
C      1  0.5226600000000  0.4776290000000  0.5163820000000 1.0
C      1  0.5256360000000  0.5211170000000  0.4883530000000 1.0
C      1  0.5058260000000  0.4642800000000  0.4533610000000 1.0
C      1  0.5443020000000  0.5184890000000  0.5451690000000 1.0
C      1  0.4843710000000  0.5371030000000  0.4578710000000 1.0
C      1  0.4550460000000  0.4893850000000  0.5351530000000 1.0
C      1  0.6046080000000  0.4851150000000  0.4287310000000 1.0
C      1  0.5225730000000  0.6143180000000  0.5663260000000 1.0
C      1  0.3895330000000  0.5203430000000  0.4262300000000 1.0
C      1  0.4796140000000  0.3886780000000  0.5682610000000 1.0
C      1  0.4985230000000  0.6239240000000  0.5514440000000 1.0
C      1  0.3739610000000  0.4993790000000  0.4396550000000 1.0
C      1  0.5017580000000  0.3749490000000  0.5549690000000 1.0
C      1  0.6175240000000  0.5091420000000  0.4376000000000 1.0
C      1  0.4887450000000  0.5501310000000  0.4842580000000 1.0
C      1  0.4424580000000  0.4972000000000  0.5082120000000 1.0
C      1  0.4821120000000  0.4534950000000  0.4916610000000 1.0
C      1  0.5573540000000  0.5068580000000  0.5220840000000 1.0
C      1  0.5103320000000  0.5731740000000  0.4829270000000 1.0
C      1  0.4259610000000  0.5240300000000  0.5088000000000 1.0
C      1  0.4771400000000  0.4256860000000  0.4883100000000 1.0
C      1  0.5738750000000  0.4816740000000  0.5228330000000 1.0
C      1  0.5910740000000  0.4537460000000  0.5833270000000 1.0
C      1  0.5467740000000  0.5831290000000  0.4233750000000 1.0
C      1  0.4305960000000  0.5477240000000  0.5635330000000 1.0
C      1  0.4562190000000  0.4150830000000  0.4188960000000 1.0
C      1  0.5514260000000  0.4456010000000  0.5014490000000 1.0
C      1  0.5671800000000  0.5490970000000  0.5018710000000 1.0
C      1  0.4454000000000  0.5462270000000  0.5153010000000 1.0
C      1  0.4315150000000  0.4498860000000  0.4947920000000 1.0
C      1  0.5402240000000  0.5928980000000  0.4494840000000 1.0
C      1  0.4057940000000  0.5435260000000  0.5480040000000 1.0
C      1  0.4581440000000  0.4082300000000  0.4472890000000 1.0
C      1  0.5936800000000  0.4570170000000  0.5552780000000 1.0
C      1  0.4848880000000  0.4134490000000  0.4632400000000 1.0
C      1  0.5946440000000  0.4841060000000  0.5422140000000 1.0
C      1  0.5121590000000  0.5898190000000  0.4593930000000 1.0
C      1  0.4060110000000  0.5164590000000  0.5334190000000 1.0
C      1  0.5238880000000  0.6126500000000  0.5101900000000 1.0
C      1  0.3794870000000  0.5272070000000  0.4807160000000 1.0
C      1  0.4754530000000  0.3814330000000  0.5139850000000 1.0
C      1  0.6563690000000  0.4991930000000  0.4665850000000 1.0
C      1  0.4026260000000  0.4118030000000  0.5053990000000 1.0
C      1  0.5863470000000  0.4100920000000  0.4948500000000 1.0
C      1  0.5939860000000  0.5880120000000  0.5101310000000 1.0
C      1  0.4163010000000  0.5867470000000  0.4865260000000 1.0
C      1  0.5087670000000  0.4918180000000  0.4528150000000 1.0
C      1  0.5190770000000  0.5289450000000  0.5435280000000 1.0
C      1  0.4853070000000  0.5092880000000  0.4512190000000 1.0
C      1  0.4792500000000  0.4751040000000  0.5364380000000 1.0
C      1  0.5635040000000  0.3965200000000  0.4809970000000 1.0
C      1  0.6082250000000  0.5632770000000  0.5196890000000 1.0
C      1  0.4404970000000  0.5997270000000  0.4756490000000 1.0
C      1  0.3919570000000  0.4373350000000  0.5177390000000 1.0
C      1  0.4046040000000  0.4535770000000  0.5428050000000 1.0
C      1  0.5475990000000  0.4075040000000  0.4565130000000 1.0
C      1  0.6028200000000  0.5473350000000  0.5456240000000 1.0
C      1  0.4557090000000  0.5942530000000  0.4506830000000 1.0
C      1  0.5353220000000  0.5054340000000  0.3955140000000 1.0
C      1  0.5008080000000  0.5305030000000  0.6151620000000 1.0
C      1  0.4676590000000  0.4951370000000  0.3882850000000 1.0
C      1  0.5097480000000  0.4632970000000  0.6105590000000 1.0
C      1  0.4837270000000  0.5147500000000  0.5972360000000 1.0
C      1  0.4790950000000  0.4736160000000  0.4052980000000 1.0
C      1  0.5257090000000  0.4789270000000  0.5915720000000 1.0
C      1  0.5219200000000  0.5260700000000  0.4118820000000 1.0
C      1  0.4166790000000  0.5307090000000  0.4276750000000 1.0
C      1  0.4693200000000  0.4157350000000  0.5671700000000 1.0
C      1  0.5804250000000  0.4711100000000  0.4343990000000 1.0
C      1  0.5351030000000  0.5873910000000  0.5689020000000 1.0
C      1  0.4920030000000  0.5670770000000  0.3957560000000 1.0
C      1  0.4398170000000  0.4885360000000  0.6012470000000 1.0
C      1  0.5116320000000  0.4325180000000  0.3960210000000 1.0
C      1  0.5729100000000  0.5079060000000  0.6045660000000 1.0
C      1  0.5141720000000  0.5709810000000  0.5568080000000 1.0
C      1  0.4327180000000  0.5118130000000  0.4439740000000 1.0
C      1  0.4877790000000  0.4322270000000  0.5529820000000 1.0
C      1  0.5636000000000  0.4868280000000  0.4527860000000 1.0
C      1  0.5745400000000  0.5039310000000  0.3658040000000 1.0
C      1  0.4930260000000  0.5715810000000  0.6414120000000 1.0
C      1  0.4283990000000  0.4932500000000  0.3580940000000 1.0
C      1  0.5135310000000  0.4254660000000  0.6412590000000 1.0
C      1  0.4752470000000  0.5492960000000  0.4350560000000 1.0
C      1  0.4427620000000  0.4969820000000  0.5579260000000 1.0
C      1  0.5214400000000  0.4508550000000  0.4368770000000 1.0
C      1  0.5543220000000  0.5252040000000  0.5695220000000 1.0
C      1  0.4810310000000  0.4657260000000  0.6084710000000 1.0
C      1  0.5278740000000  0.4776420000000  0.3984460000000 1.0
C      1  0.5291260000000  0.5278030000000  0.6087800000000 1.0
C      1  0.4743520000000  0.5225810000000  0.3954420000000 1.0
C      1  0.4311450000000  0.4140260000000  0.4618890000000 1.0
C      1  0.5793490000000  0.4357530000000  0.5396170000000 1.0
C      1  0.5637720000000  0.5976760000000  0.4668970000000 1.0
C      1  0.4001710000000  0.5678030000000  0.5321350000000 1.0
C      1  0.5099210000000  0.5448640000000  0.5665110000000 1.0
C      1  0.4593630000000  0.5005080000000  0.4397180000000 1.0
C      1  0.4922630000000  0.4600170000000  0.5568190000000 1.0
C      1  0.5370230000000  0.4984490000000  0.4470870000000 1.0
C      1  0.5341900000000  0.4645450000000  0.5401480000000 1.0
C      1  0.5364270000000  0.5375590000000  0.4665460000000 1.0
C      1  0.4737780000000  0.5297430000000  0.5477380000000 1.0
C      1  0.4528480000000  0.4582560000000  0.4521670000000 1.0
C      1  0.4341900000000  0.4422220000000  0.4665020000000 1.0
C      1  0.5528680000000  0.4445450000000  0.5317340000000 1.0
C      1  0.5564600000000  0.5534100000000  0.4774960000000 1.0
C      1  0.4506950000000  0.5438850000000  0.5433840000000 1.0
C      1  0.4467740000000  0.5810840000000  0.4244710000000 1.0
C      1  0.4236540000000  0.4487740000000  0.5687100000000 1.0
C      1  0.5542830000000  0.4196110000000  0.4296420000000 1.0
C      1  0.5885830000000  0.5544760000000  0.5720050000000 1.0
C      1  0.5318090000000  0.4169910000000  0.4082620000000 1.0
C      1  0.5894510000000  0.5290140000000  0.5946070000000 1.0
C      1  0.4700060000000  0.5824330000000  0.4037770000000 1.0
C      1  0.4225490000000  0.4713840000000  0.5885060000000 1.0
C      1  0.4987860000000  0.5266240000000  0.5000840000000 1.0
C      1  0.4617000000000  0.4950280000000  0.4867040000000 1.0
C      1  0.4944250000000  0.4742440000000  0.5107690000000 1.0
C      1  0.5357980000000  0.4995280000000  0.5036690000000 1.0
C      1  0.5846210000000  0.4107040000000  0.5249650000000 1.0
C      1  0.5879690000000  0.5894000000000  0.4808710000000 1.0
C      1  0.4125110000000  0.5883620000000  0.5160770000000 1.0
C      1  0.4043210000000  0.4107940000000  0.4753090000000 1.0
C      1  0.5206940000000  0.4164260000000  0.4669310000000 1.0
C      1  0.6002510000000  0.5189280000000  0.5385060000000 1.0
C      1  0.4854760000000  0.5987660000000  0.4513970000000 1.0
C      1  0.4053730000000  0.4822070000000  0.5314930000000 1.0
C      1  0.4869860000000  0.5006320000000  0.4968290000000 1.0
END
