TITL C-74080-5790-22 -1.62338794594135e-07 125000 -287.814267071399 0 0 48 (C1) n - 1
REM
REM in /home/nfs/bkarasulu/CARBON/AIRSS/Generating-Clusters/LCBOP/Higher-Symm/SD-CG/FIRE-CG
REM
REM
REM
REM
REM
REM ./C.cell (b20cbc046b6831c77cfcea5457e17084)
REM AIRSS Version 0.9.1 bugfix July 2018 build 013d7b7c2542+ Fri, 06 Jul 2018 19:26:36 +0100
REM compiler GCC version 9.2.1 20190827 (Red Hat 9.2.1-1)
REM options -cpp -mtune=generic -march=x86-64 -g -O0 -fpre-include=/usr/include/finclude/math-vector-fortran.h
REM seed -306688186 -1830183965 -1651325731 -55856037 584991959 -1669719529 -1181881933 -1974309704 -2064781499 -461111713 -1237839348 -1107322079 1545133707 -1239571990 -661702517 -1538650022 -2008904778 -442495311 -2088728519 1469885771 -775973987 -579587305 33098 701293916 2095213378 -21503810 833828821 -1965657267 1585900655 25426312 -392137940 2144813256 -2088409819
REM
CELL 1.54180   50.00000   50.00000   50.00000   90.00000   90.00000   90.00000
LATT -1
SFAC C  
C      1  0.5399700000000  0.5532420000000  0.5302710000000 1.0
C      1  0.4475890000000  0.5478040000000  0.4770130000000 1.0
C      1  0.4911700000000  0.4702490000000  0.5172800000000 1.0
C      1  0.5203730000000  0.4780070000000  0.4504520000000 1.0
C      1  0.5520800000000  0.5620710000000  0.4739830000000 1.0
C      1  0.4555180000000  0.4524530000000  0.5387740000000 1.0
C      1  0.4664370000000  0.5299020000000  0.5435820000000 1.0
C      1  0.4649520000000  0.5106430000000  0.5622200000000 1.0
C      1  0.5329040000000  0.5743050000000  0.4886310000000 1.0
C      1  0.5135380000000  0.5258520000000  0.4518200000000 1.0
C      1  0.5476880000000  0.5095260000000  0.5110250000000 1.0
C      1  0.5288910000000  0.5032920000000  0.4626470000000 1.0
C      1  0.5088610000000  0.4549810000000  0.4636870000000 1.0
C      1  0.4788030000000  0.4980020000000  0.4398490000000 1.0
C      1  0.5609720000000  0.5365050000000  0.4733060000000 1.0
C      1  0.4705030000000  0.4867410000000  0.4654170000000 1.0
C      1  0.5253420000000  0.4118900000000  0.4478760000000 1.0
C      1  0.5192530000000  0.4691190000000  0.5189260000000 1.0
C      1  0.4874040000000  0.5254220000000  0.4407100000000 1.0
C      1  0.4657680000000  0.5031360000000  0.4890570000000 1.0
C      1  0.5374830000000  0.4925610000000  0.5558770000000 1.0
C      1  0.4762110000000  0.4441490000000  0.5185600000000 1.0
C      1  0.4677670000000  0.4879960000000  0.5128860000000 1.0
C      1  0.4809740000000  0.4588970000000  0.4710240000000 1.0
C      1  0.6089550000000  0.5326320000000  0.5436110000000 1.0
C      1  0.4427840000000  0.4740630000000  0.5226100000000 1.0
C      1  0.5352510000000  0.4903590000000  0.5278050000000 1.0
C      1  0.4941600000000  0.5599960000000  0.5164090000000 1.0
C      1  0.4257300000000  0.4627250000000  0.5026590000000 1.0
C      1  0.5842750000000  0.5326420000000  0.5352480000000 1.0
C      1  0.5009640000000  0.4829070000000  0.4288940000000 1.0
C      1  0.4498960000000  0.5586680000000  0.4512360000000 1.0
C      1  0.4731160000000  0.5414190000000  0.5185810000000 1.0
C      1  0.4730320000000  0.4859940000000  0.5738290000000 1.0
C      1  0.5346110000000  0.4280440000000  0.4927850000000 1.0
C      1  0.5480080000000  0.5123470000000  0.4821280000000 1.0
C      1  0.4615840000000  0.5309020000000  0.4943210000000 1.0
C      1  0.4665730000000  0.4417310000000  0.4899280000000 1.0
C      1  0.5322830000000  0.4447310000000  0.5135660000000 1.0
C      1  0.4982370000000  0.4858450000000  0.5863110000000 1.0
C      1  0.5235400000000  0.4896300000000  0.5784700000000 1.0
C      1  0.4705530000000  0.5470170000000  0.4361620000000 1.0
C      1  0.5213700000000  0.5657230000000  0.5130300000000 1.0
C      1  0.4618210000000  0.4613580000000  0.5648900000000 1.0
C      1  0.4378540000000  0.4431880000000  0.4875210000000 1.0
C      1  0.4337980000000  0.5784620000000  0.4418040000000 1.0
C      1  0.5231140000000  0.4308120000000  0.4673330000000 1.0
C      1  0.5580400000000  0.5320600000000  0.5259960000000 1.0
END
