TITL C-74083-3671-324 -4.46889745844639e-07 125000 -1068.6781075467 0 0 172 (C1) n - 1
REM
REM in /home/nfs/bkarasulu/CARBON/AIRSS/Generating-Clusters/LCBOP/Higher-Symm/SD-CG/FIRE-CG
REM
REM
REM
REM
REM
REM ./C.cell (b20cbc046b6831c77cfcea5457e17084)
REM AIRSS Version 0.9.1 bugfix July 2018 build 013d7b7c2542+ Fri, 06 Jul 2018 19:26:36 +0100
REM compiler GCC version 9.2.1 20190827 (Red Hat 9.2.1-1)
REM options -cpp -mtune=generic -march=x86-64 -g -O0 -fpre-include=/usr/include/finclude/math-vector-fortran.h
REM seed 1811150297 380680225 95879509 -374420060 -273454239 -161240039 2029926467 -1414539027 -1068605305 2002590710 813599647 1546802781 -515993529 -1024024021 -28794929 -1138479605 -1591662535 -1611779708 -2133013326 1176803046 1008872977 -243633453 1661215071 313044808 671991707 2087369574 -1384569987 904822850 -1029001175 -988756859 2003346088 -287106660 -2061624646
REM
CELL 1.54180   50.00000   50.00000   50.00000   90.00000   90.00000   90.00000
LATT -1
SFAC C  
C      1  0.4977870000000  0.4631980000000  0.4433680000000 1.0
C      1  0.5025580000000  0.4650970000000  0.5537180000000 1.0
C      1  0.4943710000000  0.5330660000000  0.4397830000000 1.0
C      1  0.5017160000000  0.5352420000000  0.5520750000000 1.0
C      1  0.4663740000000  0.5609380000000  0.5879520000000 1.0
C      1  0.5348490000000  0.5632430000000  0.4132670000000 1.0
C      1  0.4670500000000  0.4387340000000  0.5882520000000 1.0
C      1  0.5354570000000  0.4374790000000  0.4123260000000 1.0
C      1  0.6006160000000  0.4707570000000  0.5344450000000 1.0
C      1  0.4036400000000  0.4704800000000  0.4663980000000 1.0
C      1  0.5997720000000  0.5292750000000  0.5336320000000 1.0
C      1  0.4010550000000  0.5300970000000  0.4650140000000 1.0
C      1  0.4239490000000  0.5288330000000  0.5654530000000 1.0
C      1  0.5737990000000  0.5274970000000  0.4359720000000 1.0
C      1  0.4241310000000  0.4713830000000  0.5662940000000 1.0
C      1  0.5741340000000  0.4704640000000  0.4337300000000 1.0
C      1  0.4114200000000  0.5771120000000  0.4754650000000 1.0
C      1  0.5901340000000  0.5765980000000  0.5256180000000 1.0
C      1  0.4119730000000  0.4232680000000  0.4751900000000 1.0
C      1  0.5898560000000  0.4237420000000  0.5259150000000 1.0
C      1  0.5331840000000  0.5840160000000  0.5832950000000 1.0
C      1  0.4762490000000  0.5928250000000  0.4165270000000 1.0
C      1  0.5338170000000  0.4160900000000  0.5834190000000 1.0
C      1  0.4699900000000  0.4123350000000  0.4177360000000 1.0
C      1  0.5716310000000  0.4088830000000  0.5082840000000 1.0
C      1  0.4295760000000  0.4086340000000  0.4933580000000 1.0
C      1  0.5719110000000  0.5915190000000  0.5081420000000 1.0
C      1  0.4301700000000  0.5911080000000  0.4928520000000 1.0
C      1  0.4508640000000  0.4852360000000  0.5658400000000 1.0
C      1  0.5484200000000  0.4839140000000  0.4370800000000 1.0
C      1  0.4507010000000  0.5154320000000  0.5647090000000 1.0
C      1  0.5477620000000  0.5134940000000  0.4364870000000 1.0
C      1  0.5678000000000  0.5294510000000  0.4991080000000 1.0
C      1  0.4240100000000  0.5281880000000  0.5037460000000 1.0
C      1  0.5695990000000  0.4723000000000  0.4993120000000 1.0
C      1  0.4244680000000  0.4711150000000  0.5057290000000 1.0
C      1  0.5413260000000  0.4206290000000  0.4336290000000 1.0
C      1  0.4595530000000  0.4229000000000  0.5669620000000 1.0
C      1  0.5403720000000  0.5798190000000  0.4347590000000 1.0
C      1  0.4588670000000  0.5768510000000  0.5667890000000 1.0
C      1  0.4908810000000  0.5461280000000  0.4122220000000 1.0
C      1  0.5091550000000  0.5419850000000  0.5813380000000 1.0
C      1  0.4925550000000  0.4554030000000  0.4148530000000 1.0
C      1  0.5099560000000  0.4581220000000  0.5828170000000 1.0
C      1  0.4586560000000  0.4695830000000  0.4734690000000 1.0
C      1  0.5498130000000  0.4749750000000  0.5440210000000 1.0
C      1  0.4551150000000  0.5278670000000  0.4679440000000 1.0
C      1  0.5491560000000  0.5255760000000  0.5438040000000 1.0
C      1  0.4915000000000  0.6162220000000  0.5111870000000 1.0
C      1  0.5108600000000  0.6178780000000  0.4925340000000 1.0
C      1  0.4915790000000  0.3832590000000  0.5106950000000 1.0
C      1  0.5100010000000  0.3817260000000  0.4909500000000 1.0
C      1  0.5230840000000  0.5147410000000  0.3921940000000 1.0
C      1  0.4796900000000  0.5137010000000  0.6078850000000 1.0
C      1  0.5230230000000  0.4868590000000  0.3924290000000 1.0
C      1  0.4796510000000  0.4862250000000  0.6082970000000 1.0
C      1  0.5571760000000  0.6106800000000  0.5227790000000 1.0
C      1  0.4459900000000  0.6097890000000  0.4787700000000 1.0
C      1  0.5572100000000  0.3893390000000  0.5226900000000 1.0
C      1  0.4446040000000  0.3890860000000  0.4795280000000 1.0
C      1  0.4574260000000  0.5901870000000  0.5403370000000 1.0
C      1  0.5436280000000  0.5935340000000  0.4611900000000 1.0
C      1  0.4577040000000  0.4094760000000  0.5404630000000 1.0
C      1  0.5435410000000  0.4070030000000  0.4604200000000 1.0
C      1  0.4808030000000  0.6068900000000  0.5356790000000 1.0
C      1  0.5223430000000  0.6122610000000  0.4672160000000 1.0
C      1  0.4811530000000  0.3928050000000  0.5353970000000 1.0
C      1  0.5209150000000  0.3891790000000  0.4656630000000 1.0
C      1  0.4151650000000  0.4344020000000  0.5329980000000 1.0
C      1  0.5815040000000  0.4367080000000  0.4693440000000 1.0
C      1  0.4153290000000  0.5650590000000  0.5317880000000 1.0
C      1  0.5810480000000  0.5637180000000  0.4687850000000 1.0
C      1  0.5588290000000  0.4852780000000  0.5721240000000 1.0
C      1  0.4431330000000  0.4827250000000  0.4110210000000 1.0
C      1  0.5584230000000  0.5153010000000  0.5718490000000 1.0
C      1  0.4523190000000  0.5063210000000  0.4207540000000 1.0
C      1  0.5215260000000  0.4865270000000  0.5442290000000 1.0
C      1  0.4764480000000  0.4838520000000  0.4528600000000 1.0
C      1  0.5212400000000  0.5136750000000  0.5437610000000 1.0
C      1  0.4699620000000  0.5123170000000  0.4450000000000 1.0
C      1  0.5124930000000  0.5577940000000  0.5337930000000 1.0
C      1  0.4888510000000  0.5586590000000  0.4594870000000 1.0
C      1  0.5134540000000  0.4420490000000  0.5359920000000 1.0
C      1  0.4915860000000  0.4384550000000  0.4619090000000 1.0
C      1  0.4660180000000  0.4743780000000  0.5234460000000 1.0
C      1  0.5260900000000  0.4747820000000  0.4792020000000 1.0
C      1  0.4659530000000  0.5252660000000  0.5207480000000 1.0
C      1  0.5241000000000  0.5238460000000  0.4769910000000 1.0
C      1  0.4194800000000  0.5557800000000  0.5582080000000 1.0
C      1  0.5772080000000  0.5547570000000  0.4423370000000 1.0
C      1  0.4199320000000  0.4442390000000  0.5592140000000 1.0
C      1  0.5787890000000  0.4441510000000  0.4424140000000 1.0
C      1  0.4796540000000  0.6114810000000  0.4374260000000 1.0
C      1  0.5259230000000  0.6041900000000  0.5646860000000 1.0
C      1  0.4760500000000  0.3923390000000  0.4370110000000 1.0
C      1  0.5264310000000  0.3959210000000  0.5647210000000 1.0
C      1  0.5027520000000  0.3857460000000  0.4438030000000 1.0
C      1  0.4995560000000  0.3909220000000  0.5573270000000 1.0
C      1  0.5055900000000  0.6191530000000  0.4453240000000 1.0
C      1  0.4989600000000  0.6090780000000  0.5576930000000 1.0
C      1  0.5229360000000  0.5248090000000  0.4482530000000 1.0
C      1  0.4731830000000  0.5272540000000  0.5481600000000 1.0
C      1  0.5255120000000  0.4718150000000  0.4507560000000 1.0
C      1  0.4738360000000  0.4729460000000  0.5505460000000 1.0
C      1  0.5419410000000  0.4457530000000  0.5392880000000 1.0
C      1  0.4634180000000  0.4408130000000  0.4662510000000 1.0
C      1  0.5409290000000  0.5547400000000  0.5382110000000 1.0
C      1  0.4608120000000  0.5565780000000  0.4625640000000 1.0
C      1  0.5053680000000  0.4309190000000  0.4849040000000 1.0
C      1  0.5056710000000  0.4318830000000  0.5115160000000 1.0
C      1  0.5024620000000  0.5673090000000  0.4821460000000 1.0
C      1  0.5045550000000  0.5668230000000  0.5087730000000 1.0
C      1  0.5838490000000  0.5561400000000  0.5721260000000 1.0
C      1  0.4189570000000  0.5599100000000  0.4296430000000 1.0
C      1  0.5842960000000  0.4441680000000  0.5726400000000 1.0
C      1  0.4209050000000  0.4432790000000  0.4299090000000 1.0
C      1  0.5015170000000  0.5131910000000  0.4902760000000 1.0
C      1  0.4772980000000  0.5246440000000  0.4956020000000 1.0
C      1  0.5026990000000  0.4846760000000  0.4922160000000 1.0
C      1  0.4779670000000  0.4725540000000  0.4984130000000 1.0
C      1  0.4006700000000  0.4866920000000  0.5625030000000 1.0
C      1  0.5974750000000  0.4857710000000  0.4334080000000 1.0
C      1  0.4006200000000  0.5133810000000  0.5622010000000 1.0
C      1  0.5979100000000  0.5127660000000  0.4398160000000 1.0
C      1  0.5652810000000  0.4152590000000  0.4798670000000 1.0
C      1  0.4344180000000  0.4153430000000  0.5219380000000 1.0
C      1  0.5655330000000  0.5853400000000  0.4796930000000 1.0
C      1  0.4346680000000  0.5842280000000  0.5212950000000 1.0
C      1  0.4694100000000  0.5657690000000  0.4108200000000 1.0
C      1  0.5345970000000  0.5556630000000  0.5870940000000 1.0
C      1  0.4681480000000  0.4402230000000  0.4119290000000 1.0
C      1  0.5353540000000  0.4444300000000  0.5878820000000 1.0
C      1  0.6128560000000  0.5271870000000  0.4867150000000 1.0
C      1  0.3805100000000  0.5286410000000  0.5108950000000 1.0
C      1  0.6151080000000  0.4717410000000  0.4879580000000 1.0
C      1  0.3807860000000  0.4709430000000  0.5110410000000 1.0
C      1  0.4591390000000  0.6159660000000  0.4562990000000 1.0
C      1  0.5449400000000  0.6140480000000  0.5463440000000 1.0
C      1  0.4567010000000  0.3845280000000  0.4560570000000 1.0
C      1  0.5455120000000  0.3859160000000  0.5465200000000 1.0
C      1  0.4069400000000  0.4436570000000  0.4550000000000 1.0
C      1  0.5968040000000  0.4438660000000  0.5460700000000 1.0
C      1  0.4053470000000  0.5574360000000  0.4548470000000 1.0
C      1  0.5965150000000  0.5561800000000  0.5455690000000 1.0
C      1  0.6175790000000  0.4849080000000  0.5145620000000 1.0
C      1  0.3832180000000  0.4845830000000  0.4837870000000 1.0
C      1  0.6166610000000  0.5149580000000  0.5137800000000 1.0
C      1  0.3820520000000  0.5150900000000  0.4835840000000 1.0
C      1  0.5899930000000  0.4579060000000  0.4859670000000 1.0
C      1  0.4041210000000  0.4542630000000  0.5156840000000 1.0
C      1  0.5888680000000  0.5428940000000  0.4859930000000 1.0
C      1  0.4041070000000  0.5452010000000  0.5145880000000 1.0
C      1  0.4415200000000  0.5599080000000  0.4145580000000 1.0
C      1  0.5611060000000  0.5418030000000  0.5844660000000 1.0
C      1  0.4428280000000  0.4544370000000  0.4150910000000 1.0
C      1  0.5616400000000  0.4586880000000  0.5848500000000 1.0
C      1  0.4275110000000  0.5242990000000  0.4761050000000 1.0
C      1  0.5723530000000  0.5235460000000  0.5259930000000 1.0
C      1  0.4300610000000  0.4742030000000  0.4783640000000 1.0
C      1  0.5733880000000  0.4769980000000  0.5265290000000 1.0
C      1  0.5180520000000  0.4590740000000  0.4015280000000 1.0
C      1  0.4851340000000  0.4596940000000  0.5976890000000 1.0
C      1  0.5176190000000  0.5426560000000  0.4009660000000 1.0
C      1  0.4847410000000  0.5400960000000  0.5968020000000 1.0
C      1  0.3747390000000  0.5134260000000  0.5339410000000 1.0
C      1  0.6171130000000  0.5129550000000  0.4625040000000 1.0
C      1  0.3743520000000  0.4862440000000  0.5338230000000 1.0
C      1  0.6227660000000  0.4853270000000  0.4646390000000 1.0
C      1  0.5484330000000  0.5146710000000  0.4870180000000 1.0
C      1  0.4405430000000  0.5136520000000  0.5194470000000 1.0
C      1  0.5495960000000  0.4866050000000  0.4879050000000 1.0
C      1  0.4406780000000  0.4861440000000  0.5212380000000 1.0
END
