TITL C-74080-5790-351 -7.27697496257281e-07 125000 -690.5574344265 0 0 113 (C1) n - 1
REM
REM in /home/nfs/bkarasulu/CARBON/AIRSS/Generating-Clusters/LCBOP/Higher-Symm/SD-CG/FIRE-CG
REM
REM
REM
REM
REM
REM ./C.cell (b20cbc046b6831c77cfcea5457e17084)
REM AIRSS Version 0.9.1 bugfix July 2018 build 013d7b7c2542+ Fri, 06 Jul 2018 19:26:36 +0100
REM compiler GCC version 9.2.1 20190827 (Red Hat 9.2.1-1)
REM options -cpp -mtune=generic -march=x86-64 -g -O0 -fpre-include=/usr/include/finclude/math-vector-fortran.h
REM seed 307576016 235827632 -1624093845 -1722345410 1257733930 1205286135 -724465481 996002985 -67514329 688635731 2117816691 974312553 1447297767 -265481098 869798992 -1495888593 555983017 1389625797 947676789 -571664666 -468241691 -1093730329 87539911 891136683 2119335979 1303211851 250006866 -1811577732 702653007 -1139781355 -2068696355 -1247385680 1318060709
REM
CELL 1.54180   50.00000   50.00000   50.00000   90.00000   90.00000   90.00000
LATT -1
SFAC C  
C      1  0.5051830000000  0.4739310000000  0.4050080000000 1.0
C      1  0.5126840000000  0.4414070000000  0.5669760000000 1.0
C      1  0.5188100000000  0.5878210000000  0.5084870000000 1.0
C      1  0.5403420000000  0.5385190000000  0.3595130000000 1.0
C      1  0.5267180000000  0.3975900000000  0.5249080000000 1.0
C      1  0.5160910000000  0.5548180000000  0.5570970000000 1.0
C      1  0.4445070000000  0.4908880000000  0.3808490000000 1.0
C      1  0.4424230000000  0.4256670000000  0.5792810000000 1.0
C      1  0.4531850000000  0.6015770000000  0.5453650000000 1.0
C      1  0.5335000000000  0.5769770000000  0.4172580000000 1.0
C      1  0.5354340000000  0.4121700000000  0.4649350000000 1.0
C      1  0.5327280000000  0.5271680000000  0.6039350000000 1.0
C      1  0.4837260000000  0.5585620000000  0.4684030000000 1.0
C      1  0.4781530000000  0.4506340000000  0.4898240000000 1.0
C      1  0.4596960000000  0.4696680000000  0.5667830000000 1.0
C      1  0.5276140000000  0.5443020000000  0.4912390000000 1.0
C      1  0.5245570000000  0.4578360000000  0.4927290000000 1.0
C      1  0.5227740000000  0.5088130000000  0.5554150000000 1.0
C      1  0.5678340000000  0.4831130000000  0.5649760000000 1.0
C      1  0.5723300000000  0.5598270000000  0.4826230000000 1.0
C      1  0.5608350000000  0.4676460000000  0.4583990000000 1.0
C      1  0.5292970000000  0.5222790000000  0.5118120000000 1.0
C      1  0.5232350000000  0.5052170000000  0.4674050000000 1.0
C      1  0.5126200000000  0.5014230000000  0.4972120000000 1.0
C      1  0.5037870000000  0.4439040000000  0.4789610000000 1.0
C      1  0.5072860000000  0.4863490000000  0.5584060000000 1.0
C      1  0.4992990000000  0.5483870000000  0.4893970000000 1.0
C      1  0.5727430000000  0.5375560000000  0.5247550000000 1.0
C      1  0.5716230000000  0.5125950000000  0.4460720000000 1.0
C      1  0.5735480000000  0.4591370000000  0.5256000000000 1.0
C      1  0.4513590000000  0.4900270000000  0.4490680000000 1.0
C      1  0.4392560000000  0.4443800000000  0.5217960000000 1.0
C      1  0.4266270000000  0.5427050000000  0.5287040000000 1.0
C      1  0.4696920000000  0.5241410000000  0.5139850000000 1.0
C      1  0.4703080000000  0.4788580000000  0.4891850000000 1.0
C      1  0.4667770000000  0.4763080000000  0.5393800000000 1.0
C      1  0.4776000000000  0.5956800000000  0.5365440000000 1.0
C      1  0.4706950000000  0.4949320000000  0.3772560000000 1.0
C      1  0.4643200000000  0.4419170000000  0.5722330000000 1.0
C      1  0.4892750000000  0.5474100000000  0.5181800000000 1.0
C      1  0.4788280000000  0.4959740000000  0.4437580000000 1.0
C      1  0.4951180000000  0.4769080000000  0.5348750000000 1.0
C      1  0.4324840000000  0.4875170000000  0.4287710000000 1.0
C      1  0.4204800000000  0.4301700000000  0.5372410000000 1.0
C      1  0.4196720000000  0.5659240000000  0.5395760000000 1.0
C      1  0.4827790000000  0.5216750000000  0.6032030000000 1.0
C      1  0.4941270000000  0.5457720000000  0.4162940000000 1.0
C      1  0.4619100000000  0.4300560000000  0.5073000000000 1.0
C      1  0.4292630000000  0.5897670000000  0.5467520000000 1.0
C      1  0.4288430000000  0.4877700000000  0.4023290000000 1.0
C      1  0.4217090000000  0.4209270000000  0.5625500000000 1.0
C      1  0.5431100000000  0.4644800000000  0.4366030000000 1.0
C      1  0.5557450000000  0.4596080000000  0.5764490000000 1.0
C      1  0.5653410000000  0.5847540000000  0.4948530000000 1.0
C      1  0.5039150000000  0.5254580000000  0.3972390000000 1.0
C      1  0.4814810000000  0.4188790000000  0.5306630000000 1.0
C      1  0.4825400000000  0.5485830000000  0.5947050000000 1.0
C      1  0.4469020000000  0.4852470000000  0.4760750000000 1.0
C      1  0.4445840000000  0.4719080000000  0.5227690000000 1.0
C      1  0.4425500000000  0.5228700000000  0.5179090000000 1.0
C      1  0.4999040000000  0.3984650000000  0.5244160000000 1.0
C      1  0.4958810000000  0.5613930000000  0.5753460000000 1.0
C      1  0.5240010000000  0.5337920000000  0.3792640000000 1.0
C      1  0.5070050000000  0.4950630000000  0.4467660000000 1.0
C      1  0.5136480000000  0.4753280000000  0.5125370000000 1.0
C      1  0.5124800000000  0.5325370000000  0.5365520000000 1.0
C      1  0.5411110000000  0.4408550000000  0.5594090000000 1.0
C      1  0.5469470000000  0.5818560000000  0.5172530000000 1.0
C      1  0.5212220000000  0.4796810000000  0.4277440000000 1.0
C      1  0.5093250000000  0.4680920000000  0.5802000000000 1.0
C      1  0.5141440000000  0.5924410000000  0.4786340000000 1.0
C      1  0.4970060000000  0.4464920000000  0.4094200000000 1.0
C      1  0.5493920000000  0.5453700000000  0.4733220000000 1.0
C      1  0.5508380000000  0.4667960000000  0.4850790000000 1.0
C      1  0.5512220000000  0.5029030000000  0.5519910000000 1.0
C      1  0.5473440000000  0.4146590000000  0.5156340000000 1.0
C      1  0.5441190000000  0.5571140000000  0.5629810000000 1.0
C      1  0.5781420000000  0.5531580000000  0.4149930000000 1.0
C      1  0.4444900000000  0.4165090000000  0.4858080000000 1.0
C      1  0.4594480000000  0.5063420000000  0.5976870000000 1.0
C      1  0.4676900000000  0.5434230000000  0.4271530000000 1.0
C      1  0.4950590000000  0.5781870000000  0.5237650000000 1.0
C      1  0.4942130000000  0.4978680000000  0.3924970000000 1.0
C      1  0.4869120000000  0.4310820000000  0.5573360000000 1.0
C      1  0.5509800000000  0.4122460000000  0.4873670000000 1.0
C      1  0.5481410000000  0.5439140000000  0.5883990000000 1.0
C      1  0.5590680000000  0.5715890000000  0.4119580000000 1.0
C      1  0.4371920000000  0.5384430000000  0.4665280000000 1.0
C      1  0.4054630000000  0.4502940000000  0.4828960000000 1.0
C      1  0.4219550000000  0.4980160000000  0.5636640000000 1.0
C      1  0.5877140000000  0.5443140000000  0.5011490000000 1.0
C      1  0.5808010000000  0.4868660000000  0.4526760000000 1.0
C      1  0.5873790000000  0.4716240000000  0.5471830000000 1.0
C      1  0.5550160000000  0.4366520000000  0.5331030000000 1.0
C      1  0.5577880000000  0.5609730000000  0.5373970000000 1.0
C      1  0.5828820000000  0.5299700000000  0.4273680000000 1.0
C      1  0.5018600000000  0.5775970000000  0.4555980000000 1.0
C      1  0.5013920000000  0.4303050000000  0.4311800000000 1.0
C      1  0.5113050000000  0.4817890000000  0.6048180000000 1.0
C      1  0.5477540000000  0.5204260000000  0.4597680000000 1.0
C      1  0.5642190000000  0.4789250000000  0.5071280000000 1.0
C      1  0.5568520000000  0.5108060000000  0.5224240000000 1.0
C      1  0.4037920000000  0.4750320000000  0.4945400000000 1.0
C      1  0.4121680000000  0.4979770000000  0.5396250000000 1.0
C      1  0.4218170000000  0.5223500000000  0.4795810000000 1.0
C      1  0.4449460000000  0.4906130000000  0.5791340000000 1.0
C      1  0.4612650000000  0.5477870000000  0.4546120000000 1.0
C      1  0.4208920000000  0.4284070000000  0.4778990000000 1.0
C      1  0.5118780000000  0.4267110000000  0.4576010000000 1.0
C      1  0.5093200000000  0.5103240000000  0.6077330000000 1.0
C      1  0.5094890000000  0.5682070000000  0.4288110000000 1.0
C      1  0.4253970000000  0.4943780000000  0.5035130000000 1.0
C      1  0.4826180000000  0.5036120000000  0.4979440000000 1.0
END
