TITL C-74084-3399-98 34.8282918925773 125000 -927.647126133496 0 0 158 (C1) n - 1
REM
REM in /home/nfs/bkarasulu/CARBON/AIRSS/Generating-Clusters/LCBOP/Higher-Symm/SD-CG/FIRE-CG
REM
REM
REM
REM
REM
REM ./C.cell (b20cbc046b6831c77cfcea5457e17084)
REM AIRSS Version 0.9.1 bugfix July 2018 build 013d7b7c2542+ Fri, 06 Jul 2018 19:26:36 +0100
REM compiler GCC version 9.2.1 20190827 (Red Hat 9.2.1-1)
REM options -cpp -mtune=generic -march=x86-64 -g -O0 -fpre-include=/usr/include/finclude/math-vector-fortran.h
REM seed -427016723 92747059 738771006 1105961201 -180058164 -1909215697 1329658899 1195032147 -1241164736 1703486783 896986713 -542630856 1992393782 542898578 -697674225 773806712 -583648320 1530501769 -1712307753 1979546485 -1064680258 1838854359 581863233 1483517875 -1348510916 -1345385830 -823053963 -500953570 1340114893 1640657329 -1635574841 352605698 -1408636286
REM
CELL 1.54180   50.00000   50.00000   50.00000   90.00000   90.00000   90.00000
LATT -1
SFAC C  
C      1  0.5347040000000  0.4087440000000  0.4779520000000 1.0
C      1  0.5369780000000  0.5651370000000  0.4317070000000 1.0
C      1  0.5372320000000  0.5288460000000  0.5915240000000 1.0
C      1  0.3839780000000  0.4952680000000  0.3795410000000 1.0
C      1  0.3825440000000  0.6028010000000  0.5501370000000 1.0
C      1  0.3875050000000  0.4051350000000  0.5673670000000 1.0
C      1  0.4489630000000  0.4696140000000  0.4133650000000 1.0
C      1  0.4491740000000  0.5877000000000  0.5147720000000 1.0
C      1  0.4541710000000  0.4506230000000  0.5698680000000 1.0
C      1  0.4081210000000  0.5236420000000  0.5451540000000 1.0
C      1  0.4038450000000  0.4456290000000  0.4962210000000 1.0
C      1  0.4087450000000  0.5263170000000  0.4530750000000 1.0
C      1  0.5219160000000  0.4633480000000  0.5541510000000 1.0
C      1  0.5154970000000  0.4717340000000  0.4414960000000 1.0
C      1  0.5141650000000  0.5606830000000  0.5015850000000 1.0
C      1  0.5049100000000  0.4128730000000  0.3763710000000 1.0
C      1  0.5092600000000  0.6483830000000  0.4835390000000 1.0
C      1  0.5115600000000  0.4306980000000  0.6401090000000 1.0
C      1  0.4445200000000  0.4229440000000  0.4546050000000 1.0
C      1  0.4433290000000  0.5781710000000  0.4544550000000 1.0
C      1  0.4440990000000  0.4995240000000  0.5907600000000 1.0
C      1  0.4009190000000  0.5856890000000  0.5571050000000 1.0
C      1  0.4046340000000  0.4086010000000  0.5480370000000 1.0
C      1  0.4020790000000  0.5092200000000  0.3920610000000 1.0
C      1  0.5642250000000  0.5324080000000  0.4964450000000 1.0
C      1  0.5612720000000  0.4874660000000  0.5233850000000 1.0
C      1  0.5706180000000  0.4742740000000  0.4748330000000 1.0
C      1  0.5450300000000  0.5579190000000  0.5862950000000 1.0
C      1  0.5423940000000  0.3985450000000  0.5058340000000 1.0
C      1  0.5459620000000  0.5470920000000  0.4086350000000 1.0
C      1  0.4495730000000  0.5747350000000  0.5670390000000 1.0
C      1  0.4526970000000  0.4122470000000  0.5323880000000 1.0
C      1  0.4505030000000  0.5232560000000  0.3984320000000 1.0
C      1  0.5046490000000  0.4471230000000  0.4829880000000 1.0
C      1  0.5025640000000  0.5341940000000  0.4515150000000 1.0
C      1  0.5050610000000  0.5253010000000  0.5562880000000 1.0
C      1  0.5004090000000  0.4361060000000  0.5879250000000 1.0
C      1  0.4950690000000  0.4604870000000  0.3990230000000 1.0
C      1  0.4958250000000  0.6049720000000  0.5121500000000 1.0
C      1  0.6075980000000  0.4824690000000  0.5060660000000 1.0
C      1  0.6030180000000  0.5157440000000  0.4694190000000 1.0
C      1  0.6014670000000  0.5195050000000  0.5293980000000 1.0
C      1  0.5286590000000  0.5477780000000  0.4562330000000 1.0
C      1  0.5321960000000  0.5145670000000  0.5631290000000 1.0
C      1  0.5308200000000  0.4399580000000  0.4783590000000 1.0
C      1  0.4174100000000  0.5392200000000  0.5668310000000 1.0
C      1  0.4174050000000  0.4210550000000  0.5010130000000 1.0
C      1  0.4177650000000  0.5389050000000  0.4294680000000 1.0
C      1  0.5658060000000  0.5471740000000  0.5449050000000 1.0
C      1  0.5678740000000  0.4356720000000  0.5192520000000 1.0
C      1  0.5669790000000  0.5152240000000  0.4370910000000 1.0
C      1  0.4624820000000  0.4056990000000  0.5034930000000 1.0
C      1  0.4586800000000  0.5523900000000  0.4090850000000 1.0
C      1  0.4582030000000  0.5522760000000  0.5883290000000 1.0
C      1  0.5473210000000  0.5065530000000  0.4567080000000 1.0
C      1  0.5495030000000  0.5331060000000  0.5226650000000 1.0
C      1  0.5506740000000  0.4610860000000  0.5159770000000 1.0
C      1  0.4999190000000  0.4363400000000  0.3865400000000 1.0
C      1  0.5022050000000  0.6276300000000  0.4976300000000 1.0
C      1  0.5057690000000  0.4327990000000  0.6147900000000 1.0
C      1  0.5706980000000  0.4533230000000  0.5756570000000 1.0
C      1  0.5726680000000  0.4604420000000  0.4271990000000 1.0
C      1  0.5717460000000  0.5826130000000  0.5037030000000 1.0
C      1  0.4636160000000  0.4228430000000  0.5582210000000 1.0
C      1  0.4622740000000  0.4960970000000  0.3923370000000 1.0
C      1  0.4609960000000  0.5932870000000  0.5452260000000 1.0
C      1  0.5229330000000  0.4925340000000  0.4580900000000 1.0
C      1  0.5204680000000  0.5370300000000  0.5147180000000 1.0
C      1  0.5224590000000  0.4590530000000  0.5264730000000 1.0
C      1  0.4252210000000  0.5067320000000  0.5276690000000 1.0
C      1  0.4201840000000  0.4694920000000  0.4889280000000 1.0
C      1  0.4246660000000  0.5206090000000  0.4776120000000 1.0
C      1  0.5017380000000  0.5092580000000  0.4676910000000 1.0
C      1  0.5004480000000  0.5206710000000  0.5272540000000 1.0
C      1  0.4992300000000  0.4552810000000  0.5093000000000 1.0
C      1  0.5452620000000  0.5303260000000  0.4730630000000 1.0
C      1  0.5472540000000  0.5058590000000  0.5378070000000 1.0
C      1  0.5487580000000  0.4608090000000  0.4863430000000 1.0
C      1  0.4904860000000  0.5943960000000  0.4391520000000 1.0
C      1  0.4907900000000  0.5090120000000  0.6170200000000 1.0
C      1  0.4901820000000  0.3988120000000  0.4503830000000 1.0
C      1  0.5533490000000  0.5674820000000  0.5609020000000 1.0
C      1  0.5521770000000  0.4130550000000  0.5279920000000 1.0
C      1  0.5553130000000  0.5202570000000  0.4111980000000 1.0
C      1  0.4721750000000  0.5793490000000  0.4546400000000 1.0
C      1  0.4728570000000  0.5006920000000  0.5963520000000 1.0
C      1  0.4729870000000  0.4212990000000  0.4503060000000 1.0
C      1  0.4320180000000  0.4467040000000  0.4408020000000 1.0
C      1  0.4318350000000  0.5754710000000  0.4817730000000 1.0
C      1  0.4348380000000  0.4746590000000  0.5736230000000 1.0
C      1  0.4670460000000  0.4856330000000  0.5429040000000 1.0
C      1  0.4498210000000  0.4851980000000  0.4539220000000 1.0
C      1  0.4528130000000  0.5446900000000  0.5065610000000 1.0
C      1  0.5877620000000  0.5305710000000  0.4507490000000 1.0
C      1  0.5855860000000  0.5259580000000  0.5522330000000 1.0
C      1  0.5860300000000  0.4302960000000  0.4968760000000 1.0
C      1  0.5449700000000  0.4965050000000  0.3980240000000 1.0
C      1  0.5431360000000  0.5907050000000  0.5470400000000 1.0
C      1  0.5407160000000  0.4137070000000  0.5544050000000 1.0
C      1  0.4927380000000  0.4657600000000  0.4269620000000 1.0
C      1  0.4932560000000  0.5784240000000  0.5024880000000 1.0
C      1  0.5018850000000  0.4599600000000  0.5725920000000 1.0
C      1  0.4855290000000  0.4424670000000  0.4639220000000 1.0
C      1  0.4821770000000  0.5533040000000  0.4592370000000 1.0
C      1  0.4859420000000  0.5110000000000  0.5728650000000 1.0
C      1  0.5643000000000  0.5749800000000  0.4424910000000 1.0
C      1  0.5644540000000  0.5165280000000  0.5974040000000 1.0
C      1  0.5608240000000  0.4082910000000  0.4615860000000 1.0
C      1  0.4666200000000  0.4741610000000  0.4340710000000 1.0
C      1  0.4678710000000  0.5679210000000  0.5073860000000 1.0
C      1  0.4774420000000  0.4671250000000  0.5617750000000 1.0
C      1  0.4911930000000  0.4158450000000  0.5692480000000 1.0
C      1  0.4911070000000  0.4866090000000  0.3860840000000 1.0
C      1  0.4900510000000  0.6042360000000  0.5410610000000 1.0
C      1  0.4754780000000  0.5075760000000  0.5271250000000 1.0
C      1  0.4716520000000  0.4578300000000  0.5119960000000 1.0
C      1  0.4776950000000  0.5079720000000  0.4812660000000 1.0
C      1  0.5586130000000  0.4726470000000  0.4072600000000 1.0
C      1  0.5573450000000  0.5954080000000  0.5226720000000 1.0
C      1  0.5554690000000  0.4310170000000  0.5721470000000 1.0
C      1  0.4400240000000  0.4137540000000  0.4831630000000 1.0
C      1  0.4375360000000  0.5608310000000  0.4303800000000 1.0
C      1  0.4376320000000  0.5288160000000  0.5856260000000 1.0
C      1  0.5050470000000  0.5325850000000  0.6096450000000 1.0
C      1  0.5054110000000  0.3955970000000  0.4744530000000 1.0
C      1  0.5049240000000  0.5791140000000  0.4202350000000 1.0
C      1  0.4994550000000  0.5693950000000  0.5804750000000 1.0
C      1  0.4969500000000  0.3747610000000  0.5186010000000 1.0
C      1  0.5000980000000  0.5366960000000  0.4006080000000 1.0
C      1  0.5775630000000  0.5593790000000  0.4885220000000 1.0
C      1  0.5813860000000  0.4782250000000  0.5736080000000 1.0
C      1  0.5798200000000  0.4553950000000  0.4544560000000 1.0
C      1  0.4521040000000  0.5220190000000  0.5212410000000 1.0
C      1  0.4474910000000  0.4623710000000  0.5024090000000 1.0
C      1  0.4522500000000  0.5074230000000  0.4698650000000 1.0
C      1  0.4302720000000  0.5479170000000  0.4893120000000 1.0
C      1  0.4369690000000  0.4857290000000  0.5458570000000 1.0
C      1  0.4275010000000  0.4680210000000  0.4594700000000 1.0
C      1  0.5808500000000  0.4286970000000  0.4679480000000 1.0
C      1  0.5813750000000  0.5582840000000  0.4592000000000 1.0
C      1  0.5807930000000  0.5070410000000  0.5752260000000 1.0
C      1  0.6292910000000  0.5111400000000  0.4676510000000 1.0
C      1  0.6259630000000  0.5275830000000  0.5234900000000 1.0
C      1  0.6277030000000  0.4674810000000  0.5132510000000 1.0
C      1  0.4877350000000  0.3916900000000  0.4980040000000 1.0
C      1  0.4870440000000  0.5615480000000  0.4045970000000 1.0
C      1  0.4861520000000  0.5535930000000  0.5999550000000 1.0
C      1  0.5190790000000  0.4965250000000  0.3842410000000 1.0
C      1  0.5170530000000  0.6024240000000  0.5526350000000 1.0
C      1  0.5137760000000  0.4018650000000  0.5574980000000 1.0
C      1  0.4218480000000  0.5227100000000  0.4060410000000 1.0
C      1  0.4210310000000  0.5675170000000  0.5629510000000 1.0
C      1  0.4234630000000  0.4137820000000  0.5283510000000 1.0
C      1  0.5044790000000  0.5551360000000  0.5581200000000 1.0
C      1  0.5076350000000  0.3786350000000  0.5428340000000 1.0
C      1  0.5022590000000  0.5230180000000  0.4237080000000 1.0
C      1  0.5848180000000  0.5000570000000  0.4979660000000 1.0
C      1  0.4156210000000  0.4990000000000  0.4989920000000 1.0
END
