TITL C-74084-3399-5 3.55103748239241e-06 125000 -798.456738462635 0 0 134 (C1) n - 1
REM
REM in /home/nfs/bkarasulu/CARBON/AIRSS/Generating-Clusters/LCBOP/Higher-Symm/SD-CG/FIRE-CG
REM
REM
REM
REM
REM
REM ./C.cell (b20cbc046b6831c77cfcea5457e17084)
REM AIRSS Version 0.9.1 bugfix July 2018 build 013d7b7c2542+ Fri, 06 Jul 2018 19:26:36 +0100
REM compiler GCC version 9.2.1 20190827 (Red Hat 9.2.1-1)
REM options -cpp -mtune=generic -march=x86-64 -g -O0 -fpre-include=/usr/include/finclude/math-vector-fortran.h
REM seed 1797101531 -1726818710 132588754 999893417 -873568039 -1778147906 -481085452 -459488829 -2049458502 1513663649 2069006193 -645607726 702198272 -1980373371 1378757282 64658979 -242031281 2087023065 88482420 219991799 -199160148 61649722 -1805386212 941637370 234427642 -1222849894 1016116028 -1801785631 -1205425183 318601667 -838365762 -2100907142 -122032726
REM
CELL 1.54180   50.00000   50.00000   50.00000   90.00000   90.00000   90.00000
LATT -1
SFAC C  
C      1  0.4038250000000  0.4634940000000  0.5130550000000 1.0
C      1  0.4923740000000  0.4526920000000  0.4092390000000 1.0
C      1  0.5911630000000  0.4546760000000  0.4876820000000 1.0
C      1  0.5287730000000  0.4656480000000  0.5997130000000 1.0
C      1  0.5961330000000  0.5420650000000  0.5160270000000 1.0
C      1  0.5101370000000  0.5483670000000  0.4115250000000 1.0
C      1  0.4086300000000  0.5508230000000  0.4868320000000 1.0
C      1  0.4858370000000  0.5493820000000  0.5893280000000 1.0
C      1  0.6051960000000  0.4775090000000  0.4947690000000 1.0
C      1  0.5293220000000  0.4917390000000  0.6128730000000 1.0
C      1  0.3937600000000  0.4887730000000  0.5012690000000 1.0
C      1  0.5135010000000  0.4691110000000  0.3982450000000 1.0
C      1  0.3882170000000  0.5379160000000  0.5016320000000 1.0
C      1  0.5075090000000  0.5382280000000  0.6043230000000 1.0
C      1  0.6087220000000  0.5198050000000  0.5051620000000 1.0
C      1  0.4896780000000  0.5334440000000  0.3977040000000 1.0
C      1  0.4703210000000  0.4713360000000  0.4864670000000 1.0
C      1  0.5025300000000  0.4719120000000  0.4805200000000 1.0
C      1  0.5186250000000  0.4719470000000  0.5084810000000 1.0
C      1  0.4986060000000  0.4688160000000  0.5314200000000 1.0
C      1  0.5324870000000  0.5261360000000  0.4926130000000 1.0
C      1  0.4842800000000  0.5274770000000  0.4736730000000 1.0
C      1  0.4793860000000  0.5282820000000  0.5039300000000 1.0
C      1  0.5046380000000  0.5363820000000  0.5171560000000 1.0
C      1  0.4854840000000  0.4007430000000  0.4809810000000 1.0
C      1  0.5120540000000  0.4100010000000  0.4819060000000 1.0
C      1  0.5168210000000  0.4114930000000  0.5113330000000 1.0
C      1  0.4909280000000  0.4055330000000  0.5213660000000 1.0
C      1  0.5207320000000  0.6029450000000  0.4935560000000 1.0
C      1  0.4863830000000  0.5938370000000  0.4830930000000 1.0
C      1  0.4768270000000  0.5909120000000  0.5119600000000 1.0
C      1  0.5049470000000  0.5967770000000  0.5248800000000 1.0
C      1  0.5868810000000  0.5355530000000  0.4635310000000 1.0
C      1  0.5534160000000  0.5279650000000  0.5823670000000 1.0
C      1  0.4091460000000  0.5209450000000  0.5427520000000 1.0
C      1  0.4458990000000  0.5275020000000  0.4203340000000 1.0
C      1  0.4135670000000  0.4637610000000  0.4627820000000 1.0
C      1  0.4639550000000  0.4638670000000  0.5822000000000 1.0
C      1  0.5923240000000  0.4632170000000  0.5393490000000 1.0
C      1  0.5553050000000  0.4757310000000  0.4230840000000 1.0
C      1  0.4612810000000  0.4146370000000  0.4779870000000 1.0
C      1  0.5206220000000  0.4285170000000  0.4618590000000 1.0
C      1  0.5381350000000  0.4277950000000  0.5211090000000 1.0
C      1  0.4651780000000  0.4160330000000  0.5265150000000 1.0
C      1  0.5361230000000  0.5761290000000  0.4866410000000 1.0
C      1  0.4809940000000  0.5747090000000  0.4613970000000 1.0
C      1  0.4566030000000  0.5713810000000  0.5200630000000 1.0
C      1  0.5169150000000  0.5766920000000  0.5430150000000 1.0
C      1  0.4531870000000  0.4556940000000  0.5038030000000 1.0
C      1  0.5024900000000  0.4509940000000  0.4576790000000 1.0
C      1  0.5415290000000  0.4517890000000  0.5050550000000 1.0
C      1  0.5111110000000  0.4574210000000  0.5540380000000 1.0
C      1  0.5498360000000  0.5460080000000  0.4996680000000 1.0
C      1  0.4956100000000  0.5487280000000  0.4582540000000 1.0
C      1  0.4554800000000  0.5478830000000  0.5034050000000 1.0
C      1  0.5005060000000  0.5517290000000  0.5434020000000 1.0
C      1  0.4065540000000  0.5081810000000  0.4467830000000 1.0
C      1  0.5911540000000  0.4980020000000  0.3996380000000 1.0
C      1  0.5942000000000  0.5078610000000  0.5537130000000 1.0
C      1  0.4392820000000  0.5064650000000  0.5821670000000 1.0
C      1  0.5954470000000  0.4928060000000  0.4473020000000 1.0
C      1  0.4079890000000  0.5069670000000  0.3987450000000 1.0
C      1  0.4275620000000  0.4760150000000  0.5495220000000 1.0
C      1  0.5569050000000  0.4822490000000  0.5673390000000 1.0
C      1  0.5195110000000  0.4935490000000  0.4639220000000 1.0
C      1  0.5367570000000  0.4956140000000  0.5231080000000 1.0
C      1  0.4818460000000  0.4915700000000  0.5376300000000 1.0
C      1  0.4561810000000  0.4911070000000  0.4715140000000 1.0
C      1  0.4731600000000  0.5072230000000  0.4577140000000 1.0
C      1  0.4672730000000  0.5059120000000  0.5190630000000 1.0
C      1  0.5235420000000  0.5119370000000  0.5376040000000 1.0
C      1  0.5400060000000  0.5053440000000  0.4773010000000 1.0
C      1  0.4334620000000  0.5365800000000  0.4879940000000 1.0
C      1  0.5118160000000  0.5354710000000  0.4372700000000 1.0
C      1  0.5686980000000  0.5332800000000  0.5153820000000 1.0
C      1  0.4854750000000  0.5370780000000  0.5633110000000 1.0
C      1  0.5634870000000  0.4630730000000  0.4903190000000 1.0
C      1  0.4883930000000  0.4650760000000  0.4350560000000 1.0
C      1  0.4327510000000  0.4711980000000  0.5204900000000 1.0
C      1  0.5278300000000  0.4749930000000  0.5706820000000 1.0
C      1  0.5700310000000  0.5799780000000  0.5372150000000 1.0
C      1  0.4502200000000  0.5772610000000  0.5698330000000 1.0
C      1  0.4318010000000  0.5861360000000  0.4605970000000 1.0
C      1  0.5378360000000  0.5822540000000  0.4347360000000 1.0
C      1  0.4197600000000  0.4246880000000  0.5421700000000 1.0
C      1  0.5437250000000  0.4247110000000  0.5731600000000 1.0
C      1  0.5706300000000  0.4178460000000  0.4630870000000 1.0
C      1  0.4606460000000  0.4191850000000  0.4277720000000 1.0
C      1  0.4580760000000  0.4401760000000  0.5701790000000 1.0
C      1  0.4269580000000  0.4416180000000  0.4555290000000 1.0
C      1  0.5533980000000  0.4489670000000  0.4317530000000 1.0
C      1  0.5789290000000  0.4404790000000  0.5441170000000 1.0
C      1  0.5509710000000  0.5545090000000  0.5724210000000 1.0
C      1  0.5726890000000  0.5578150000000  0.4584450000000 1.0
C      1  0.4487580000000  0.5542830000000  0.4294800000000 1.0
C      1  0.4202710000000  0.5477590000000  0.5446650000000 1.0
C      1  0.5944070000000  0.4913120000000  0.5269350000000 1.0
C      1  0.4646630000000  0.4927860000000  0.5819540000000 1.0
C      1  0.4087540000000  0.4927480000000  0.4733860000000 1.0
C      1  0.5298980000000  0.4870600000000  0.4151080000000 1.0
C      1  0.3931240000000  0.5143130000000  0.5178710000000 1.0
C      1  0.5269430000000  0.5169780000000  0.5942730000000 1.0
C      1  0.5946670000000  0.5071540000000  0.4739380000000 1.0
C      1  0.4711970000000  0.5152420000000  0.4116050000000 1.0
C      1  0.5154190000000  0.5030440000000  0.5677420000000 1.0
C      1  0.4409930000000  0.4985570000000  0.5126240000000 1.0
C      1  0.4843840000000  0.4961450000000  0.4324800000000 1.0
C      1  0.5647240000000  0.4931000000000  0.4861940000000 1.0
C      1  0.4855600000000  0.5062130000000  0.5646220000000 1.0
C      1  0.5656160000000  0.5023260000000  0.5158150000000 1.0
C      1  0.5145730000000  0.5044390000000  0.4359540000000 1.0
C      1  0.4340600000000  0.5059770000000  0.4847490000000 1.0
C      1  0.4487360000000  0.4232680000000  0.4534140000000 1.0
C      1  0.5474090000000  0.4292250000000  0.4510010000000 1.0
C      1  0.5535170000000  0.4275960000000  0.5461020000000 1.0
C      1  0.4482000000000  0.4235810000000  0.5489480000000 1.0
C      1  0.5495470000000  0.5747880000000  0.4596590000000 1.0
C      1  0.4546910000000  0.5744130000000  0.4486390000000 1.0
C      1  0.4409210000000  0.5680480000000  0.5445620000000 1.0
C      1  0.5455910000000  0.5731460000000  0.5512820000000 1.0
C      1  0.4106870000000  0.5757220000000  0.4739600000000 1.0
C      1  0.5245470000000  0.5726380000000  0.4129160000000 1.0
C      1  0.5932080000000  0.5683570000000  0.5274900000000 1.0
C      1  0.4667580000000  0.5701230000000  0.5902210000000 1.0
C      1  0.5920930000000  0.4293680000000  0.4754200000000 1.0
C      1  0.4767050000000  0.4292540000000  0.4081730000000 1.0
C      1  0.4012140000000  0.4380630000000  0.5267010000000 1.0
C      1  0.5367030000000  0.4380900000000  0.5962360000000 1.0
C      1  0.5806840000000  0.4888840000000  0.4232890000000 1.0
C      1  0.4213750000000  0.5014410000000  0.5605950000000 1.0
C      1  0.5705630000000  0.5072980000000  0.5703540000000 1.0
C      1  0.4202620000000  0.5143020000000  0.4222630000000 1.0
C      1  0.5092330000000  0.5615880000000  0.5000670000000 1.0
C      1  0.4548800000000  0.4279410000000  0.5023880000000 1.0
END
