TITL C-74085-4933-24 -7.23924054456111e-07 125000 -1006.20598194254 0 0 168 (C1) n - 1
REM
REM in /home/nfs/bkarasulu/CARBON/AIRSS/Generating-Clusters/LCBOP/Higher-Symm/SD-CG/FIRE-CG
REM
REM
REM
REM
REM
REM ./C.cell (b20cbc046b6831c77cfcea5457e17084)
REM AIRSS Version 0.9.1 bugfix July 2018 build 013d7b7c2542+ Fri, 06 Jul 2018 19:26:36 +0100
REM compiler GCC version 9.2.1 20190827 (Red Hat 9.2.1-1)
REM options -cpp -mtune=generic -march=x86-64 -g -O0 -fpre-include=/usr/include/finclude/math-vector-fortran.h
REM seed -1555461181 1764781639 284825663 -1161764897 -913541074 1156860306 -1587035910 -1648759808 2007926172 843713031 2132197779 -303229275 -1118969639 1327477971 -649534050 -2016932801 -1407689919 -1637460172 -527277899 -709704950 -90500980 -1627333746 -579025372 -760967832 -1294599916 -1687288591 -363871516 -1724887309 -421844752 1140005163 -1583273199 -1644439286 -1408858402
REM
CELL 1.54180   50.00000   50.00000   50.00000   90.00000   90.00000   90.00000
LATT -1
SFAC C  
C      1  0.3849460000000  0.5612040000000  0.4654300000000 1.0
C      1  0.4358590000000  0.5673550000000  0.5980430000000 1.0
C      1  0.5776430000000  0.5516820000000  0.5831570000000 1.0
C      1  0.6148240000000  0.5766360000000  0.4591810000000 1.0
C      1  0.4900690000000  0.5625750000000  0.3846460000000 1.0
C      1  0.3847830000000  0.4362550000000  0.4786970000000 1.0
C      1  0.4489170000000  0.4510110000000  0.6070950000000 1.0
C      1  0.5761140000000  0.4303360000000  0.5876350000000 1.0
C      1  0.5992580000000  0.4440890000000  0.4487140000000 1.0
C      1  0.4826110000000  0.4500030000000  0.3938460000000 1.0
C      1  0.4643550000000  0.3975690000000  0.5657830000000 1.0
C      1  0.5466310000000  0.3959290000000  0.5473140000000 1.0
C      1  0.5594990000000  0.4003840000000  0.4655540000000 1.0
C      1  0.4837060000000  0.3982160000000  0.4273940000000 1.0
C      1  0.4224950000000  0.3865220000000  0.4804980000000 1.0
C      1  0.4658130000000  0.5968640000000  0.5622500000000 1.0
C      1  0.5493200000000  0.6035650000000  0.5537040000000 1.0
C      1  0.5625370000000  0.6057900000000  0.4696560000000 1.0
C      1  0.4887480000000  0.5939140000000  0.4300440000000 1.0
C      1  0.4304150000000  0.5933770000000  0.4809870000000 1.0
C      1  0.4720080000000  0.6112780000000  0.5035760000000 1.0
C      1  0.4938930000000  0.6131030000000  0.5255540000000 1.0
C      1  0.5198760000000  0.6144340000000  0.5110230000000 1.0
C      1  0.5145490000000  0.6115130000000  0.4820470000000 1.0
C      1  0.4858580000000  0.6080350000000  0.4773670000000 1.0
C      1  0.4705180000000  0.3767650000000  0.5009690000000 1.0
C      1  0.4913700000000  0.3813010000000  0.5232230000000 1.0
C      1  0.5182110000000  0.3839940000000  0.5085230000000 1.0
C      1  0.5130460000000  0.3842660000000  0.4796160000000 1.0
C      1  0.4846420000000  0.3813450000000  0.4752080000000 1.0
C      1  0.4330460000000  0.4408140000000  0.5851350000000 1.0
C      1  0.5473180000000  0.4284640000000  0.5890380000000 1.0
C      1  0.5956880000000  0.4394380000000  0.4771380000000 1.0
C      1  0.5078730000000  0.4365680000000  0.3986010000000 1.0
C      1  0.4031180000000  0.4308120000000  0.4570760000000 1.0
C      1  0.4245100000000  0.5681100000000  0.5714420000000 1.0
C      1  0.5514270000000  0.5609570000000  0.5920100000000 1.0
C      1  0.6034570000000  0.5745700000000  0.4856530000000 1.0
C      1  0.5152210000000  0.5640730000000  0.3985820000000 1.0
C      1  0.4086740000000  0.5578670000000  0.4495350000000 1.0
C      1  0.5522810000000  0.5174030000000  0.5600430000000 1.0
C      1  0.5922290000000  0.5348760000000  0.4493440000000 1.0
C      1  0.4904550000000  0.5162000000000  0.3796250000000 1.0
C      1  0.3994100000000  0.5214700000000  0.4883390000000 1.0
C      1  0.4573540000000  0.5324680000000  0.5751960000000 1.0
C      1  0.5698430000000  0.4726720000000  0.5623210000000 1.0
C      1  0.5780560000000  0.4872140000000  0.4521970000000 1.0
C      1  0.5001160000000  0.4846480000000  0.4225190000000 1.0
C      1  0.4130620000000  0.4734270000000  0.4924210000000 1.0
C      1  0.4667960000000  0.4872950000000  0.5787070000000 1.0
C      1  0.6059380000000  0.5454720000000  0.4927300000000 1.0
C      1  0.5294050000000  0.5382570000000  0.3961200000000 1.0
C      1  0.4116040000000  0.5297000000000  0.4428090000000 1.0
C      1  0.4145010000000  0.5413510000000  0.5641670000000 1.0
C      1  0.5393150000000  0.5341850000000  0.6008650000000 1.0
C      1  0.6009920000000  0.4670510000000  0.4884900000000 1.0
C      1  0.5272640000000  0.4588210000000  0.3940780000000 1.0
C      1  0.4088160000000  0.4578750000000  0.4468760000000 1.0
C      1  0.4231530000000  0.4661370000000  0.5725140000000 1.0
C      1  0.5392150000000  0.4558930000000  0.5959470000000 1.0
C      1  0.4712520000000  0.4671950000000  0.5991770000000 1.0
C      1  0.5847390000000  0.4467800000000  0.5661650000000 1.0
C      1  0.5803660000000  0.4626070000000  0.4382610000000 1.0
C      1  0.4763720000000  0.4702460000000  0.4132040000000 1.0
C      1  0.3968870000000  0.4506900000000  0.5001260000000 1.0
C      1  0.4587680000000  0.5507370000000  0.5984080000000 1.0
C      1  0.5765080000000  0.5334840000000  0.5609430000000 1.0
C      1  0.5990590000000  0.5622700000000  0.4406030000000 1.0
C      1  0.4761580000000  0.5383860000000  0.3906100000000 1.0
C      1  0.3874200000000  0.5480960000000  0.4904260000000 1.0
C      1  0.5324220000000  0.5109060000000  0.5372790000000 1.0
C      1  0.5630150000000  0.5309560000000  0.4478710000000 1.0
C      1  0.4807590000000  0.5071890000000  0.4593520000000 1.0
C      1  0.4224140000000  0.5179830000000  0.5078580000000 1.0
C      1  0.4833750000000  0.5300910000000  0.5589830000000 1.0
C      1  0.5616290000000  0.4745990000000  0.5325180000000 1.0
C      1  0.5552020000000  0.5044730000000  0.4502320000000 1.0
C      1  0.5043710000000  0.4960530000000  0.4482630000000 1.0
C      1  0.4318500000000  0.4905830000000  0.5070400000000 1.0
C      1  0.4884480000000  0.5000660000000  0.5623930000000 1.0
C      1  0.5085590000000  0.4675050000000  0.5247680000000 1.0
C      1  0.5183900000000  0.4655810000000  0.4943590000000 1.0
C      1  0.4945700000000  0.4554090000000  0.4796710000000 1.0
C      1  0.4776970000000  0.4424170000000  0.4999440000000 1.0
C      1  0.4772020000000  0.4644850000000  0.5207110000000 1.0
C      1  0.5197970000000  0.5352940000000  0.5259470000000 1.0
C      1  0.5279250000000  0.5411500000000  0.4972550000000 1.0
C      1  0.5042010000000  0.5407050000000  0.4828340000000 1.0
C      1  0.4804970000000  0.5291140000000  0.4982140000000 1.0
C      1  0.4873900000000  0.5362000000000  0.5281700000000 1.0
C      1  0.5152970000000  0.5729000000000  0.5604450000000 1.0
C      1  0.5585840000000  0.5804300000000  0.5073910000000 1.0
C      1  0.5257350000000  0.5731000000000  0.4477990000000 1.0
C      1  0.4582800000000  0.5610520000000  0.4612020000000 1.0
C      1  0.4475280000000  0.5727260000000  0.5256910000000 1.0
C      1  0.5105820000000  0.4234990000000  0.5546130000000 1.0
C      1  0.5538670000000  0.4273330000000  0.5024800000000 1.0
C      1  0.5169770000000  0.4237720000000  0.4468390000000 1.0
C      1  0.4513160000000  0.4183470000000  0.4634060000000 1.0
C      1  0.4483540000000  0.4325430000000  0.5426930000000 1.0
C      1  0.5393830000000  0.5841590000000  0.5755620000000 1.0
C      1  0.5799150000000  0.5918350000000  0.4894350000000 1.0
C      1  0.5135830000000  0.5812590000000  0.4213550000000 1.0
C      1  0.4307440000000  0.5733500000000  0.4594350000000 1.0
C      1  0.4421650000000  0.5822690000000  0.5534870000000 1.0
C      1  0.5345880000000  0.4118010000000  0.5687880000000 1.0
C      1  0.5755210000000  0.4184930000000  0.4833260000000 1.0
C      1  0.5062140000000  0.4158360000000  0.4193260000000 1.0
C      1  0.4222030000000  0.4095720000000  0.4623050000000 1.0
C      1  0.4438510000000  0.4189900000000  0.5677410000000 1.0
C      1  0.5177740000000  0.5121420000000  0.3890150000000 1.0
C      1  0.4050360000000  0.5093590000000  0.4620350000000 1.0
C      1  0.4325220000000  0.5190310000000  0.5683710000000 1.0
C      1  0.5444660000000  0.5082560000000  0.5866520000000 1.0
C      1  0.6025650000000  0.5223870000000  0.4745730000000 1.0
C      1  0.5204990000000  0.4863320000000  0.4018170000000 1.0
C      1  0.4096600000000  0.4811060000000  0.4640540000000 1.0
C      1  0.4380620000000  0.4909900000000  0.5713580000000 1.0
C      1  0.5509970000000  0.4797200000000  0.5848120000000 1.0
C      1  0.5964560000000  0.4930380000000  0.4746620000000 1.0
C      1  0.5383690000000  0.4431430000000  0.4543330000000 1.0
C      1  0.4643750000000  0.4408340000000  0.4483030000000 1.0
C      1  0.4358120000000  0.4278760000000  0.5179980000000 1.0
C      1  0.4905200000000  0.4419270000000  0.5649540000000 1.0
C      1  0.5561700000000  0.4444080000000  0.5266590000000 1.0
C      1  0.5514790000000  0.5580840000000  0.4540480000000 1.0
C      1  0.4764620000000  0.5408700000000  0.4459680000000 1.0
C      1  0.4332220000000  0.5488010000000  0.5104580000000 1.0
C      1  0.4995740000000  0.5521160000000  0.5747100000000 1.0
C      1  0.5590070000000  0.5625770000000  0.5303050000000 1.0
C      1  0.4925080000000  0.4510020000000  0.5912190000000 1.0
C      1  0.5807640000000  0.4335510000000  0.5409040000000 1.0
C      1  0.5554820000000  0.4510290000000  0.4338710000000 1.0
C      1  0.4568600000000  0.4616600000000  0.4314050000000 1.0
C      1  0.4085210000000  0.4335610000000  0.5186390000000 1.0
C      1  0.4861920000000  0.5580030000000  0.5995220000000 1.0
C      1  0.5807250000000  0.5468630000000  0.5370560000000 1.0
C      1  0.5725430000000  0.5741910000000  0.4376170000000 1.0
C      1  0.4682460000000  0.5367480000000  0.4178600000000 1.0
C      1  0.4048810000000  0.5614350000000  0.5090760000000 1.0
C      1  0.4922520000000  0.4414220000000  0.4558600000000 1.0
C      1  0.4521740000000  0.4291240000000  0.4938190000000 1.0
C      1  0.4703210000000  0.4498600000000  0.5455450000000 1.0
C      1  0.5255980000000  0.4437270000000  0.5361360000000 1.0
C      1  0.5387420000000  0.4458680000000  0.4833260000000 1.0
C      1  0.5036750000000  0.5513850000000  0.4563340000000 1.0
C      1  0.4557910000000  0.5460100000000  0.4887090000000 1.0
C      1  0.4774660000000  0.5644570000000  0.5256080000000 1.0
C      1  0.5316590000000  0.5584420000000  0.5392990000000 1.0
C      1  0.5480180000000  0.5583910000000  0.4864320000000 1.0
C      1  0.5442680000000  0.6046870000000  0.5230640000000 1.0
C      1  0.5336230000000  0.6004400000000  0.4640800000000 1.0
C      1  0.4768600000000  0.5913490000000  0.4559470000000 1.0
C      1  0.4468220000000  0.5965760000000  0.5050410000000 1.0
C      1  0.4921740000000  0.5986710000000  0.5508600000000 1.0
C      1  0.5409010000000  0.3976410000000  0.5190530000000 1.0
C      1  0.5297940000000  0.3986580000000  0.4614270000000 1.0
C      1  0.4709250000000  0.3951320000000  0.4540470000000 1.0
C      1  0.4419200000000  0.3762750000000  0.4973790000000 1.0
C      1  0.4880490000000  0.3956220000000  0.5483340000000 1.0
C      1  0.5304100000000  0.4983810000000  0.4625470000000 1.0
C      1  0.5098140000000  0.4911010000000  0.5445890000000 1.0
C      1  0.5479030000000  0.4948230000000  0.5162090000000 1.0
C      1  0.4738880000000  0.5027470000000  0.4866910000000 1.0
C      1  0.4604630000000  0.4859080000000  0.5059450000000 1.0
C      1  0.4960510000000  0.4212720000000  0.5088560000000 1.0
C      1  0.4946340000000  0.5744370000000  0.5061950000000 1.0
C      1  0.5333670000000  0.4910800000000  0.4905980000000 1.0
END
