TITL C-74082-2733-199 -2.37280670003731e-07 125000 -39.8324943951629 0 0 7 (D7h) n - 1
REM
REM in /home/nfs/bkarasulu/CARBON/AIRSS/Generating-Clusters/LCBOP/Higher-Symm/SD-CG/FIRE-CG
REM
REM
REM
REM
REM
REM ./C.cell (b20cbc046b6831c77cfcea5457e17084)
REM AIRSS Version 0.9.1 bugfix July 2018 build 013d7b7c2542+ Fri, 06 Jul 2018 19:26:36 +0100
REM compiler GCC version 9.2.1 20190827 (Red Hat 9.2.1-1)
REM options -cpp -mtune=generic -march=x86-64 -g -O0 -fpre-include=/usr/include/finclude/math-vector-fortran.h
REM seed -89281427 -1555156985 -591311344 -1721084097 -913671880 207083675 -280687666 -340640005 1853591710 758820380 -2121894550 1509697661 1687671196 190142793 1452123377 1363436379 -151553583 948858188 -1264169312 -599261030 -1598868442 843062436 368392364 2117401545 1924709506 144551245 337838174 384310056 -1556548863 251861730 1835078880 677047917 1985233117
REM
CELL 1.54180   50.00000   50.00000   50.00000   90.00000   90.00000   90.00000
LATT -1
SFAC C  
C      1  0.4773500000000  0.5000000000000  0.4784990000000 1.0
C      1  0.5026880000000  0.5000000000000  0.4688860000000 1.0
C      1  0.5260020000000  0.5000000000000  0.4827020000000 1.0
C      1  0.5297360000000  0.5000000000000  0.5095440000000 1.0
C      1  0.5110780000000  0.5000000000000  0.5291990000000 1.0
C      1  0.4840790000000  0.5000000000000  0.5268660000000 1.0
C      1  0.4690680000000  0.5000000000000  0.5043030000000 1.0
END
