TITL C-74079-2735-410 0.000431865036910594 125000 -1012.94641511345 0 0 166 (C1) n - 1
REM
REM in /home/nfs/bkarasulu/CARBON/AIRSS/Generating-Clusters/LCBOP/Higher-Symm/SD-CG/FIRE-CG
REM
REM
REM
REM
REM
REM ./C.cell (b20cbc046b6831c77cfcea5457e17084)
REM AIRSS Version 0.9.1 bugfix July 2018 build 013d7b7c2542+ Fri, 06 Jul 2018 19:26:36 +0100
REM compiler GCC version 9.2.1 20190827 (Red Hat 9.2.1-1)
REM options -cpp -mtune=generic -march=x86-64 -g -O0 -fpre-include=/usr/include/finclude/math-vector-fortran.h
REM seed 1021091801 -134438224 -673682354 796892245 1694352275 -1727150416 -2036740563 1648129487 2047033331 -1318284076 625868157 2071391246 -870921454 -545254782 2048920062 1462046242 873479678 -2025757801 -1306333999 -1967741749 473633265 922076103 1525813433 400943148 1927137617 -2052765278 -1907924725 -665595189 -1114022160 1361506007 1074102404 -1647874897 -1378777013
REM
CELL 1.54180   50.00000   50.00000   50.00000   90.00000   90.00000   90.00000
LATT -1
SFAC C  
C      1  0.5785530000000  0.5570190000000  0.4760830000000 1.0
C      1  0.4809410000000  0.5593950000000  0.5786850000000 1.0
C      1  0.4399850000000  0.5583970000000  0.4438160000000 1.0
C      1  0.4515880000000  0.4890230000000  0.5361490000000 1.0
C      1  0.4888880000000  0.4905110000000  0.4509350000000 1.0
C      1  0.5402860000000  0.4930270000000  0.5170570000000 1.0
C      1  0.4137120000000  0.4187590000000  0.4822110000000 1.0
C      1  0.5574790000000  0.4211330000000  0.4321840000000 1.0
C      1  0.5294370000000  0.4210060000000  0.5784650000000 1.0
C      1  0.5526430000000  0.5095200000000  0.5851270000000 1.0
C      1  0.3917660000000  0.4987510000000  0.4955630000000 1.0
C      1  0.5530290000000  0.5009000000000  0.4109370000000 1.0
C      1  0.4619990000000  0.4008920000000  0.4744300000000 1.0
C      1  0.5385850000000  0.4033030000000  0.4786630000000 1.0
C      1  0.4951930000000  0.4023350000000  0.5490450000000 1.0
C      1  0.4359560000000  0.4677390000000  0.5273070000000 1.0
C      1  0.5057930000000  0.4739480000000  0.4356220000000 1.0
C      1  0.5436820000000  0.4764910000000  0.5388180000000 1.0
C      1  0.4938960000000  0.4433630000000  0.5224060000000 1.0
C      1  0.4688470000000  0.4386330000000  0.5018700000000 1.0
C      1  0.5207710000000  0.4427640000000  0.4671530000000 1.0
C      1  0.5562420000000  0.5963400000000  0.5222930000000 1.0
C      1  0.4715030000000  0.5906530000000  0.5282430000000 1.0
C      1  0.4872240000000  0.5953320000000  0.4624820000000 1.0
C      1  0.5918050000000  0.4508270000000  0.4469250000000 1.0
C      1  0.5088400000000  0.4544410000000  0.6056820000000 1.0
C      1  0.4087620000000  0.4494470000000  0.4455550000000 1.0
C      1  0.5578880000000  0.4416570000000  0.5022330000000 1.0
C      1  0.4638430000000  0.4407100000000  0.5593570000000 1.0
C      1  0.4729080000000  0.4410040000000  0.4483700000000 1.0
C      1  0.4328320000000  0.5205770000000  0.4734070000000 1.0
C      1  0.5445630000000  0.5204950000000  0.4614100000000 1.0
C      1  0.5067000000000  0.5222420000000  0.5543060000000 1.0
C      1  0.5115710000000  0.5681300000000  0.5403890000000 1.0
C      1  0.4659280000000  0.5554700000000  0.4833200000000 1.0
C      1  0.5312930000000  0.5637460000000  0.4776900000000 1.0
C      1  0.6093320000000  0.5306620000000  0.4448770000000 1.0
C      1  0.5054820000000  0.5340490000000  0.6209290000000 1.0
C      1  0.3961890000000  0.5310070000000  0.4312120000000 1.0
C      1  0.4305030000000  0.5989910000000  0.4594840000000 1.0
C      1  0.5753940000000  0.6005870000000  0.4670490000000 1.0
C      1  0.5003980000000  0.6001920000000  0.5770330000000 1.0
C      1  0.5938670000000  0.5497570000000  0.4987070000000 1.0
C      1  0.4550010000000  0.5488920000000  0.5817320000000 1.0
C      1  0.4539160000000  0.5529110000000  0.4201760000000 1.0
C      1  0.4201840000000  0.4242310000000  0.5092470000000 1.0
C      1  0.5319040000000  0.4304650000000  0.4231870000000 1.0
C      1  0.5399840000000  0.4238940000000  0.5505230000000 1.0
C      1  0.5619420000000  0.4128090000000  0.4607070000000 1.0
C      1  0.5011300000000  0.4133020000000  0.5771940000000 1.0
C      1  0.4355940000000  0.4112000000000  0.4639670000000 1.0
C      1  0.5380170000000  0.6068520000000  0.4288180000000 1.0
C      1  0.5541270000000  0.6006370000000  0.5696610000000 1.0
C      1  0.4109420000000  0.6022920000000  0.5086490000000 1.0
C      1  0.4718590000000  0.5123520000000  0.5020200000000 1.0
C      1  0.5164440000000  0.5166830000000  0.4730000000000 1.0
C      1  0.5096870000000  0.5259280000000  0.5233170000000 1.0
C      1  0.5162070000000  0.4181710000000  0.5302420000000 1.0
C      1  0.4674970000000  0.4071940000000  0.5028300000000 1.0
C      1  0.5135910000000  0.4143450000000  0.4681060000000 1.0
C      1  0.4882970000000  0.4343230000000  0.5957940000000 1.0
C      1  0.4306950000000  0.4301200000000  0.4404910000000 1.0
C      1  0.5850950000000  0.4314730000000  0.4684580000000 1.0
C      1  0.5315190000000  0.4022230000000  0.5072760000000 1.0
C      1  0.4745660000000  0.3954720000000  0.5286760000000 1.0
C      1  0.4888720000000  0.4008880000000  0.4628070000000 1.0
C      1  0.5404650000000  0.5232740000000  0.5198430000000 1.0
C      1  0.4508220000000  0.5124660000000  0.5211010000000 1.0
C      1  0.4954150000000  0.5205670000000  0.4515990000000 1.0
C      1  0.4993590000000  0.5073020000000  0.6109190000000 1.0
C      1  0.4095750000000  0.5046370000000  0.4310010000000 1.0
C      1  0.6004310000000  0.5048320000000  0.4557990000000 1.0
C      1  0.4396110000000  0.5063080000000  0.4303330000000 1.0
C      1  0.5862810000000  0.5056420000000  0.4817800000000 1.0
C      1  0.4782210000000  0.5068790000000  0.5912790000000 1.0
C      1  0.6077010000000  0.5585710000000  0.4431860000000 1.0
C      1  0.5038440000000  0.5614950000000  0.6174610000000 1.0
C      1  0.3964330000000  0.5585650000000  0.4362490000000 1.0
C      1  0.4869600000000  0.5026380000000  0.5644070000000 1.0
C      1  0.4451450000000  0.4995870000000  0.4586680000000 1.0
C      1  0.5591840000000  0.4992130000000  0.4757070000000 1.0
C      1  0.5792140000000  0.4377040000000  0.4228710000000 1.0
C      1  0.5348930000000  0.4417540000000  0.5973680000000 1.0
C      1  0.3950640000000  0.4362020000000  0.4690250000000 1.0
C      1  0.4828080000000  0.6015550000000  0.5519420000000 1.0
C      1  0.4602990000000  0.6022170000000  0.4591550000000 1.0
C      1  0.5675820000000  0.6038330000000  0.4959800000000 1.0
C      1  0.5925220000000  0.4811420000000  0.4396750000000 1.0
C      1  0.5164940000000  0.4837720000000  0.6100980000000 1.0
C      1  0.4003970000000  0.4800250000000  0.4464620000000 1.0
C      1  0.4994300000000  0.4627480000000  0.3764520000000 1.0
C      1  0.5978380000000  0.4520040000000  0.5661640000000 1.0
C      1  0.3957230000000  0.4605540000000  0.5633860000000 1.0
C      1  0.4890690000000  0.5242270000000  0.4217280000000 1.0
C      1  0.5692670000000  0.5261590000000  0.5280630000000 1.0
C      1  0.4248980000000  0.5235710000000  0.5191540000000 1.0
C      1  0.4440990000000  0.4168790000000  0.3845470000000 1.0
C      1  0.6326140000000  0.4364450000000  0.5037370000000 1.0
C      1  0.4322050000000  0.4455310000000  0.6256240000000 1.0
C      1  0.5628480000000  0.4045510000000  0.5464270000000 1.0
C      1  0.4086760000000  0.4106030000000  0.5298910000000 1.0
C      1  0.5192090000000  0.4178840000000  0.4026290000000 1.0
C      1  0.5317490000000  0.5148950000000  0.5674180000000 1.0
C      1  0.4138090000000  0.5173320000000  0.4930830000000 1.0
C      1  0.5488200000000  0.5177710000000  0.4326980000000 1.0
C      1  0.6042990000000  0.4474380000000  0.5406690000000 1.0
C      1  0.4140480000000  0.4526600000000  0.5814230000000 1.0
C      1  0.4774790000000  0.4509440000000  0.3858280000000 1.0
C      1  0.4739100000000  0.5674640000000  0.5090160000000 1.0
C      1  0.5058700000000  0.5719530000000  0.4656360000000 1.0
C      1  0.5337060000000  0.5782100000000  0.5243270000000 1.0
C      1  0.5379020000000  0.4552930000000  0.4868120000000 1.0
C      1  0.4829480000000  0.4559930000000  0.5445680000000 1.0
C      1  0.4691270000000  0.4543550000000  0.4739840000000 1.0
C      1  0.4551170000000  0.5231070000000  0.5934240000000 1.0
C      1  0.4597600000000  0.5247570000000  0.4179130000000 1.0
C      1  0.5883290000000  0.5224810000000  0.5054860000000 1.0
C      1  0.5284190000000  0.6065840000000  0.5761670000000 1.0
C      1  0.4171710000000  0.6068470000000  0.4831180000000 1.0
C      1  0.5575790000000  0.6100800000000  0.4469290000000 1.0
C      1  0.5029420000000  0.5514620000000  0.5625750000000 1.0
C      1  0.4432610000000  0.5463190000000  0.4692510000000 1.0
C      1  0.5530060000000  0.5487880000000  0.4662420000000 1.0
C      1  0.4186270000000  0.5769820000000  0.5542110000000 1.0
C      1  0.4938370000000  0.5863360000000  0.4074320000000 1.0
C      1  0.5865390000000  0.5673900000000  0.5455290000000 1.0
C      1  0.6015490000000  0.5662840000000  0.5206540000000 1.0
C      1  0.4328020000000  0.5620030000000  0.5710780000000 1.0
C      1  0.4711050000000  0.5720340000000  0.4083170000000 1.0
C      1  0.5206840000000  0.4509410000000  0.4398680000000 1.0
C      1  0.5477540000000  0.4519880000000  0.5472380000000 1.0
C      1  0.4402630000000  0.4443350000000  0.5131750000000 1.0
C      1  0.3843220000000  0.4732290000000  0.5424470000000 1.0
C      1  0.5207700000000  0.4786880000000  0.3786770000000 1.0
C      1  0.5818690000000  0.4560720000000  0.5872150000000 1.0
C      1  0.4963380000000  0.5535620000000  0.5197250000000 1.0
C      1  0.4873070000000  0.5493750000000  0.4634900000000 1.0
C      1  0.5363190000000  0.5584640000000  0.5050380000000 1.0
C      1  0.6073080000000  0.4404650000000  0.5135230000000 1.0
C      1  0.4358860000000  0.4459840000000  0.5985010000000 1.0
C      1  0.4587980000000  0.4348250000000  0.3992020000000 1.0
C      1  0.4930990000000  0.5787920000000  0.5965210000000 1.0
C      1  0.4182640000000  0.5767710000000  0.4439480000000 1.0
C      1  0.5910710000000  0.5764750000000  0.4593750000000 1.0
C      1  0.4549460000000  0.4362630000000  0.4270460000000 1.0
C      1  0.5851590000000  0.4375930000000  0.4962730000000 1.0
C      1  0.4612900000000  0.4400090000000  0.5874690000000 1.0
C      1  0.4764580000000  0.4830670000000  0.5478660000000 1.0
C      1  0.4661070000000  0.4819610000000  0.4654480000000 1.0
C      1  0.5431270000000  0.4826270000000  0.4911490000000 1.0
C      1  0.5774540000000  0.5403830000000  0.5523220000000 1.0
C      1  0.4032110000000  0.5169530000000  0.5366630000000 1.0
C      1  0.5086980000000  0.5184450000000  0.4022220000000 1.0
C      1  0.3855880000000  0.4821940000000  0.4732970000000 1.0
C      1  0.5760060000000  0.4840050000000  0.4139700000000 1.0
C      1  0.5455800000000  0.4874640000000  0.6023120000000 1.0
C      1  0.4113200000000  0.5910810000000  0.5328170000000 1.0
C      1  0.5169130000000  0.5978690000000  0.4148760000000 1.0
C      1  0.5698260000000  0.5911370000000  0.5478110000000 1.0
C      1  0.5295190000000  0.5001760000000  0.3943540000000 1.0
C      1  0.5747640000000  0.5260120000000  0.5771550000000 1.0
C      1  0.3869720000000  0.4953610000000  0.5251440000000 1.0
C      1  0.5565280000000  0.4608290000000  0.5980800000000 1.0
C      1  0.3772560000000  0.4552960000000  0.4799070000000 1.0
C      1  0.5763410000000  0.4574440000000  0.4025960000000 1.0
C      1  0.5001590000000  0.5129690000000  0.4980570000000 1.0
END
