TITL C-74083-3671-347 0.0113994396554804 125000 -1014.36925741417 0 0 168 (C1) n - 1
REM
REM in /home/nfs/bkarasulu/CARBON/AIRSS/Generating-Clusters/LCBOP/Higher-Symm/SD-CG/FIRE-CG
REM
REM
REM
REM
REM
REM ./C.cell (b20cbc046b6831c77cfcea5457e17084)
REM AIRSS Version 0.9.1 bugfix July 2018 build 013d7b7c2542+ Fri, 06 Jul 2018 19:26:36 +0100
REM compiler GCC version 9.2.1 20190827 (Red Hat 9.2.1-1)
REM options -cpp -mtune=generic -march=x86-64 -g -O0 -fpre-include=/usr/include/finclude/math-vector-fortran.h
REM seed 193626648 94145748 -2028781085 -1907251946 394326383 1726516844 -867956614 435967094 -158155886 2036366689 -1706170390 -1506097527 -654269632 -677296950 -1147211848 -1182452161 -801311959 -265152345 -152428827 1798670895 -1564189302 -1348220834 -219539714 259035962 1528887453 1110766576 1006765622 130144263 -770636875 -1120148936 -1935468658 717055443 932285725
REM
CELL 1.54180   50.00000   50.00000   50.00000   90.00000   90.00000   90.00000
LATT -1
SFAC C  
C      1  0.4217790000000  0.4594000000000  0.5914130000000 1.0
C      1  0.5886120000000  0.4182920000000  0.4726260000000 1.0
C      1  0.4164040000000  0.5306950000000  0.4269990000000 1.0
C      1  0.5806480000000  0.5885090000000  0.5398360000000 1.0
C      1  0.4750290000000  0.6151460000000  0.5337430000000 1.0
C      1  0.5299090000000  0.4445550000000  0.6010080000000 1.0
C      1  0.4685720000000  0.3994210000000  0.4533650000000 1.0
C      1  0.5280910000000  0.5351360000000  0.3835150000000 1.0
C      1  0.4821420000000  0.5399130000000  0.5251030000000 1.0
C      1  0.5185850000000  0.4726190000000  0.5356260000000 1.0
C      1  0.4858500000000  0.4562420000000  0.4797850000000 1.0
C      1  0.5231660000000  0.5351170000000  0.4495260000000 1.0
C      1  0.4833670000000  0.4563250000000  0.5791800000000 1.0
C      1  0.5181240000000  0.4182440000000  0.4655470000000 1.0
C      1  0.4825570000000  0.5347370000000  0.4115700000000 1.0
C      1  0.5245570000000  0.6050500000000  0.5273010000000 1.0
C      1  0.4717960000000  0.5312810000000  0.4357080000000 1.0
C      1  0.5296290000000  0.5782390000000  0.5356620000000 1.0
C      1  0.4718180000000  0.4691210000000  0.5589280000000 1.0
C      1  0.5330710000000  0.4386290000000  0.4744720000000 1.0
C      1  0.5432050000000  0.4856290000000  0.4892150000000 1.0
C      1  0.4788640000000  0.5068160000000  0.4757300000000 1.0
C      1  0.5265760000000  0.5378140000000  0.5055310000000 1.0
C      1  0.4543210000000  0.4921250000000  0.5172890000000 1.0
C      1  0.4353940000000  0.5326360000000  0.4678810000000 1.0
C      1  0.5672570000000  0.5468650000000  0.5298470000000 1.0
C      1  0.4261920000000  0.4653860000000  0.5465960000000 1.0
C      1  0.5758810000000  0.4602150000000  0.4668820000000 1.0
C      1  0.5500080000000  0.4607580000000  0.4784780000000 1.0
C      1  0.4620470000000  0.5234620000000  0.4612710000000 1.0
C      1  0.5412920000000  0.5565170000000  0.5209790000000 1.0
C      1  0.4514290000000  0.4775000000000  0.5420430000000 1.0
C      1  0.3784640000000  0.4778040000000  0.4584850000000 1.0
C      1  0.6137510000000  0.5529030000000  0.4895350000000 1.0
C      1  0.3824450000000  0.5094850000000  0.5560200000000 1.0
C      1  0.6202440000000  0.4591530000000  0.5258380000000 1.0
C      1  0.4500590000000  0.4717460000000  0.4210920000000 1.0
C      1  0.5571350000000  0.5832980000000  0.4668220000000 1.0
C      1  0.4470160000000  0.5307470000000  0.5863040000000 1.0
C      1  0.5518510000000  0.4104610000000  0.5264350000000 1.0
C      1  0.4248020000000  0.5417970000000  0.5735720000000 1.0
C      1  0.5737630000000  0.4283780000000  0.5231050000000 1.0
C      1  0.4309720000000  0.4820310000000  0.4398250000000 1.0
C      1  0.5673010000000  0.5575530000000  0.4688090000000 1.0
C      1  0.3805020000000  0.4181440000000  0.4821610000000 1.0
C      1  0.6212670000000  0.5356820000000  0.4293280000000 1.0
C      1  0.3676150000000  0.5722810000000  0.5235840000000 1.0
C      1  0.6034630000000  0.4938600000000  0.5843620000000 1.0
C      1  0.5108000000000  0.4141800000000  0.4027640000000 1.0
C      1  0.4938360000000  0.5921160000000  0.4124770000000 1.0
C      1  0.5115410000000  0.5758200000000  0.5883500000000 1.0
C      1  0.4882960000000  0.3945740000000  0.5830540000000 1.0
C      1  0.4685280000000  0.3945300000000  0.4252930000000 1.0
C      1  0.5298990000000  0.5642660000000  0.3841840000000 1.0
C      1  0.4735760000000  0.6009310000000  0.5590960000000 1.0
C      1  0.5303810000000  0.4162570000000  0.6043140000000 1.0
C      1  0.5768180000000  0.4506770000000  0.5422620000000 1.0
C      1  0.4279450000000  0.4679270000000  0.4668270000000 1.0
C      1  0.5724290000000  0.5323620000000  0.4792860000000 1.0
C      1  0.4189800000000  0.5348110000000  0.5473890000000 1.0
C      1  0.5815790000000  0.5913970000000  0.5102240000000 1.0
C      1  0.4194180000000  0.4883810000000  0.5919470000000 1.0
C      1  0.5934360000000  0.4252800000000  0.5011420000000 1.0
C      1  0.4113340000000  0.5026000000000  0.4320340000000 1.0
C      1  0.4401140000000  0.5602050000000  0.5127830000000 1.0
C      1  0.5378730000000  0.5106290000000  0.5484260000000 1.0
C      1  0.4468730000000  0.4470500000000  0.5051370000000 1.0
C      1  0.5584450000000  0.5041510000000  0.4465220000000 1.0
C      1  0.4838610000000  0.5447330000000  0.5531520000000 1.0
C      1  0.5213530000000  0.4456360000000  0.5401230000000 1.0
C      1  0.4790780000000  0.4486170000000  0.4539120000000 1.0
C      1  0.5300070000000  0.5591460000000  0.4363600000000 1.0
C      1  0.6032020000000  0.4987230000000  0.4888480000000 1.0
C      1  0.4007540000000  0.5115920000000  0.5068320000000 1.0
C      1  0.5936050000000  0.4980050000000  0.5156530000000 1.0
C      1  0.3984290000000  0.4833500000000  0.5052970000000 1.0
C      1  0.5028990000000  0.6221460000000  0.5323140000000 1.0
C      1  0.5030560000000  0.4526170000000  0.5967300000000 1.0
C      1  0.4958170000000  0.4036180000000  0.4618520000000 1.0
C      1  0.5009220000000  0.5311950000000  0.3923110000000 1.0
C      1  0.5938810000000  0.4818950000000  0.4663020000000 1.0
C      1  0.4146100000000  0.5310280000000  0.4879900000000 1.0
C      1  0.5784890000000  0.5205830000000  0.5279260000000 1.0
C      1  0.4082980000000  0.4639520000000  0.5250650000000 1.0
C      1  0.4391630000000  0.5357460000000  0.5289960000000 1.0
C      1  0.5272070000000  0.5146130000000  0.5213630000000 1.0
C      1  0.4446710000000  0.4755480000000  0.4939430000000 1.0
C      1  0.5560390000000  0.5083200000000  0.4761100000000 1.0
C      1  0.6031450000000  0.5274990000000  0.4777530000000 1.0
C      1  0.3932300000000  0.5273110000000  0.5338450000000 1.0
C      1  0.5964380000000  0.4745380000000  0.5364010000000 1.0
C      1  0.3975490000000  0.4675210000000  0.4783070000000 1.0
C      1  0.3884250000000  0.5556210000000  0.5197390000000 1.0
C      1  0.5889300000000  0.4916780000000  0.5616730000000 1.0
C      1  0.3971600000000  0.4382350000000  0.4889980000000 1.0
C      1  0.6057880000000  0.5225050000000  0.4470610000000 1.0
C      1  0.4402370000000  0.5763020000000  0.4460760000000 1.0
C      1  0.5650060000000  0.5505120000000  0.5781770000000 1.0
C      1  0.4357720000000  0.4194130000000  0.5581030000000 1.0
C      1  0.5666290000000  0.4405620000000  0.4248480000000 1.0
C      1  0.6180480000000  0.4382010000000  0.5083500000000 1.0
C      1  0.3847750000000  0.4944580000000  0.4380390000000 1.0
C      1  0.6037610000000  0.5766780000000  0.4984900000000 1.0
C      1  0.3960530000000  0.4989660000000  0.5778130000000 1.0
C      1  0.5048040000000  0.4012910000000  0.5394160000000 1.0
C      1  0.4967110000000  0.4583520000000  0.4120200000000 1.0
C      1  0.5107670000000  0.5963260000000  0.4570010000000 1.0
C      1  0.4942650000000  0.5330350000000  0.5977520000000 1.0
C      1  0.5192110000000  0.4907580000000  0.5585950000000 1.0
C      1  0.4748170000000  0.4397760000000  0.5000570000000 1.0
C      1  0.5326330000000  0.5113540000000  0.4366570000000 1.0
C      1  0.4707360000000  0.5627510000000  0.5093500000000 1.0
C      1  0.5795990000000  0.4365970000000  0.4511920000000 1.0
C      1  0.4279370000000  0.5501620000000  0.4450740000000 1.0
C      1  0.5745340000000  0.5629940000000  0.5532410000000 1.0
C      1  0.4261250000000  0.4449610000000  0.5670270000000 1.0
C      1  0.4435830000000  0.5042630000000  0.5977360000000 1.0
C      1  0.5478310000000  0.3881210000000  0.5091910000000 1.0
C      1  0.4526420000000  0.4849870000000  0.3959740000000 1.0
C      1  0.5581350000000  0.5975080000000  0.4919930000000 1.0
C      1  0.5266220000000  0.4877000000000  0.5116350000000 1.0
C      1  0.4902990000000  0.4836950000000  0.4821680000000 1.0
C      1  0.5188870000000  0.5374830000000  0.4780740000000 1.0
C      1  0.4611140000000  0.5192410000000  0.5219630000000 1.0
C      1  0.4812050000000  0.3984690000000  0.5557860000000 1.0
C      1  0.5190700000000  0.4409990000000  0.4068470000000 1.0
C      1  0.4870940000000  0.5963250000000  0.4402190000000 1.0
C      1  0.5183540000000  0.5486310000000  0.5957220000000 1.0
C      1  0.4546380000000  0.4016130000000  0.5065380000000 1.0
C      1  0.5445130000000  0.4875010000000  0.3975850000000 1.0
C      1  0.4630710000000  0.6023370000000  0.4848610000000 1.0
C      1  0.5420170000000  0.4975470000000  0.5960410000000 1.0
C      1  0.4685080000000  0.4944610000000  0.6080890000000 1.0
C      1  0.5227990000000  0.3812190000000  0.5008830000000 1.0
C      1  0.4774170000000  0.4929190000000  0.3880400000000 1.0
C      1  0.5312770000000  0.6042170000000  0.4999310000000 1.0
C      1  0.5872660000000  0.5001460000000  0.4433530000000 1.0
C      1  0.4126080000000  0.5583410000000  0.5017380000000 1.0
C      1  0.5662970000000  0.5075630000000  0.5516870000000 1.0
C      1  0.4179260000000  0.4401330000000  0.5095820000000 1.0
C      1  0.5461860000000  0.4537220000000  0.4076000000000 1.0
C      1  0.4609510000000  0.5948690000000  0.4552510000000 1.0
C      1  0.5446780000000  0.5342290000000  0.5924480000000 1.0
C      1  0.4541480000000  0.4031630000000  0.5429900000000 1.0
C      1  0.5669020000000  0.5128540000000  0.3608460000000 1.0
C      1  0.4366180000000  0.6359190000000  0.5100290000000 1.0
C      1  0.5655850000000  0.4530000000000  0.5691800000000 1.0
C      1  0.4343410000000  0.4337020000000  0.4636770000000 1.0
C      1  0.5472280000000  0.5117890000000  0.3799550000000 1.0
C      1  0.4577240000000  0.6182960000000  0.5095180000000 1.0
C      1  0.5511060000000  0.4629160000000  0.5920130000000 1.0
C      1  0.4462690000000  0.4085310000000  0.4707520000000 1.0
C      1  0.5230170000000  0.4965050000000  0.4149550000000 1.0
C      1  0.4835170000000  0.5834170000000  0.4946920000000 1.0
C      1  0.5155180000000  0.4944090000000  0.5864870000000 1.0
C      1  0.4801360000000  0.4119560000000  0.5038500000000 1.0
C      1  0.5084300000000  0.5947230000000  0.4849860000000 1.0
C      1  0.4943640000000  0.5049970000000  0.6015920000000 1.0
C      1  0.5006830000000  0.3947890000000  0.5119180000000 1.0
C      1  0.4995840000000  0.4851710000000  0.4040040000000 1.0
C      1  0.4735640000000  0.5398810000000  0.5792710000000 1.0
C      1  0.5277310000000  0.4185780000000  0.5406190000000 1.0
C      1  0.4732700000000  0.4555150000000  0.4279230000000 1.0
C      1  0.5349430000000  0.5842260000000  0.4483950000000 1.0
C      1  0.5124450000000  0.5829440000000  0.3945920000000 1.0
C      1  0.4916150000000  0.5909980000000  0.5772660000000 1.0
C      1  0.5102780000000  0.3988650000000  0.5983720000000 1.0
C      1  0.4886460000000  0.3993320000000  0.4076100000000 1.0
END
