TITL C-74080-5790-175 -7.0044134620446e-07 125000 -1012.63889713736 0 0 155 (T23) n - 1
REM
REM in /home/nfs/bkarasulu/CARBON/AIRSS/Generating-Clusters/LCBOP/Higher-Symm/SD-CG/FIRE-CG
REM
REM
REM
REM
REM
REM ./C.cell (b20cbc046b6831c77cfcea5457e17084)
REM AIRSS Version 0.9.1 bugfix July 2018 build 013d7b7c2542+ Fri, 06 Jul 2018 19:26:36 +0100
REM compiler GCC version 9.2.1 20190827 (Red Hat 9.2.1-1)
REM options -cpp -mtune=generic -march=x86-64 -g -O0 -fpre-include=/usr/include/finclude/math-vector-fortran.h
REM seed -1304449495 -1887747151 -493886948 -852018497 1410646118 -429146334 -475902172 -638157656 -454126004 1511613655 -544881993 -1850358433 -954823831 -562275777 1195643006 317827942 -1497948309 -414752826 -496577563 -273816224 1619468292 -1631749536 -1795129042 1879159335 -1507249918 -1940092360 -64152645 -440531998 118164320 787558878 383543121 141809757 1409624459
REM
CELL 1.54180   50.00000   50.00000   50.00000   90.00000   90.00000   90.00000
LATT -1
SFAC C  
C      1  0.4756710000000  0.3740670000000  0.4946530000000 1.0
C      1  0.3739850000000  0.4945670000000  0.4758380000000 1.0
C      1  0.4944870000000  0.4757540000000  0.3741530000000 1.0
C      1  0.4756730000000  0.6264080000000  0.5059940000000 1.0
C      1  0.5246370000000  0.3740670000000  0.5059960000000 1.0
C      1  0.5246390000000  0.6264080000000  0.4946530000000 1.0
C      1  0.3739840000000  0.5059100000000  0.5248040000000 1.0
C      1  0.6263250000000  0.4945660000000  0.5248100000000 1.0
C      1  0.6263260000000  0.5059070000000  0.4758430000000 1.0
C      1  0.4944820000000  0.5247210000000  0.6264940000000 1.0
C      1  0.5058230000000  0.4757550000000  0.6264950000000 1.0
C      1  0.5058290000000  0.5247200000000  0.3741530000000 1.0
C      1  0.4436450000000  0.5320790000000  0.5047420000000 1.0
C      1  0.5319980000000  0.5046560000000  0.4438140000000 1.0
C      1  0.5045730000000  0.4437270000000  0.5321660000000 1.0
C      1  0.4436450000000  0.4683960000000  0.4959040000000 1.0
C      1  0.5566660000000  0.5320790000000  0.4959060000000 1.0
C      1  0.5566650000000  0.4683960000000  0.5047440000000 1.0
C      1  0.5319960000000  0.4958180000000  0.5568350000000 1.0
C      1  0.4683130000000  0.5046570000000  0.5568340000000 1.0
C      1  0.4683150000000  0.4958180000000  0.4438130000000 1.0
C      1  0.5045750000000  0.5567480000000  0.4684820000000 1.0
C      1  0.4957360000000  0.4437270000000  0.4684830000000 1.0
C      1  0.4957360000000  0.5567480000000  0.5321650000000 1.0
C      1  0.5190430000000  0.4280270000000  0.5711110000000 1.0
C      1  0.4279450000000  0.5710250000000  0.5192120000000 1.0
C      1  0.5709430000000  0.5191260000000  0.4281150000000 1.0
C      1  0.5190470000000  0.5724470000000  0.4295370000000 1.0
C      1  0.4812670000000  0.4280270000000  0.4295370000000 1.0
C      1  0.4812650000000  0.5724480000000  0.5711100000000 1.0
C      1  0.4279450000000  0.4294510000000  0.4814330000000 1.0
C      1  0.5723660000000  0.5710230000000  0.4814360000000 1.0
C      1  0.5723640000000  0.4294500000000  0.5192150000000 1.0
C      1  0.5709400000000  0.4813480000000  0.5725360000000 1.0
C      1  0.4293670000000  0.5191280000000  0.5725330000000 1.0
C      1  0.4293700000000  0.4813480000000  0.4281120000000 1.0
C      1  0.4624120000000  0.3986090000000  0.4968290000000 1.0
C      1  0.3985270000000  0.4967440000000  0.4625800000000 1.0
C      1  0.4966630000000  0.4624950000000  0.3986950000000 1.0
C      1  0.4624140000000  0.6018670000000  0.5038170000000 1.0
C      1  0.5378960000000  0.3986080000000  0.5038190000000 1.0
C      1  0.5378980000000  0.6018660000000  0.4968300000000 1.0
C      1  0.3985260000000  0.5037330000000  0.5380640000000 1.0
C      1  0.6017830000000  0.4967430000000  0.5380680000000 1.0
C      1  0.6017850000000  0.5037310000000  0.4625840000000 1.0
C      1  0.4966590000000  0.5379800000000  0.6019530000000 1.0
C      1  0.5036470000000  0.4624960000000  0.6019530000000 1.0
C      1  0.5036520000000  0.5379790000000  0.3986950000000 1.0
C      1  0.4137290000000  0.4797110000000  0.5337720000000 1.0
C      1  0.4796300000000  0.5336870000000  0.4138980000000 1.0
C      1  0.5336050000000  0.4138120000000  0.4797980000000 1.0
C      1  0.4137310000000  0.5207650000000  0.4668720000000 1.0
C      1  0.5865810000000  0.4797100000000  0.4668760000000 1.0
C      1  0.5865800000000  0.5207640000000  0.5337750000000 1.0
C      1  0.4796260000000  0.4667880000000  0.5867490000000 1.0
C      1  0.5206810000000  0.5336870000000  0.5867490000000 1.0
C      1  0.5206840000000  0.4667870000000  0.4138990000000 1.0
C      1  0.5336050000000  0.5866630000000  0.5208510000000 1.0
C      1  0.4667040000000  0.4138130000000  0.5208510000000 1.0
C      1  0.4667070000000  0.5866630000000  0.4797960000000 1.0
C      1  0.4562960000000  0.4503700000000  0.5821160000000 1.0
C      1  0.4502880000000  0.5820300000000  0.4564650000000 1.0
C      1  0.5819490000000  0.4563790000000  0.4504570000000 1.0
C      1  0.4563000000000  0.5501060000000  0.4185300000000 1.0
C      1  0.5440140000000  0.4503680000000  0.4185320000000 1.0
C      1  0.5440110000000  0.5501060000000  0.5821170000000 1.0
C      1  0.4502850000000  0.4184450000000  0.5441810000000 1.0
C      1  0.5500240000000  0.5820300000000  0.5441820000000 1.0
C      1  0.5500240000000  0.4184440000000  0.4564680000000 1.0
C      1  0.5819470000000  0.5440940000000  0.5501940000000 1.0
C      1  0.4183610000000  0.4563810000000  0.5501910000000 1.0
C      1  0.4183640000000  0.5440950000000  0.4504530000000 1.0
C      1  0.4746240000000  0.5470560000000  0.5850090000000 1.0
C      1  0.5469750000000  0.5849230000000  0.4747940000000 1.0
C      1  0.5848400000000  0.4747070000000  0.5471440000000 1.0
C      1  0.4746260000000  0.4534190000000  0.4156380000000 1.0
C      1  0.5256880000000  0.5470550000000  0.4156380000000 1.0
C      1  0.5256830000000  0.4534190000000  0.5850100000000 1.0
C      1  0.5469720000000  0.4155510000000  0.5258550000000 1.0
C      1  0.4533370000000  0.5849240000000  0.5258530000000 1.0
C      1  0.4533370000000  0.4155520000000  0.4747930000000 1.0
C      1  0.5848420000000  0.5257670000000  0.4535070000000 1.0
C      1  0.4154700000000  0.4747080000000  0.4535040000000 1.0
C      1  0.4154690000000  0.5257690000000  0.5471400000000 1.0
C      1  0.5427350000000  0.5262230000000  0.4277840000000 1.0
C      1  0.5261400000000  0.4276970000000  0.5429020000000 1.0
C      1  0.4276150000000  0.5428160000000  0.5263080000000 1.0
C      1  0.5427310000000  0.4742520000000  0.5728650000000 1.0
C      1  0.4575760000000  0.5262240000000  0.5728630000000 1.0
C      1  0.4575790000000  0.4742520000000  0.4277830000000 1.0
C      1  0.5261420000000  0.5727770000000  0.4577460000000 1.0
C      1  0.4741700000000  0.4276970000000  0.4577460000000 1.0
C      1  0.4741690000000  0.5727780000000  0.5429010000000 1.0
C      1  0.4276150000000  0.4576600000000  0.4743370000000 1.0
C      1  0.5726960000000  0.5428150000000  0.4743390000000 1.0
C      1  0.5726950000000  0.4576590000000  0.5263110000000 1.0
C      1  0.5408890000000  0.5032420000000  0.5302700000000 1.0
C      1  0.5031590000000  0.5301830000000  0.5410580000000 1.0
C      1  0.5301010000000  0.5409720000000  0.5033290000000 1.0
C      1  0.5408900000000  0.4972330000000  0.4703790000000 1.0
C      1  0.4594210000000  0.5032420000000  0.4703780000000 1.0
C      1  0.4594200000000  0.4972330000000  0.5302680000000 1.0
C      1  0.5031600000000  0.4702920000000  0.4595890000000 1.0
C      1  0.4971520000000  0.5301830000000  0.4595890000000 1.0
C      1  0.4971500000000  0.4702920000000  0.5410590000000 1.0
C      1  0.5301000000000  0.4595030000000  0.4973200000000 1.0
C      1  0.4702100000000  0.5409720000000  0.4973190000000 1.0
C      1  0.4702100000000  0.4595030000000  0.5033280000000 1.0
C      1  0.4250440000000  0.5691920000000  0.4641510000000 1.0
C      1  0.5691100000000  0.4640650000000  0.4252130000000 1.0
C      1  0.4639820000000  0.4251250000000  0.5692770000000 1.0
C      1  0.4250410000000  0.4312850000000  0.5364940000000 1.0
C      1  0.5752680000000  0.5691910000000  0.5364960000000 1.0
C      1  0.5752680000000  0.4312830000000  0.4641540000000 1.0
C      1  0.5691080000000  0.5364090000000  0.5754380000000 1.0
C      1  0.4312000000000  0.4640670000000  0.5754350000000 1.0
C      1  0.4312030000000  0.5364090000000  0.4252100000000 1.0
C      1  0.4639860000000  0.5753500000000  0.4313690000000 1.0
C      1  0.5363270000000  0.4251240000000  0.4313710000000 1.0
C      1  0.5363260000000  0.5753500000000  0.5692780000000 1.0
C      1  0.4253170000000  0.4917790000000  0.5831920000000 1.0
C      1  0.4916980000000  0.5831070000000  0.4254870000000 1.0
C      1  0.5830250000000  0.4254000000000  0.4918660000000 1.0
C      1  0.4253200000000  0.5086980000000  0.4174530000000 1.0
C      1  0.5749940000000  0.4917770000000  0.4174560000000 1.0
C      1  0.5749900000000  0.5086970000000  0.5831950000000 1.0
C      1  0.4916930000000  0.4173680000000  0.5751610000000 1.0
C      1  0.5086140000000  0.5831080000000  0.5751610000000 1.0
C      1  0.5086160000000  0.4173670000000  0.4254880000000 1.0
C      1  0.5830260000000  0.5750740000000  0.5087850000000 1.0
C      1  0.4172850000000  0.4254010000000  0.5087820000000 1.0
C      1  0.4172860000000  0.5750750000000  0.4918620000000 1.0
C      1  0.4849300000000  0.4826730000000  0.5642150000000 1.0
C      1  0.4825910000000  0.5641290000000  0.4850990000000 1.0
C      1  0.5640470000000  0.4850130000000  0.4827600000000 1.0
C      1  0.4849320000000  0.5178020000000  0.4364320000000 1.0
C      1  0.5153810000000  0.4826720000000  0.4364330000000 1.0
C      1  0.5153780000000  0.5178020000000  0.5642160000000 1.0
C      1  0.4825900000000  0.4363460000000  0.5155480000000 1.0
C      1  0.5177200000000  0.5641290000000  0.5155480000000 1.0
C      1  0.5177200000000  0.4363460000000  0.4851000000000 1.0
C      1  0.5640470000000  0.5154610000000  0.5178900000000 1.0
C      1  0.4362630000000  0.4850140000000  0.5178870000000 1.0
C      1  0.4362640000000  0.5154620000000  0.4827580000000 1.0
C      1  0.5001560000000  0.6357660000000  0.5003230000000 1.0
C      1  0.6356840000000  0.5002360000000  0.5003270000000 1.0
C      1  0.5001540000000  0.3647090000000  0.5003240000000 1.0
C      1  0.3646260000000  0.5002390000000  0.5003210000000 1.0
C      1  0.5001520000000  0.5002380000000  0.6358530000000 1.0
C      1  0.5001580000000  0.5002370000000  0.3647950000000 1.0
C      1  0.5169620000000  0.4834300000000  0.4835170000000 1.0
C      1  0.4833480000000  0.4834310000000  0.5171310000000 1.0
C      1  0.5169620000000  0.5170440000000  0.5171310000000 1.0
C      1  0.4833490000000  0.5170450000000  0.4835170000000 1.0
C      1  0.5001550000000  0.5002380000000  0.5003240000000 1.0
END
