TITL C-74080-5790-275 558.290704463983 125000 -1011.20350810125 0 0 167 (C1) n - 1
REM
REM in /home/nfs/bkarasulu/CARBON/AIRSS/Generating-Clusters/LCBOP/Higher-Symm/SD-CG/FIRE-CG
REM
REM
REM
REM
REM
REM ./C.cell (b20cbc046b6831c77cfcea5457e17084)
REM AIRSS Version 0.9.1 bugfix July 2018 build 013d7b7c2542+ Fri, 06 Jul 2018 19:26:36 +0100
REM compiler GCC version 9.2.1 20190827 (Red Hat 9.2.1-1)
REM options -cpp -mtune=generic -march=x86-64 -g -O0 -fpre-include=/usr/include/finclude/math-vector-fortran.h
REM seed -1508344576 1209664541 -971526171 -304676738 -1845618973 1345111328 1973720250 1137972997 -984626179 -1203643103 -355482181 1015780136 -1026343201 1366471125 525185906 1704233902 315293078 1303509076 1615464053 -1936285268 -953485247 2145580738 -1123832780 -1793831723 -1242241595 1895184918 1621025181 -1973623098 1365948687 -160412140 814237091 1160106958 2067354737
REM
CELL 1.54180   50.00000   50.00000   50.00000   90.00000   90.00000   90.00000
LATT -1
SFAC C  
C      1  0.5109170000000  0.4354000000000  0.4524440000000 1.0
C      1  0.4826070000000  0.5022260000000  0.5927720000000 1.0
C      1  0.5171320000000  0.5076870000000  0.4915010000000 1.0
C      1  0.5670620000000  0.4136460000000  0.5029920000000 1.0
C      1  0.4453680000000  0.5550910000000  0.4009700000000 1.0
C      1  0.4837610000000  0.5168750000000  0.3778720000000 1.0
C      1  0.5501990000000  0.6150670000000  0.5252670000000 1.0
C      1  0.4462780000000  0.5853200000000  0.4644150000000 1.0
C      1  0.5347610000000  0.3866890000000  0.5463450000000 1.0
C      1  0.5577210000000  0.4869160000000  0.4664820000000 1.0
C      1  0.4199500000000  0.3364050000000  0.4124320000000 1.0
C      1  0.4402730000000  0.4739770000000  0.4227330000000 1.0
C      1  0.5295050000000  0.4753400000000  0.5371760000000 1.0
C      1  0.4534040000000  0.4250550000000  0.4270600000000 1.0
C      1  0.4599680000000  0.4000340000000  0.4414860000000 1.0
C      1  0.4125120000000  0.4906590000000  0.5403840000000 1.0
C      1  0.3985290000000  0.4687670000000  0.4591280000000 1.0
C      1  0.5479360000000  0.5490690000000  0.5284690000000 1.0
C      1  0.6019300000000  0.5966670000000  0.4819900000000 1.0
C      1  0.5227780000000  0.5232940000000  0.4315040000000 1.0
C      1  0.4668410000000  0.4085500000000  0.5440140000000 1.0
C      1  0.5041940000000  0.5815820000000  0.5927240000000 1.0
C      1  0.5747890000000  0.4178500000000  0.5309650000000 1.0
C      1  0.4788070000000  0.5296810000000  0.5949100000000 1.0
C      1  0.5127290000000  0.5860220000000  0.4163240000000 1.0
C      1  0.4335320000000  0.5509060000000  0.4261020000000 1.0
C      1  0.4782680000000  0.5440170000000  0.5720520000000 1.0
C      1  0.4938190000000  0.4113270000000  0.5509030000000 1.0
C      1  0.4147960000000  0.5502560000000  0.5345990000000 1.0
C      1  0.4358490000000  0.5794010000000  0.5648230000000 1.0
C      1  0.6043900000000  0.5685610000000  0.4752930000000 1.0
C      1  0.5276330000000  0.4865070000000  0.6026280000000 1.0
C      1  0.4803020000000  0.4584110000000  0.6052230000000 1.0
C      1  0.5721870000000  0.4656830000000  0.5818250000000 1.0
C      1  0.5481240000000  0.5588520000000  0.5016650000000 1.0
C      1  0.5164250000000  0.5802180000000  0.5661180000000 1.0
C      1  0.4863470000000  0.5757700000000  0.5202650000000 1.0
C      1  0.6000090000000  0.6538490000000  0.4259930000000 1.0
C      1  0.4211830000000  0.4941940000000  0.5927820000000 1.0
C      1  0.4139920000000  0.5650910000000  0.4922220000000 1.0
C      1  0.4319410000000  0.4853100000000  0.5140340000000 1.0
C      1  0.5757580000000  0.4247570000000  0.4770460000000 1.0
C      1  0.5856170000000  0.4676760000000  0.5557830000000 1.0
C      1  0.4893230000000  0.5377190000000  0.3944900000000 1.0
C      1  0.4996210000000  0.5687210000000  0.4954980000000 1.0
C      1  0.5051040000000  0.4341840000000  0.5383510000000 1.0
C      1  0.4390150000000  0.5801280000000  0.4906830000000 1.0
C      1  0.5520570000000  0.5298370000000  0.4364760000000 1.0
C      1  0.4612340000000  0.4587490000000  0.5377040000000 1.0
C      1  0.4558070000000  0.5242830000000  0.5106240000000 1.0
C      1  0.5925720000000  0.5562900000000  0.4523260000000 1.0
C      1  0.4311810000000  0.4067890000000  0.5137640000000 1.0
C      1  0.5308640000000  0.4432600000000  0.5790070000000 1.0
C      1  0.5278330000000  0.5814160000000  0.4943390000000 1.0
C      1  0.4366120000000  0.5007810000000  0.4246410000000 1.0
C      1  0.4661620000000  0.4812350000000  0.4765150000000 1.0
C      1  0.4044620000000  0.5381380000000  0.4822220000000 1.0
C      1  0.4522880000000  0.4556610000000  0.5964190000000 1.0
C      1  0.3842920000000  0.4365180000000  0.5197320000000 1.0
C      1  0.5720710000000  0.4588030000000  0.5110600000000 1.0
C      1  0.4353500000000  0.4473210000000  0.4332030000000 1.0
C      1  0.4237640000000  0.5583800000000  0.5768440000000 1.0
C      1  0.4128240000000  0.4476110000000  0.4502760000000 1.0
C      1  0.5126020000000  0.5394800000000  0.4101130000000 1.0
C      1  0.5240220000000  0.6036730000000  0.5177640000000 1.0
C      1  0.5541860000000  0.5077410000000  0.5716920000000 1.0
C      1  0.3883740000000  0.4205240000000  0.4981180000000 1.0
C      1  0.6058820000000  0.5590980000000  0.4280350000000 1.0
C      1  0.5154880000000  0.3984150000000  0.5647160000000 1.0
C      1  0.4918240000000  0.4501850000000  0.4121410000000 1.0
C      1  0.5271740000000  0.4438930000000  0.4969470000000 1.0
C      1  0.5808780000000  0.4468140000000  0.5358130000000 1.0
C      1  0.6217440000000  0.5653370000000  0.4083000000000 1.0
C      1  0.5271700000000  0.4520420000000  0.4680980000000 1.0
C      1  0.5013090000000  0.4844480000000  0.5312370000000 1.0
C      1  0.4437650000000  0.4184770000000  0.5591090000000 1.0
C      1  0.5164080000000  0.4628800000000  0.4047600000000 1.0
C      1  0.4349740000000  0.4758240000000  0.6064480000000 1.0
C      1  0.4815740000000  0.5257760000000  0.5217470000000 1.0
C      1  0.4997430000000  0.5059300000000  0.5137650000000 1.0
C      1  0.6015480000000  0.6362020000000  0.4451190000000 1.0
C      1  0.4442980000000  0.3778550000000  0.4337030000000 1.0
C      1  0.5809980000000  0.5155890000000  0.5656930000000 1.0
C      1  0.3900410000000  0.5226300000000  0.5030610000000 1.0
C      1  0.5282250000000  0.4612540000000  0.3803540000000 1.0
C      1  0.4141970000000  0.4593290000000  0.5545690000000 1.0
C      1  0.5241430000000  0.3772630000000  0.5207640000000 1.0
C      1  0.4838480000000  0.5390560000000  0.5463930000000 1.0
C      1  0.5234560000000  0.4505210000000  0.5525040000000 1.0
C      1  0.4857620000000  0.5847030000000  0.4063800000000 1.0
C      1  0.5387500000000  0.5611640000000  0.5719920000000 1.0
C      1  0.5980610000000  0.5989550000000  0.5109150000000 1.0
C      1  0.4715860000000  0.4318450000000  0.4055580000000 1.0
C      1  0.5450590000000  0.4640060000000  0.5925180000000 1.0
C      1  0.5010290000000  0.4384780000000  0.5104940000000 1.0
C      1  0.5267460000000  0.4106500000000  0.4524660000000 1.0
C      1  0.4029790000000  0.4375230000000  0.5408230000000 1.0
C      1  0.5887910000000  0.5303030000000  0.5021310000000 1.0
C      1  0.5376030000000  0.5140140000000  0.5944260000000 1.0
C      1  0.4857840000000  0.4808510000000  0.4528320000000 1.0
C      1  0.4088950000000  0.5217410000000  0.4587340000000 1.0
C      1  0.5813890000000  0.5165210000000  0.3978370000000 1.0
C      1  0.4735030000000  0.6188620000000  0.5092160000000 1.0
C      1  0.5917850000000  0.4961610000000  0.5466540000000 1.0
C      1  0.5647150000000  0.5400380000000  0.4865400000000 1.0
C      1  0.4947900000000  0.5497860000000  0.4758080000000 1.0
C      1  0.3899270000000  0.5059500000000  0.5247250000000 1.0
C      1  0.4214760000000  0.4152640000000  0.5402270000000 1.0
C      1  0.3971030000000  0.4955560000000  0.4601190000000 1.0
C      1  0.4456430000000  0.4608100000000  0.5147580000000 1.0
C      1  0.5077520000000  0.5862780000000  0.5391990000000 1.0
C      1  0.4602960000000  0.4107520000000  0.5143820000000 1.0
C      1  0.5009670000000  0.6230390000000  0.5093620000000 1.0
C      1  0.4063050000000  0.5357170000000  0.5757480000000 1.0
C      1  0.5262480000000  0.4157950000000  0.5850920000000 1.0
C      1  0.5542450000000  0.5586240000000  0.3990540000000 1.0
C      1  0.6078570000000  0.5734830000000  0.5208860000000 1.0
C      1  0.3797240000000  0.5398570000000  0.5816100000000 1.0
C      1  0.5429210000000  0.4680940000000  0.5103610000000 1.0
C      1  0.5275530000000  0.5640190000000  0.4060310000000 1.0
C      1  0.4723610000000  0.4925390000000  0.5686390000000 1.0
C      1  0.5835510000000  0.4521100000000  0.4849020000000 1.0
C      1  0.6069310000000  0.5528380000000  0.5005160000000 1.0
C      1  0.5565490000000  0.4149050000000  0.4559320000000 1.0
C      1  0.4146280000000  0.5089490000000  0.5699020000000 1.0
C      1  0.5218870000000  0.3920180000000  0.4961190000000 1.0
C      1  0.5613090000000  0.3985090000000  0.5473000000000 1.0
C      1  0.5592470000000  0.5575730000000  0.5530740000000 1.0
C      1  0.5937140000000  0.5080850000000  0.5199900000000 1.0
C      1  0.5083000000000  0.5268980000000  0.4734180000000 1.0
C      1  0.4493240000000  0.5009140000000  0.4950840000000 1.0
C      1  0.4026170000000  0.5678500000000  0.5182150000000 1.0
C      1  0.5648600000000  0.5348120000000  0.4105270000000 1.0
C      1  0.5318790000000  0.5430330000000  0.5956340000000 1.0
C      1  0.4911100000000  0.4528250000000  0.4412900000000 1.0
C      1  0.5078860000000  0.4984840000000  0.4376120000000 1.0
C      1  0.5099180000000  0.3926670000000  0.4691390000000 1.0
C      1  0.4457300000000  0.5917600000000  0.5429460000000 1.0
C      1  0.5131580000000  0.5608160000000  0.6094930000000 1.0
C      1  0.4756340000000  0.4314170000000  0.4993410000000 1.0
C      1  0.4824270000000  0.3933350000000  0.4591790000000 1.0
C      1  0.4321700000000  0.3569340000000  0.4228660000000 1.0
C      1  0.5304010000000  0.5932010000000  0.4665760000000 1.0
C      1  0.5409170000000  0.4703650000000  0.4509510000000 1.0
C      1  0.4725240000000  0.5608040000000  0.3970080000000 1.0
C      1  0.4365820000000  0.5730740000000  0.4428460000000 1.0
C      1  0.4608310000000  0.4547600000000  0.4906790000000 1.0
C      1  0.5412930000000  0.4919960000000  0.4905040000000 1.0
C      1  0.5834910000000  0.4753720000000  0.4688260000000 1.0
C      1  0.5767510000000  0.6130390000000  0.5222310000000 1.0
C      1  0.6027230000000  0.6177610000000  0.4641010000000 1.0
C      1  0.4792820000000  0.4773780000000  0.5469240000000 1.0
C      1  0.5958950000000  0.4975900000000  0.3873390000000 1.0
C      1  0.5404160000000  0.5008140000000  0.5480250000000 1.0
C      1  0.4986460000000  0.4819090000000  0.6052950000000 1.0
C      1  0.5269320000000  0.4776920000000  0.4270840000000 1.0
C      1  0.4264710000000  0.5251370000000  0.4361490000000 1.0
C      1  0.5387180000000  0.4155750000000  0.4999160000000 1.0
C      1  0.4360030000000  0.5355530000000  0.5271270000000 1.0
C      1  0.4103710000000  0.3828820000000  0.4763700000000 1.0
C      1  0.4107780000000  0.4032910000000  0.4943280000000 1.0
C      1  0.4601230000000  0.5919040000000  0.5165320000000 1.0
C      1  0.5375750000000  0.5231980000000  0.5312160000000 1.0
C      1  0.5680470000000  0.5411760000000  0.4580920000000 1.0
C      1  0.4402420000000  0.4427930000000  0.5738230000000 1.0
C      1  0.5827650000000  0.5437450000000  0.5618780000000 1.0
C      1  0.5213600000000  0.5961680000000  0.4413320000000 1.0
END
