TITL C-74086-5274-160 -4.55904454292658e-06 125000 -265.726130070651 0 0 47 (C1) n - 1
REM
REM in /home/nfs/bkarasulu/CARBON/AIRSS/Generating-Clusters/LCBOP/Higher-Symm/SD-CG/FIRE-CG
REM
REM
REM
REM
REM
REM ./C.cell (b20cbc046b6831c77cfcea5457e17084)
REM AIRSS Version 0.9.1 bugfix July 2018 build 013d7b7c2542+ Fri, 06 Jul 2018 19:26:36 +0100
REM compiler GCC version 9.2.1 20190827 (Red Hat 9.2.1-1)
REM options -cpp -mtune=generic -march=x86-64 -g -O0 -fpre-include=/usr/include/finclude/math-vector-fortran.h
REM seed -1540085208 749931559 684414440 -1181993993 -450478413 -1638982418 250796227 -207441875 -1725218664 1326248738 1605826131 1610733068 703966738 -1849789890 707716183 -622925914 -26685593 680974272 -953061770 1995600739 -1766583995 -888990718 -273164966 -1203969385 70483848 -1324440633 -1446606940 -33594303 -1858490335 1777739653 -1643528070 -101468516 1913075632
REM
CELL 1.54180   50.00000   50.00000   50.00000   90.00000   90.00000   90.00000
LATT -1
SFAC C  
C      1  0.5425130000000  0.5458460000000  0.4594550000000 1.0
C      1  0.4428740000000  0.5441880000000  0.4791640000000 1.0
C      1  0.5150100000000  0.5436400000000  0.5570090000000 1.0
C      1  0.4376200000000  0.4953600000000  0.5297890000000 1.0
C      1  0.5566340000000  0.4928680000000  0.5328320000000 1.0
C      1  0.5054090000000  0.4942970000000  0.4294860000000 1.0
C      1  0.4972610000000  0.5618380000000  0.5660090000000 1.0
C      1  0.5575020000000  0.5649160000000  0.4712500000000 1.0
C      1  0.4443580000000  0.5623700000000  0.4592990000000 1.0
C      1  0.4628700000000  0.4446610000000  0.5195460000000 1.0
C      1  0.5148910000000  0.4547810000000  0.5145240000000 1.0
C      1  0.5079810000000  0.4455990000000  0.4613690000000 1.0
C      1  0.4315390000000  0.4938940000000  0.4724000000000 1.0
C      1  0.5171720000000  0.4946640000000  0.5748780000000 1.0
C      1  0.5592320000000  0.4972960000000  0.4498330000000 1.0
C      1  0.4284240000000  0.5200100000000  0.4813680000000 1.0
C      1  0.5257380000000  0.5203850000000  0.5690760000000 1.0
C      1  0.5497640000000  0.5228770000000  0.4446830000000 1.0
C      1  0.4656440000000  0.4913050000000  0.5362500000000 1.0
C      1  0.5452500000000  0.4891850000000  0.5066780000000 1.0
C      1  0.4866650000000  0.4879440000000  0.4506810000000 1.0
C      1  0.4756150000000  0.4632950000000  0.5396950000000 1.0
C      1  0.5382390000000  0.4621190000000  0.4977080000000 1.0
C      1  0.4829540000000  0.4599630000000  0.4587040000000 1.0
C      1  0.5259280000000  0.4747570000000  0.4256300000000 1.0
C      1  0.4265180000000  0.4739010000000  0.5145060000000 1.0
C      1  0.5505520000000  0.4715990000000  0.5510000000000 1.0
C      1  0.4642160000000  0.4558800000000  0.4889200000000 1.0
C      1  0.5050040000000  0.4586290000000  0.5422520000000 1.0
C      1  0.5342300000000  0.4567370000000  0.4690470000000 1.0
C      1  0.5243350000000  0.5080440000000  0.5010590000000 1.0
C      1  0.4878100000000  0.5073330000000  0.4719910000000 1.0
C      1  0.4819770000000  0.5094750000000  0.5208030000000 1.0
C      1  0.4314540000000  0.5205540000000  0.5196000000000 1.0
C      1  0.5538230000000  0.5183920000000  0.5435840000000 1.0
C      1  0.5148830000000  0.5204560000000  0.4292570000000 1.0
C      1  0.4543610000000  0.5447290000000  0.5060420000000 1.0
C      1  0.5300470000000  0.5428230000000  0.5320290000000 1.0
C      1  0.5135140000000  0.5439960000000  0.4562450000000 1.0
C      1  0.4800520000000  0.5363840000000  0.5120100000000 1.0
C      1  0.5206940000000  0.5348460000000  0.5074040000000 1.0
C      1  0.4954750000000  0.5346210000000  0.4748730000000 1.0
C      1  0.5233640000000  0.4708520000000  0.5604320000000 1.0
C      1  0.5448640000000  0.4728390000000  0.4474590000000 1.0
C      1  0.4380640000000  0.4710250000000  0.4880910000000 1.0
C      1  0.4967520000000  0.4960540000000  0.4982660000000 1.0
C      1  0.4940410000000  0.4678290000000  0.4998700000000 1.0
END
