TITL C-74084-3399-71 5.89002466094644e-07 125000 -482.374668649535 0 0 77 (C1) n - 1
REM
REM in /home/nfs/bkarasulu/CARBON/AIRSS/Generating-Clusters/LCBOP/Higher-Symm/SD-CG/FIRE-CG
REM
REM
REM
REM
REM
REM ./C.cell (b20cbc046b6831c77cfcea5457e17084)
REM AIRSS Version 0.9.1 bugfix July 2018 build 013d7b7c2542+ Fri, 06 Jul 2018 19:26:36 +0100
REM compiler GCC version 9.2.1 20190827 (Red Hat 9.2.1-1)
REM options -cpp -mtune=generic -march=x86-64 -g -O0 -fpre-include=/usr/include/finclude/math-vector-fortran.h
REM seed -2031302719 -1209406475 1021056317 -196038653 1368280169 1206602944 -393932437 -1200143748 872846473 1414144728 -820270010 -846218251 -2136797869 -2007673302 -247320958 728131272 -938343050 -323743266 -1906769723 249403679 1439779127 942753186 1061157413 -495004972 152048594 2131918016 1558538790 704403551 -1860670359 -1977127307 1270864697 247524816 -781554582
REM
CELL 1.54180   50.00000   50.00000   50.00000   90.00000   90.00000   90.00000
LATT -1
SFAC C  
C      1  0.5344340000000  0.5514960000000  0.4510080000000 1.0
C      1  0.4629430000000  0.4524790000000  0.4527580000000 1.0
C      1  0.4625790000000  0.5430520000000  0.5484230000000 1.0
C      1  0.5402040000000  0.4453720000000  0.5496220000000 1.0
C      1  0.4422760000000  0.4876060000000  0.4962210000000 1.0
C      1  0.5582620000000  0.5262940000000  0.4921310000000 1.0
C      1  0.5626020000000  0.4716800000000  0.5094130000000 1.0
C      1  0.4020160000000  0.5432530000000  0.4966390000000 1.0
C      1  0.4207120000000  0.4976530000000  0.5370170000000 1.0
C      1  0.5764610000000  0.5132420000000  0.5385170000000 1.0
C      1  0.5768890000000  0.4874250000000  0.4627390000000 1.0
C      1  0.4163000000000  0.5093550000000  0.4597870000000 1.0
C      1  0.4624760000000  0.5117910000000  0.4451610000000 1.0
C      1  0.5349860000000  0.4957730000000  0.4363620000000 1.0
C      1  0.5357360000000  0.5011970000000  0.5652940000000 1.0
C      1  0.4655880000000  0.4833830000000  0.5502240000000 1.0
C      1  0.4674580000000  0.5559870000000  0.5224130000000 1.0
C      1  0.5349860000000  0.4292380000000  0.5236990000000 1.0
C      1  0.5278580000000  0.5670110000000  0.4767890000000 1.0
C      1  0.4708980000000  0.4371080000000  0.4776520000000 1.0
C      1  0.4855030000000  0.5267980000000  0.5560510000000 1.0
C      1  0.5141700000000  0.4572470000000  0.5570850000000 1.0
C      1  0.5098970000000  0.5363450000000  0.4451400000000 1.0
C      1  0.4857780000000  0.4684140000000  0.4446330000000 1.0
C      1  0.5100480000000  0.5107910000000  0.4309710000000 1.0
C      1  0.4841290000000  0.4955820000000  0.4334540000000 1.0
C      1  0.4849960000000  0.4990500000000  0.5653740000000 1.0
C      1  0.5115680000000  0.4842820000000  0.5697570000000 1.0
C      1  0.4971350000000  0.4520130000000  0.5339380000000 1.0
C      1  0.5076270000000  0.5326480000000  0.5371190000000 1.0
C      1  0.5083710000000  0.4624330000000  0.4629870000000 1.0
C      1  0.4932840000000  0.5376750000000  0.4691060000000 1.0
C      1  0.4190060000000  0.5601590000000  0.5095520000000 1.0
C      1  0.5739410000000  0.4466080000000  0.5137630000000 1.0
C      1  0.5675830000000  0.5520480000000  0.4866430000000 1.0
C      1  0.4360640000000  0.4609180000000  0.4920680000000 1.0
C      1  0.4808370000000  0.4735910000000  0.5280780000000 1.0
C      1  0.5289220000000  0.5137440000000  0.5399810000000 1.0
C      1  0.5284170000000  0.4824790000000  0.4612470000000 1.0
C      1  0.4735990000000  0.5181270000000  0.4713670000000 1.0
C      1  0.5778510000000  0.4600530000000  0.4531470000000 1.0
C      1  0.4368990000000  0.5256460000000  0.4468550000000 1.0
C      1  0.4378920000000  0.4763740000000  0.5477600000000 1.0
C      1  0.5750840000000  0.5407940000000  0.5477030000000 1.0
C      1  0.4996070000000  0.4426650000000  0.4844520000000 1.0
C      1  0.5044440000000  0.5547040000000  0.4892060000000 1.0
C      1  0.5094060000000  0.4375810000000  0.5117500000000 1.0
C      1  0.4960450000000  0.5505260000000  0.5160190000000 1.0
C      1  0.5635230000000  0.4919520000000  0.5581010000000 1.0
C      1  0.4181260000000  0.5204190000000  0.5534850000000 1.0
C      1  0.4180180000000  0.4818600000000  0.4507670000000 1.0
C      1  0.5617260000000  0.5072400000000  0.4438320000000 1.0
C      1  0.4398050000000  0.5531800000000  0.4539400000000 1.0
C      1  0.5695220000000  0.4350350000000  0.4592140000000 1.0
C      1  0.5645300000000  0.5648260000000  0.5409610000000 1.0
C      1  0.4340910000000  0.4482370000000  0.5432340000000 1.0
C      1  0.5585500000000  0.5363990000000  0.4439060000000 1.0
C      1  0.4365920000000  0.4621750000000  0.4465210000000 1.0
C      1  0.4368900000000  0.5389910000000  0.5587620000000 1.0
C      1  0.5627540000000  0.4626060000000  0.5571370000000 1.0
C      1  0.4499200000000  0.5665240000000  0.4754240000000 1.0
C      1  0.5598330000000  0.4191000000000  0.4789750000000 1.0
C      1  0.5529770000000  0.5794640000000  0.5211500000000 1.0
C      1  0.4441200000000  0.4303940000000  0.5248670000000 1.0
C      1  0.5318290000000  0.5043750000000  0.4806900000000 1.0
C      1  0.4673410000000  0.5001380000000  0.4917150000000 1.0
C      1  0.4885310000000  0.4903590000000  0.5068920000000 1.0
C      1  0.5351700000000  0.4910100000000  0.5217630000000 1.0
C      1  0.5774430000000  0.5124130000000  0.5082610000000 1.0
C      1  0.4209300000000  0.5013860000000  0.5082790000000 1.0
C      1  0.4080410000000  0.5170690000000  0.4876520000000 1.0
C      1  0.5790990000000  0.4882050000000  0.4928710000000 1.0
C      1  0.4503030000000  0.4371440000000  0.4979300000000 1.0
C      1  0.5501720000000  0.5731490000000  0.4937260000000 1.0
C      1  0.5575280000000  0.4247120000000  0.5065680000000 1.0
C      1  0.4467440000000  0.5637710000000  0.5037380000000 1.0
C      1  0.5156450000000  0.4952810000000  0.5019200000000 1.0
END
