TITL C-74083-3671-336 5.49346145593768e-06 125000 -1205.08250271858 0 0 198 (C2h) n - 1
REM
REM in /home/nfs/bkarasulu/CARBON/AIRSS/Generating-Clusters/LCBOP/Higher-Symm/SD-CG/FIRE-CG
REM
REM
REM
REM
REM
REM ./C.cell (b20cbc046b6831c77cfcea5457e17084)
REM AIRSS Version 0.9.1 bugfix July 2018 build 013d7b7c2542+ Fri, 06 Jul 2018 19:26:36 +0100
REM compiler GCC version 9.2.1 20190827 (Red Hat 9.2.1-1)
REM options -cpp -mtune=generic -march=x86-64 -g -O0 -fpre-include=/usr/include/finclude/math-vector-fortran.h
REM seed 1716055804 -849144517 -527024763 566151182 429335895 490764845 1965131608 1811512075 -1409722036 -2112186828 1406937524 -892397298 -1432037953 672300900 -472291313 855262169 1030023045 99991970 1937207558 1670060343 97318814 -736903354 -1806573168 -1379062821 -1140805021 1316335027 152147643 -1626460861 265764837 -1535114890 -2136806229 -1599949232 -1261001773
REM
CELL 1.54180   50.00000   50.00000   50.00000   90.00000   90.00000   90.00000
LATT -1
SFAC C  
C      1  0.4846430000000  0.5460850000000  0.4708820000000 1.0
C      1  0.4846870000000  0.4539670000000  0.5289220000000 1.0
C      1  0.5157030000000  0.5460330000000  0.4710780000000 1.0
C      1  0.5157470000000  0.4539150000000  0.5291180000000 1.0
C      1  0.4846870000000  0.5460340000000  0.5289220000000 1.0
C      1  0.4846430000000  0.4539150000000  0.4708830000000 1.0
C      1  0.5157470000000  0.5460850000000  0.5291170000000 1.0
C      1  0.5157030000000  0.4539660000000  0.4710780000000 1.0
C      1  0.4479150000000  0.5137720000000  0.4752850000000 1.0
C      1  0.4488730000000  0.4864700000000  0.5247330000000 1.0
C      1  0.5515170000000  0.5135300000000  0.4752670000000 1.0
C      1  0.5524750000000  0.4862280000000  0.5247150000000 1.0
C      1  0.4488740000000  0.5135310000000  0.5247330000000 1.0
C      1  0.4479150000000  0.4862280000000  0.4752850000000 1.0
C      1  0.5524750000000  0.5137720000000  0.5247150000000 1.0
C      1  0.5515160000000  0.4864690000000  0.4752670000000 1.0
C      1  0.5140610000000  0.5597790000000  0.5755980000000 1.0
C      1  0.5139130000000  0.4402040000000  0.4245760000000 1.0
C      1  0.4864770000000  0.5597960000000  0.5754240000000 1.0
C      1  0.4863290000000  0.4402210000000  0.4244020000000 1.0
C      1  0.5139140000000  0.5597950000000  0.4245750000000 1.0
C      1  0.5140600000000  0.4402220000000  0.5755980000000 1.0
C      1  0.4863300000000  0.5597780000000  0.4244020000000 1.0
C      1  0.4864760000000  0.4402050000000  0.5754250000000 1.0
C      1  0.4743020000000  0.5236100000000  0.5142600000000 1.0
C      1  0.4749480000000  0.4772260000000  0.4850670000000 1.0
C      1  0.5254420000000  0.5227740000000  0.5149330000000 1.0
C      1  0.5260880000000  0.4763900000000  0.4857400000000 1.0
C      1  0.4749480000000  0.5227740000000  0.4850670000000 1.0
C      1  0.4743020000000  0.4763900000000  0.5142600000000 1.0
C      1  0.5260880000000  0.5236100000000  0.4857400000000 1.0
C      1  0.5254420000000  0.4772260000000  0.5149330000000 1.0
C      1  0.6052120000000  0.5618190000000  0.4575670000000 1.0
C      1  0.6052950000000  0.4381790000000  0.5426180000000 1.0
C      1  0.3950950000000  0.5618210000000  0.4573820000000 1.0
C      1  0.3951780000000  0.4381810000000  0.5424330000000 1.0
C      1  0.6052960000000  0.5618210000000  0.5426170000000 1.0
C      1  0.6052110000000  0.4381800000000  0.4575670000000 1.0
C      1  0.3951790000000  0.5618200000000  0.5424330000000 1.0
C      1  0.3950940000000  0.4381790000000  0.4573830000000 1.0
C      1  0.5311410000000  0.4180650000000  0.5821160000000 1.0
C      1  0.5310240000000  0.5819650000000  0.4181090000000 1.0
C      1  0.4693660000000  0.4180350000000  0.5818910000000 1.0
C      1  0.4692490000000  0.5819350000000  0.4178840000000 1.0
C      1  0.5310230000000  0.4180340000000  0.4181100000000 1.0
C      1  0.5311420000000  0.5819360000000  0.5821150000000 1.0
C      1  0.4692480000000  0.4180640000000  0.4178850000000 1.0
C      1  0.4693670000000  0.5819660000000  0.5818900000000 1.0
C      1  0.5545080000000  0.5672680000000  0.4057870000000 1.0
C      1  0.5546100000000  0.4327490000000  0.5944740000000 1.0
C      1  0.4457800000000  0.5672510000000  0.4055260000000 1.0
C      1  0.4458820000000  0.4327320000000  0.5942130000000 1.0
C      1  0.5546100000000  0.5672510000000  0.5944730000000 1.0
C      1  0.5545080000000  0.4327300000000  0.4057880000000 1.0
C      1  0.4458820000000  0.5672700000000  0.5942120000000 1.0
C      1  0.4457800000000  0.4327490000000  0.4055270000000 1.0
C      1  0.4427700000000  0.4278260000000  0.5247680000000 1.0
C      1  0.4426300000000  0.5719440000000  0.4753180000000 1.0
C      1  0.5577600000000  0.4280560000000  0.5246820000000 1.0
C      1  0.5576200000000  0.5721740000000  0.4752320000000 1.0
C      1  0.4426290000000  0.4280560000000  0.4753190000000 1.0
C      1  0.4427710000000  0.5721750000000  0.5247670000000 1.0
C      1  0.5576190000000  0.4278250000000  0.4752330000000 1.0
C      1  0.5577610000000  0.5719440000000  0.5246810000000 1.0
C      1  0.4193310000000  0.4301000000000  0.5844550000000 1.0
C      1  0.4192460000000  0.5698590000000  0.4153390000000 1.0
C      1  0.5811440000000  0.4301410000000  0.5846610000000 1.0
C      1  0.5810590000000  0.5699000000000  0.4155450000000 1.0
C      1  0.4192450000000  0.4301410000000  0.4153400000000 1.0
C      1  0.4193320000000  0.5699020000000  0.5844550000000 1.0
C      1  0.5810580000000  0.4300980000000  0.4155450000000 1.0
C      1  0.5811450000000  0.5698590000000  0.5846600000000 1.0
C      1  0.4764480000000  0.4598980000000  0.5576720000000 1.0
C      1  0.4761560000000  0.5401290000000  0.4421300000000 1.0
C      1  0.5242340000000  0.4598710000000  0.5578700000000 1.0
C      1  0.5239420000000  0.5401020000000  0.4423280000000 1.0
C      1  0.4761560000000  0.4598710000000  0.4421300000000 1.0
C      1  0.4764480000000  0.5401030000000  0.5576720000000 1.0
C      1  0.5239420000000  0.4598970000000  0.4423280000000 1.0
C      1  0.5242340000000  0.5401290000000  0.5578700000000 1.0
C      1  0.5296740000000  0.5694060000000  0.4845590000000 1.0
C      1  0.5298010000000  0.4307390000000  0.5154580000000 1.0
C      1  0.4705890000000  0.5692610000000  0.4845420000000 1.0
C      1  0.4707160000000  0.4305940000000  0.5154410000000 1.0
C      1  0.5298010000000  0.5692610000000  0.5154570000000 1.0
C      1  0.5296730000000  0.4305940000000  0.4845600000000 1.0
C      1  0.4707170000000  0.5694060000000  0.5154400000000 1.0
C      1  0.4705890000000  0.4307390000000  0.4845430000000 1.0
C      1  0.6389390000000  0.5276390000000  0.5406610000000 1.0
C      1  0.6388450000000  0.4723690000000  0.4594930000000 1.0
C      1  0.3615450000000  0.5276310000000  0.5405070000000 1.0
C      1  0.3614510000000  0.4723610000000  0.4593390000000 1.0
C      1  0.6388460000000  0.5276290000000  0.4594920000000 1.0
C      1  0.6389380000000  0.4723600000000  0.5406610000000 1.0
C      1  0.3614520000000  0.5276400000000  0.4593390000000 1.0
C      1  0.3615440000000  0.4723710000000  0.5405080000000 1.0
C      1  0.5503840000000  0.5409860000000  0.3924310000000 1.0
C      1  0.5504910000000  0.4590100000000  0.6078890000000 1.0
C      1  0.4498990000000  0.5409900000000  0.3921110000000 1.0
C      1  0.4500060000000  0.4590140000000  0.6075690000000 1.0
C      1  0.5504920000000  0.5409910000000  0.6078880000000 1.0
C      1  0.5503830000000  0.4590120000000  0.3924310000000 1.0
C      1  0.4500070000000  0.5409880000000  0.6075690000000 1.0
C      1  0.4498980000000  0.4590090000000  0.3921120000000 1.0
C      1  0.5266980000000  0.3854960000000  0.5377260000000 1.0
C      1  0.5265270000000  0.6145440000000  0.4623090000000 1.0
C      1  0.4738630000000  0.3854560000000  0.5376910000000 1.0
C      1  0.4736920000000  0.6145040000000  0.4622740000000 1.0
C      1  0.5265260000000  0.3854550000000  0.4623100000000 1.0
C      1  0.5267000000000  0.6145040000000  0.5377250000000 1.0
C      1  0.4736900000000  0.3854960000000  0.4622750000000 1.0
C      1  0.4738640000000  0.6145450000000  0.5376900000000 1.0
C      1  0.4831870000000  0.3924590000000  0.4329310000000 1.0
C      1  0.4832640000000  0.6075260000000  0.5670200000000 1.0
C      1  0.5171260000000  0.3924740000000  0.4329800000000 1.0
C      1  0.5172030000000  0.6075410000000  0.5670690000000 1.0
C      1  0.4832630000000  0.3924750000000  0.5670210000000 1.0
C      1  0.4831880000000  0.6075400000000  0.4329290000000 1.0
C      1  0.5172020000000  0.3924600000000  0.5670710000000 1.0
C      1  0.5171270000000  0.6075250000000  0.4329790000000 1.0
C      1  0.4488360000000  0.4862150000000  0.6119870000000 1.0
C      1  0.4487400000000  0.5137890000000  0.3876480000000 1.0
C      1  0.5516500000000  0.4862110000000  0.6123520000000 1.0
C      1  0.5515540000000  0.5137850000000  0.3880130000000 1.0
C      1  0.4487400000000  0.4862100000000  0.3876480000000 1.0
C      1  0.4488360000000  0.5137870000000  0.6119870000000 1.0
C      1  0.5515540000000  0.4862130000000  0.3880130000000 1.0
C      1  0.5516500000000  0.5137900000000  0.6123520000000 1.0
C      1  0.6289200000000  0.4858900000000  0.5636550000000 1.0
C      1  0.6288160000000  0.5141090000000  0.4364970000000 1.0
C      1  0.3715740000000  0.4858910000000  0.5635030000000 1.0
C      1  0.3714700000000  0.5141100000000  0.4363450000000 1.0
C      1  0.6288160000000  0.4858890000000  0.4364970000000 1.0
C      1  0.6289200000000  0.5141090000000  0.5636550000000 1.0
C      1  0.3714700000000  0.4858910000000  0.4363450000000 1.0
C      1  0.3715740000000  0.5141110000000  0.5635030000000 1.0
C      1  0.6260980000000  0.5491920000000  0.4726670000000 1.0
C      1  0.6261730000000  0.4508000000000  0.5275000000000 1.0
C      1  0.3742170000000  0.5492000000000  0.4725000000000 1.0
C      1  0.3742920000000  0.4508080000000  0.5273330000000 1.0
C      1  0.6261740000000  0.5491990000000  0.5275000000000 1.0
C      1  0.6260970000000  0.4508060000000  0.4726680000000 1.0
C      1  0.3742930000000  0.5491940000000  0.5273320000000 1.0
C      1  0.3742160000000  0.4508010000000  0.4725000000000 1.0
C      1  0.3872920000000  0.4684900000000  0.4204170000000 1.0
C      1  0.3873920000000  0.5315250000000  0.5794200000000 1.0
C      1  0.6129980000000  0.4684750000000  0.4205800000000 1.0
C      1  0.6130980000000  0.5315100000000  0.5795830000000 1.0
C      1  0.3873920000000  0.4684770000000  0.5794210000000 1.0
C      1  0.3872920000000  0.5315110000000  0.4204170000000 1.0
C      1  0.6130980000000  0.4684890000000  0.5795830000000 1.0
C      1  0.6129980000000  0.5315230000000  0.4205790000000 1.0
C      1  0.5358950000000  0.6309220000000  0.4857930000000 1.0
C      1  0.5359570000000  0.3690780000000  0.5142290000000 1.0
C      1  0.4644330000000  0.6309220000000  0.4857710000000 1.0
C      1  0.4644950000000  0.3690780000000  0.5142070000000 1.0
C      1  0.5359580000000  0.6309210000000  0.5142280000000 1.0
C      1  0.5358930000000  0.3690780000000  0.4857940000000 1.0
C      1  0.4644970000000  0.6309220000000  0.5142060000000 1.0
C      1  0.4644320000000  0.3690790000000  0.4857720000000 1.0
C      1  0.6010470000000  0.4442390000000  0.4296380000000 1.0
C      1  0.6011290000000  0.5557440000000  0.5705390000000 1.0
C      1  0.3992610000000  0.4442560000000  0.4294610000000 1.0
C      1  0.3993430000000  0.5557610000000  0.5703620000000 1.0
C      1  0.6011290000000  0.4442560000000  0.5705400000000 1.0
C      1  0.6010480000000  0.5557590000000  0.4296380000000 1.0
C      1  0.3993420000000  0.4442410000000  0.5703620000000 1.0
C      1  0.3992610000000  0.5557440000000  0.4294600000000 1.0
C      1  0.5290100000000  0.4865760000000  0.5662130000000 1.0
C      1  0.5283940000000  0.5133970000000  0.4340100000000 1.0
C      1  0.4719960000000  0.4866030000000  0.5659900000000 1.0
C      1  0.4713800000000  0.5134240000000  0.4337870000000 1.0
C      1  0.5283940000000  0.4866020000000  0.4340100000000 1.0
C      1  0.5290100000000  0.5134250000000  0.5662120000000 1.0
C      1  0.4713800000000  0.4865750000000  0.4337880000000 1.0
C      1  0.4719960000000  0.5133980000000  0.5659900000000 1.0
C      1  0.4865030000000  0.4075410000000  0.5238690000000 1.0
C      1  0.4863020000000  0.5924060000000  0.4760840000000 1.0
C      1  0.5140880000000  0.4075940000000  0.5239160000000 1.0
C      1  0.5138870000000  0.5924590000000  0.4761310000000 1.0
C      1  0.4863010000000  0.4075940000000  0.4760850000000 1.0
C      1  0.4865040000000  0.5924590000000  0.5238680000000 1.0
C      1  0.5138860000000  0.4075410000000  0.4761320000000 1.0
C      1  0.5140890000000  0.5924060000000  0.5239150000000 1.0
C      1  0.5835780000000  0.5734790000000  0.4706060000000 1.0
C      1  0.5836620000000  0.4265550000000  0.5295470000000 1.0
C      1  0.4167280000000  0.5734450000000  0.4704530000000 1.0
C      1  0.4168120000000  0.4265210000000  0.5293940000000 1.0
C      1  0.5836620000000  0.5734440000000  0.5295460000000 1.0
C      1  0.5835770000000  0.4265190000000  0.4706060000000 1.0
C      1  0.4168130000000  0.5734810000000  0.5293940000000 1.0
C      1  0.4167280000000  0.4265560000000  0.4704540000000 1.0
C      1  0.3706510000000  0.5536830000000  0.4999220000000 1.0
C      1  0.6297390000000  0.4463170000000  0.5000780000000 1.0
C      1  0.3706500000000  0.4463190000000  0.4999230000000 1.0
C      1  0.6297400000000  0.5536810000000  0.5000770000000 1.0
C      1  0.4954310000000  0.5000000000000  0.4817810000000 1.0
C      1  0.5049590000000  0.5000000000000  0.5182190000000 1.0
END
