TITL C-74085-4933-170 10.2764769549702 125000 -931.623106772967 0 0 149 (C1) n - 1
REM
REM in /home/nfs/bkarasulu/CARBON/AIRSS/Generating-Clusters/LCBOP/Higher-Symm/SD-CG/FIRE-CG
REM
REM
REM
REM
REM
REM ./C.cell (b20cbc046b6831c77cfcea5457e17084)
REM AIRSS Version 0.9.1 bugfix July 2018 build 013d7b7c2542+ Fri, 06 Jul 2018 19:26:36 +0100
REM compiler GCC version 9.2.1 20190827 (Red Hat 9.2.1-1)
REM options -cpp -mtune=generic -march=x86-64 -g -O0 -fpre-include=/usr/include/finclude/math-vector-fortran.h
REM seed -1450653657 883508724 -454289325 -161517190 -1050494593 977257907 -586939953 671027442 -2070863477 736942021 170510645 546009034 -267339137 -1369093516 440539120 -1848660189 66934959 -699260755 -343064830 1879954117 -1943141673 -574285867 1601673030 -1494729664 -2142948797 447934940 -1987680771 1370414292 1650463580 533154780 752203024 1185545372 459889711
REM
CELL 1.54180   50.00000   50.00000   50.00000   90.00000   90.00000   90.00000
LATT -1
SFAC C  
C      1  0.5271130000000  0.6150030000000  0.4980060000000 1.0
C      1  0.3845720000000  0.5238680000000  0.4981510000000 1.0
C      1  0.4721680000000  0.3843190000000  0.4946700000000 1.0
C      1  0.6129760000000  0.4746080000000  0.4966040000000 1.0
C      1  0.4113820000000  0.4905630000000  0.4535230000000 1.0
C      1  0.5038040000000  0.4084990000000  0.4464720000000 1.0
C      1  0.5825450000000  0.5038230000000  0.4578080000000 1.0
C      1  0.4938670000000  0.5888260000000  0.4545890000000 1.0
C      1  0.4833140000000  0.5155200000000  0.3954500000000 1.0
C      1  0.4834940000000  0.4831150000000  0.3932270000000 1.0
C      1  0.5159070000000  0.4861620000000  0.3952670000000 1.0
C      1  0.5137500000000  0.5165560000000  0.3968450000000 1.0
C      1  0.4901740000000  0.5760330000000  0.5514680000000 1.0
C      1  0.4257370000000  0.4918880000000  0.5516370000000 1.0
C      1  0.5238270000000  0.4216790000000  0.5311810000000 1.0
C      1  0.5800440000000  0.5212990000000  0.5445510000000 1.0
C      1  0.5174910000000  0.3922650000000  0.4950480000000 1.0
C      1  0.5995870000000  0.5209800000000  0.5021580000000 1.0
C      1  0.4798060000000  0.5961580000000  0.5064190000000 1.0
C      1  0.4063350000000  0.4793100000000  0.5066420000000 1.0
C      1  0.6078840000000  0.4817930000000  0.5250370000000 1.0
C      1  0.5204010000000  0.6088300000000  0.5261140000000 1.0
C      1  0.3946160000000  0.5201420000000  0.5256610000000 1.0
C      1  0.4794080000000  0.3951410000000  0.5219230000000 1.0
C      1  0.5957650000000  0.4528420000000  0.4883740000000 1.0
C      1  0.5477300000000  0.5968380000000  0.4878110000000 1.0
C      1  0.4000840000000  0.5440390000000  0.4841420000000 1.0
C      1  0.4529740000000  0.4019070000000  0.4822120000000 1.0
C      1  0.4348220000000  0.5529840000000  0.5455810000000 1.0
C      1  0.4418120000000  0.4313290000000  0.5472200000000 1.0
C      1  0.5730540000000  0.4531890000000  0.5513590000000 1.0
C      1  0.5404200000000  0.5727960000000  0.5516900000000 1.0
C      1  0.4091710000000  0.4453060000000  0.4371980000000 1.0
C      1  0.5524100000000  0.4106480000000  0.4428630000000 1.0
C      1  0.5882350000000  0.5499730000000  0.4451880000000 1.0
C      1  0.4480060000000  0.5928030000000  0.4393920000000 1.0
C      1  0.4332970000000  0.6016750000000  0.4604220000000 1.0
C      1  0.3990920000000  0.4311440000000  0.4578530000000 1.0
C      1  0.5650520000000  0.4023250000000  0.4663730000000 1.0
C      1  0.5978510000000  0.5636540000000  0.4667290000000 1.0
C      1  0.5868020000000  0.5763060000000  0.5178100000000 1.0
C      1  0.4211460000000  0.5867050000000  0.5100920000000 1.0
C      1  0.4115170000000  0.4210770000000  0.5079500000000 1.0
C      1  0.5784070000000  0.4140610000000  0.5187550000000 1.0
C      1  0.5359880000000  0.4224920000000  0.5578680000000 1.0
C      1  0.5829380000000  0.5429590000000  0.5628430000000 1.0
C      1  0.5012000000000  0.5698050000000  0.5781010000000 1.0
C      1  0.4364270000000  0.5064230000000  0.5757210000000 1.0
C      1  0.4871240000000  0.5481650000000  0.5387170000000 1.0
C      1  0.4505880000000  0.4807810000000  0.5422180000000 1.0
C      1  0.5408900000000  0.4416150000000  0.5159920000000 1.0
C      1  0.5519810000000  0.5234740000000  0.5389050000000 1.0
C      1  0.5215550000000  0.5006700000000  0.4634130000000 1.0
C      1  0.4987280000000  0.5198890000000  0.4585990000000 1.0
C      1  0.4776330000000  0.4961490000000  0.4518960000000 1.0
C      1  0.5057850000000  0.4770410000000  0.4575570000000 1.0
C      1  0.5152390000000  0.4086920000000  0.4727710000000 1.0
C      1  0.5800750000000  0.5171480000000  0.4828670000000 1.0
C      1  0.4807440000000  0.5848670000000  0.4806890000000 1.0
C      1  0.4163160000000  0.4790400000000  0.4802140000000 1.0
C      1  0.5986150000000  0.5085500000000  0.5276070000000 1.0
C      1  0.4946430000000  0.5969430000000  0.5309320000000 1.0
C      1  0.4060480000000  0.4949030000000  0.5308400000000 1.0
C      1  0.5074780000000  0.4013440000000  0.5203120000000 1.0
C      1  0.5550230000000  0.5353140000000  0.5860990000000 1.0
C      1  0.4890140000000  0.5457580000000  0.5909940000000 1.0
C      1  0.4572170000000  0.4865900000000  0.5892430000000 1.0
C      1  0.5260290000000  0.4428520000000  0.5793120000000 1.0
C      1  0.4224390000000  0.5169700000000  0.4461490000000 1.0
C      1  0.4790050000000  0.4243600000000  0.4437740000000 1.0
C      1  0.5685460000000  0.4779140000000  0.4530210000000 1.0
C      1  0.5200020000000  0.5757360000000  0.4485480000000 1.0
C      1  0.5536310000000  0.5253630000000  0.4873360000000 1.0
C      1  0.4712240000000  0.5575750000000  0.4781910000000 1.0
C      1  0.4438590000000  0.4717690000000  0.4779720000000 1.0
C      1  0.5242700000000  0.4357780000000  0.4758030000000 1.0
C      1  0.5658630000000  0.4215980000000  0.5491440000000 1.0
C      1  0.5907070000000  0.5657260000000  0.5453730000000 1.0
C      1  0.4330850000000  0.5836650000000  0.5372790000000 1.0
C      1  0.4134730000000  0.4323530000000  0.5346140000000 1.0
C      1  0.5502920000000  0.4846680000000  0.4294030000000 1.0
C      1  0.5135150000000  0.5538350000000  0.4279470000000 1.0
C      1  0.4442820000000  0.5134140000000  0.4249090000000 1.0
C      1  0.4847870000000  0.4460430000000  0.4239320000000 1.0
C      1  0.5350560000000  0.5037560000000  0.4879070000000 1.0
C      1  0.4931420000000  0.5400630000000  0.4770620000000 1.0
C      1  0.4593740000000  0.4946980000000  0.4722990000000 1.0
C      1  0.5050890000000  0.4554430000000  0.4750050000000 1.0
C      1  0.5707970000000  0.4007280000000  0.4936480000000 1.0
C      1  0.6000080000000  0.5698550000000  0.4931630000000 1.0
C      1  0.4264210000000  0.6014340000000  0.4866030000000 1.0
C      1  0.3974120000000  0.4257010000000  0.4841770000000 1.0
C      1  0.4208160000000  0.5383800000000  0.4651060000000 1.0
C      1  0.4617950000000  0.4251890000000  0.4675630000000 1.0
C      1  0.5703750000000  0.4573740000000  0.4746820000000 1.0
C      1  0.5403190000000  0.5750430000000  0.4699320000000 1.0
C      1  0.4605030000000  0.4497740000000  0.4835630000000 1.0
C      1  0.5477390000000  0.4443800000000  0.4881420000000 1.0
C      1  0.5398560000000  0.5499030000000  0.4837430000000 1.0
C      1  0.4454190000000  0.5506220000000  0.4709860000000 1.0
C      1  0.4402960000000  0.5360850000000  0.5733190000000 1.0
C      1  0.4417320000000  0.4366450000000  0.5768810000000 1.0
C      1  0.5707340000000  0.4609630000000  0.5797350000000 1.0
C      1  0.5294970000000  0.5735960000000  0.5783730000000 1.0
C      1  0.5136900000000  0.5464580000000  0.4950150000000 1.0
C      1  0.4700670000000  0.5052510000000  0.4957040000000 1.0
C      1  0.4865190000000  0.4590190000000  0.4982050000000 1.0
C      1  0.5196520000000  0.4939350000000  0.5094270000000 1.0
C      1  0.4601200000000  0.5463800000000  0.5914180000000 1.0
C      1  0.4471720000000  0.4591280000000  0.5914900000000 1.0
C      1  0.5484540000000  0.4537610000000  0.5938580000000 1.0
C      1  0.5457540000000  0.5596970000000  0.5966480000000 1.0
C      1  0.5286660000000  0.5310160000000  0.4163170000000 1.0
C      1  0.4673330000000  0.5301090000000  0.4143450000000 1.0
C      1  0.4687320000000  0.4678700000000  0.4119130000000 1.0
C      1  0.5300170000000  0.4699780000000  0.4139630000000 1.0
C      1  0.5629010000000  0.5913340000000  0.5132910000000 1.0
C      1  0.4070270000000  0.5618200000000  0.5065940000000 1.0
C      1  0.4361990000000  0.4071380000000  0.5052830000000 1.0
C      1  0.5956000000000  0.4366660000000  0.5133440000000 1.0
C      1  0.5371480000000  0.5481340000000  0.5367360000000 1.0
C      1  0.4591140000000  0.5452380000000  0.5277700000000 1.0
C      1  0.4585060000000  0.4544920000000  0.5375810000000 1.0
C      1  0.5500470000000  0.4628050000000  0.5330820000000 1.0
C      1  0.4821790000000  0.5547310000000  0.4231050000000 1.0
C      1  0.4440600000000  0.4820290000000  0.4201050000000 1.0
C      1  0.5159540000000  0.4450700000000  0.4200130000000 1.0
C      1  0.5520440000000  0.5155320000000  0.4251280000000 1.0
C      1  0.5372130000000  0.5040930000000  0.5531890000000 1.0
C      1  0.4884300000000  0.5198760000000  0.5523610000000 1.0
C      1  0.4685630000000  0.5026770000000  0.5398400000000 1.0
C      1  0.5042620000000  0.4656270000000  0.5453790000000 1.0
C      1  0.4197920000000  0.4710570000000  0.4328370000000 1.0
C      1  0.5270290000000  0.4194920000000  0.4306010000000 1.0
C      1  0.5765870000000  0.5249950000000  0.4378460000000 1.0
C      1  0.4733020000000  0.5808190000000  0.4343140000000 1.0
C      1  0.5443410000000  0.5952830000000  0.5354530000000 1.0
C      1  0.4090100000000  0.5443370000000  0.5311150000000 1.0
C      1  0.4538820000000  0.4076160000000  0.5302280000000 1.0
C      1  0.5979980000000  0.4567550000000  0.5354990000000 1.0
C      1  0.4881200000000  0.4878510000000  0.5875960000000 1.0
C      1  0.5037900000000  0.4633660000000  0.5746290000000 1.0
C      1  0.5322710000000  0.5163390000000  0.5790920000000 1.0
C      1  0.5003090000000  0.5176600000000  0.5808770000000 1.0
C      1  0.5281220000000  0.4825930000000  0.5359180000000 1.0
C      1  0.5123780000000  0.5468900000000  0.5225170000000 1.0
C      1  0.4593810000000  0.5189180000000  0.5170100000000 1.0
C      1  0.4850470000000  0.4524610000000  0.5277290000000 1.0
C      1  0.4923900000000  0.4889970000000  0.5024760000000 1.0
END
