TITL C-74085-4933-218 -3012.4918341561 125000 -953.001685016265 0 0 154 (C1) n - 1
REM
REM in /home/nfs/bkarasulu/CARBON/AIRSS/Generating-Clusters/LCBOP/Higher-Symm/SD-CG/FIRE-CG
REM
REM
REM
REM
REM
REM ./C.cell (b20cbc046b6831c77cfcea5457e17084)
REM AIRSS Version 0.9.1 bugfix July 2018 build 013d7b7c2542+ Fri, 06 Jul 2018 19:26:36 +0100
REM compiler GCC version 9.2.1 20190827 (Red Hat 9.2.1-1)
REM options -cpp -mtune=generic -march=x86-64 -g -O0 -fpre-include=/usr/include/finclude/math-vector-fortran.h
REM seed -1608539215 -1495791497 -435634402 280298012 1034344485 -1749412488 918482962 1681989452 454777234 952944067 1634315012 -427811108 483500475 -1704947656 -1789323815 -2099483649 -726545449 -680276188 1271871912 69633890 636744467 1778012580 -1894366887 -648216673 1968565518 -551547127 405479992 553971340 641503025 1346621907 302496866 986677391 -881115039
REM
CELL 1.54180   50.00000   50.00000   50.00000   90.00000   90.00000   90.00000
LATT -1
SFAC C  
C      1  0.5486980000000  0.5737620000000  0.5624600000000 1.0
C      1  0.4456570000000  0.5679590000000  0.5691510000000 1.0
C      1  0.4165810000000  0.4729190000000  0.5658910000000 1.0
C      1  0.4964750000000  0.4103270000000  0.5670480000000 1.0
C      1  0.5838450000000  0.4634990000000  0.5710130000000 1.0
C      1  0.5305350000000  0.5724290000000  0.4373350000000 1.0
C      1  0.4379280000000  0.5567870000000  0.4310570000000 1.0
C      1  0.4301980000000  0.4603600000000  0.4359730000000 1.0
C      1  0.5167130000000  0.4189920000000  0.4363980000000 1.0
C      1  0.5814440000000  0.4871720000000  0.4344390000000 1.0
C      1  0.6001900000000  0.4574410000000  0.5199880000000 1.0
C      1  0.5484200000000  0.5993630000000  0.5130040000000 1.0
C      1  0.4353290000000  0.5822730000000  0.5211330000000 1.0
C      1  0.4040120000000  0.4698350000000  0.5147300000000 1.0
C      1  0.4983090000000  0.3979930000000  0.5154620000000 1.0
C      1  0.4125730000000  0.5268350000000  0.5186080000000 1.0
C      1  0.4486710000000  0.4268410000000  0.5184500000000 1.0
C      1  0.5533030000000  0.4243660000000  0.5203850000000 1.0
C      1  0.5933720000000  0.5127630000000  0.5212030000000 1.0
C      1  0.4902310000000  0.5930090000000  0.5193800000000 1.0
C      1  0.5538580000000  0.5006350000000  0.4786290000000 1.0
C      1  0.5132450000000  0.5376630000000  0.4819400000000 1.0
C      1  0.4576990000000  0.5328590000000  0.4742740000000 1.0
C      1  0.4635810000000  0.4736490000000  0.4786550000000 1.0
C      1  0.5180580000000  0.4586560000000  0.4791010000000 1.0
C      1  0.4206400000000  0.5720810000000  0.4990280000000 1.0
C      1  0.4089810000000  0.4482980000000  0.4961150000000 1.0
C      1  0.5204690000000  0.3943880000000  0.4975550000000 1.0
C      1  0.6137700000000  0.4748900000000  0.5012590000000 1.0
C      1  0.5287380000000  0.6147740000000  0.4989340000000 1.0
C      1  0.4631520000000  0.5116230000000  0.5964980000000 1.0
C      1  0.4796510000000  0.4672340000000  0.5983350000000 1.0
C      1  0.5271460000000  0.4708170000000  0.5984020000000 1.0
C      1  0.5408640000000  0.5161410000000  0.5939860000000 1.0
C      1  0.5006900000000  0.5410370000000  0.5945530000000 1.0
C      1  0.5097480000000  0.5992200000000  0.5433070000000 1.0
C      1  0.4099030000000  0.5443600000000  0.5442770000000 1.0
C      1  0.4286490000000  0.4317610000000  0.5416750000000 1.0
C      1  0.5401100000000  0.4082520000000  0.5437220000000 1.0
C      1  0.6012450000000  0.5011090000000  0.5458350000000 1.0
C      1  0.5250140000000  0.4726790000000  0.5701680000000 1.0
C      1  0.5368490000000  0.5139630000000  0.5652020000000 1.0
C      1  0.4998110000000  0.5362380000000  0.5663060000000 1.0
C      1  0.4660810000000  0.5093390000000  0.5681930000000 1.0
C      1  0.4819480000000  0.4692540000000  0.5700250000000 1.0
C      1  0.5643570000000  0.5838750000000  0.4957090000000 1.0
C      1  0.4598210000000  0.5972060000000  0.5200890000000 1.0
C      1  0.4010520000000  0.4958360000000  0.5042320000000 1.0
C      1  0.4740080000000  0.4055020000000  0.5041290000000 1.0
C      1  0.5838930000000  0.4383010000000  0.5080660000000 1.0
C      1  0.5506320000000  0.4868480000000  0.3898480000000 1.0
C      1  0.5254130000000  0.5316930000000  0.4119930000000 1.0
C      1  0.4704050000000  0.5408180000000  0.3993050000000 1.0
C      1  0.4552330000000  0.4876710000000  0.4067350000000 1.0
C      1  0.5022110000000  0.4561370000000  0.4105580000000 1.0
C      1  0.4968670000000  0.5950930000000  0.4666270000000 1.0
C      1  0.4118010000000  0.5329990000000  0.4690110000000 1.0
C      1  0.4448900000000  0.4275400000000  0.4693940000000 1.0
C      1  0.5523560000000  0.4205320000000  0.4710420000000 1.0
C      1  0.6039370000000  0.5133830000000  0.4718240000000 1.0
C      1  0.5091810000000  0.5163420000000  0.4625900000000 1.0
C      1  0.4624070000000  0.5179280000000  0.4500530000000 1.0
C      1  0.4798200000000  0.4754660000000  0.4543740000000 1.0
C      1  0.5271850000000  0.4719160000000  0.4544780000000 1.0
C      1  0.5342050000000  0.5018150000000  0.4552430000000 1.0
C      1  0.6064020000000  0.5023240000000  0.4976560000000 1.0
C      1  0.5027460000000  0.6038940000000  0.4936890000000 1.0
C      1  0.4110680000000  0.5454270000000  0.4944960000000 1.0
C      1  0.4316600000000  0.4312900000000  0.4941950000000 1.0
C      1  0.5439250000000  0.4102920000000  0.4956350000000 1.0
C      1  0.4127320000000  0.4584020000000  0.5404540000000 1.0
C      1  0.5098420000000  0.4024040000000  0.5417680000000 1.0
C      1  0.5979840000000  0.4708770000000  0.5460690000000 1.0
C      1  0.5392580000000  0.5911790000000  0.5390580000000 1.0
C      1  0.4283000000000  0.5686120000000  0.5451490000000 1.0
C      1  0.4220690000000  0.4890130000000  0.4425900000000 1.0
C      1  0.4881360000000  0.4245070000000  0.4443000000000 1.0
C      1  0.5725070000000  0.4605790000000  0.4448560000000 1.0
C      1  0.5552670000000  0.5609460000000  0.4494480000000 1.0
C      1  0.4644870000000  0.5709550000000  0.4349570000000 1.0
C      1  0.5658910000000  0.5206300000000  0.5217730000000 1.0
C      1  0.4916190000000  0.5619550000000  0.5213070000000 1.0
C      1  0.4418860000000  0.5176590000000  0.5229310000000 1.0
C      1  0.4676510000000  0.4499480000000  0.5242650000000 1.0
C      1  0.5396330000000  0.4511840000000  0.5253630000000 1.0
C      1  0.4767680000000  0.4928950000000  0.3895740000000 1.0
C      1  0.5004480000000  0.4756500000000  0.3902630000000 1.0
C      1  0.5236690000000  0.4919060000000  0.3838370000000 1.0
C      1  0.5142460000000  0.5191460000000  0.3890720000000 1.0
C      1  0.4852630000000  0.5204310000000  0.3868330000000 1.0
C      1  0.4462880000000  0.5068630000000  0.5490790000000 1.0
C      1  0.4769650000000  0.4501600000000  0.5510740000000 1.0
C      1  0.5412390000000  0.4598480000000  0.5522440000000 1.0
C      1  0.5528460000000  0.5273460000000  0.5462560000000 1.0
C      1  0.4867530000000  0.5526780000000  0.5479470000000 1.0
C      1  0.5612290000000  0.4451280000000  0.5680880000000 1.0
C      1  0.5691460000000  0.5434450000000  0.5623980000000 1.0
C      1  0.4746160000000  0.5733320000000  0.5656250000000 1.0
C      1  0.4214090000000  0.5012550000000  0.5640740000000 1.0
C      1  0.4712980000000  0.4250590000000  0.5651880000000 1.0
C      1  0.5537540000000  0.5214630000000  0.4972290000000 1.0
C      1  0.4931020000000  0.5509450000000  0.4958650000000 1.0
C      1  0.4526950000000  0.5156710000000  0.4969640000000 1.0
C      1  0.4762360000000  0.4604220000000  0.5000110000000 1.0
C      1  0.5352450000000  0.4642280000000  0.5012850000000 1.0
C      1  0.4794990000000  0.4533210000000  0.4315280000000 1.0
C      1  0.5437400000000  0.4570430000000  0.4358060000000 1.0
C      1  0.5451020000000  0.5164380000000  0.4291380000000 1.0
C      1  0.4848650000000  0.5601030000000  0.4161430000000 1.0
C      1  0.4432020000000  0.5088820000000  0.4262390000000 1.0
C      1  0.5551820000000  0.5643060000000  0.4778750000000 1.0
C      1  0.4744860000000  0.5776940000000  0.4608200000000 1.0
C      1  0.4167970000000  0.4991940000000  0.4721460000000 1.0
C      1  0.4774060000000  0.4219590000000  0.4734870000000 1.0
C      1  0.5717260000000  0.4494550000000  0.4754590000000 1.0
C      1  0.5624370000000  0.4961480000000  0.4135650000000 1.0
C      1  0.5135010000000  0.5561720000000  0.4208890000000 1.0
C      1  0.4440910000000  0.5355950000000  0.4113200000000 1.0
C      1  0.4532310000000  0.4615750000000  0.4185270000000 1.0
C      1  0.5253140000000  0.4417960000000  0.4202360000000 1.0
C      1  0.5852420000000  0.4897890000000  0.5865420000000 1.0
C      1  0.5260590000000  0.5797200000000  0.5816870000000 1.0
C      1  0.4307420000000  0.5477790000000  0.5854050000000 1.0
C      1  0.4292790000000  0.4518350000000  0.5829060000000 1.0
C      1  0.5202920000000  0.4155500000000  0.5845610000000 1.0
C      1  0.4416360000000  0.4285910000000  0.5685270000000 1.0
C      1  0.5467170000000  0.4192330000000  0.5708100000000 1.0
C      1  0.5915130000000  0.5144490000000  0.5706530000000 1.0
C      1  0.4998150000000  0.5900010000000  0.5698780000000 1.0
C      1  0.4130280000000  0.5289990000000  0.5697790000000 1.0
C      1  0.5423040000000  0.4920220000000  0.6087590000000 1.0
C      1  0.5260430000000  0.5369460000000  0.6058890000000 1.0
C      1  0.4771260000000  0.5333290000000  0.6079050000000 1.0
C      1  0.4627010000000  0.4867100000000  0.6096900000000 1.0
C      1  0.5040460000000  0.4608550000000  0.6110560000000 1.0
C      1  0.5672760000000  0.5349920000000  0.4412550000000 1.0
C      1  0.5265070000000  0.6209750000000  0.4375300000000 1.0
C      1  0.3908330000000  0.5639530000000  0.4384630000000 1.0
C      1  0.4103720000000  0.4160740000000  0.4370350000000 1.0
C      1  0.5499600000000  0.3837190000000  0.4393530000000 1.0
C      1  0.5183980000000  0.5966550000000  0.4472460000000 1.0
C      1  0.4139270000000  0.5511290000000  0.4464020000000 1.0
C      1  0.4279630000000  0.4343430000000  0.4472830000000 1.0
C      1  0.5397480000000  0.4072790000000  0.4489090000000 1.0
C      1  0.5882680000000  0.5136840000000  0.4481840000000 1.0
C      1  0.4951310000000  0.4444890000000  0.4855340000000 1.0
C      1  0.5584600000000  0.4744330000000  0.4878670000000 1.0
C      1  0.5396270000000  0.5436990000000  0.4892930000000 1.0
C      1  0.4712260000000  0.5564530000000  0.4791930000000 1.0
C      1  0.4439440000000  0.4920480000000  0.4835960000000 1.0
C      1  0.5013000000000  0.4980650000000  0.5327630000000 1.0
C      1  0.5013940000000  0.5008590000000  0.5072710000000 1.0
C      1  0.5019310000000  0.4998190000000  0.5604580000000 1.0
C      1  0.4863920000000  0.5033460000000  0.4514620000000 1.0
END
