TITL C-74082-2733-44 204387.791257707 125000 -693.791070371498 0 0 119 (C1) n - 1
REM
REM in /home/nfs/bkarasulu/CARBON/AIRSS/Generating-Clusters/LCBOP/Higher-Symm/SD-CG/FIRE-CG
REM
REM
REM
REM
REM
REM ./C.cell (b20cbc046b6831c77cfcea5457e17084)
REM AIRSS Version 0.9.1 bugfix July 2018 build 013d7b7c2542+ Fri, 06 Jul 2018 19:26:36 +0100
REM compiler GCC version 9.2.1 20190827 (Red Hat 9.2.1-1)
REM options -cpp -mtune=generic -march=x86-64 -g -O0 -fpre-include=/usr/include/finclude/math-vector-fortran.h
REM seed 482603365 -1369188063 1102717618 -1878459938 -1618141373 -1839619159 1417124916 -71399017 1873291618 -1552643312 1605030420 -618868106 -1556101910 -1947931365 380658084 2053848753 484457586 936668282 -1202694601 -2041465372 1723722680 -1109973982 -1547522912 1140948170 -1816321059 -1622246467 -226356885 -1467638911 -1245188771 -1042914430 1909766936 2074989639 820219141
REM
CELL 1.54180   50.00000   50.00000   50.00000   90.00000   90.00000   90.00000
LATT -1
SFAC C  
C      1  0.5263620000000  0.5411930000000  0.4083750000000 1.0
C      1  0.4286300000000  0.5413740000000  0.4467170000000 1.0
C      1  0.4291970000000  0.5387830000000  0.5532910000000 1.0
C      1  0.5264250000000  0.5402940000000  0.5916660000000 1.0
C      1  0.5816480000000  0.5382820000000  0.5021690000000 1.0
C      1  0.5260910000000  0.4545600000000  0.5909220000000 1.0
C      1  0.4268200000000  0.4575820000000  0.5524800000000 1.0
C      1  0.4251500000000  0.4598600000000  0.4467080000000 1.0
C      1  0.5260090000000  0.4556950000000  0.4132780000000 1.0
C      1  0.5840630000000  0.4608670000000  0.4999470000000 1.0
C      1  0.5449450000000  0.4478830000000  0.4316970000000 1.0
C      1  0.4455970000000  0.4477000000000  0.4313380000000 1.0
C      1  0.4218970000000  0.4518200000000  0.5260070000000 1.0
C      1  0.5002030000000  0.4448650000000  0.5892750000000 1.0
C      1  0.5768230000000  0.4507910000000  0.5253450000000 1.0
C      1  0.5442190000000  0.5494730000000  0.5725000000000 1.0
C      1  0.4467360000000  0.5484800000000  0.5729540000000 1.0
C      1  0.4279150000000  0.5501020000000  0.4733290000000 1.0
C      1  0.5005040000000  0.5504230000000  0.4073140000000 1.0
C      1  0.5738810000000  0.5485990000000  0.4766230000000 1.0
C      1  0.5187690000000  0.4880670000000  0.4019680000000 1.0
C      1  0.4155330000000  0.4877790000000  0.4435780000000 1.0
C      1  0.4277110000000  0.4892610000000  0.5673780000000 1.0
C      1  0.5374480000000  0.4876710000000  0.5952910000000 1.0
C      1  0.5944580000000  0.4880220000000  0.4940460000000 1.0
C      1  0.5193160000000  0.5070390000000  0.6013690000000 1.0
C      1  0.4182980000000  0.5111260000000  0.5537380000000 1.0
C      1  0.4265640000000  0.5092480000000  0.4312290000000 1.0
C      1  0.5370790000000  0.5079950000000  0.4068570000000 1.0
C      1  0.5933180000000  0.5115180000000  0.5075010000000 1.0
C      1  0.4516050000000  0.5416070000000  0.4165260000000 1.0
C      1  0.4210320000000  0.5435170000000  0.5236240000000 1.0
C      1  0.4896610000000  0.5389220000000  0.5991960000000 1.0
C      1  0.5745380000000  0.5428230000000  0.5320700000000 1.0
C      1  0.5571290000000  0.5403250000000  0.4287390000000 1.0
C      1  0.4515840000000  0.4546570000000  0.5795340000000 1.0
C      1  0.4138530000000  0.4574950000000  0.4754980000000 1.0
C      1  0.4896000000000  0.4555790000000  0.4069390000000 1.0
C      1  0.5770510000000  0.4554500000000  0.4703520000000 1.0
C      1  0.5586400000000  0.4568480000000  0.5728450000000 1.0
C      1  0.4823670000000  0.4128980000000  0.5330770000000 1.0
C      1  0.5256710000000  0.4137800000000  0.5299110000000 1.0
C      1  0.5492790000000  0.3985930000000  0.4766240000000 1.0
C      1  0.4948510000000  0.4137030000000  0.4616550000000 1.0
C      1  0.4663500000000  0.4227200000000  0.4933000000000 1.0
C      1  0.4682760000000  0.5901610000000  0.4516200000000 1.0
C      1  0.5193200000000  0.5866310000000  0.4707740000000 1.0
C      1  0.5459260000000  0.6009530000000  0.5306400000000 1.0
C      1  0.4962210000000  0.5879910000000  0.5576940000000 1.0
C      1  0.4783050000000  0.5816140000000  0.5033400000000 1.0
C      1  0.4757250000000  0.5546240000000  0.4202840000000 1.0
C      1  0.4359560000000  0.5528270000000  0.5010810000000 1.0
C      1  0.4739090000000  0.5520700000000  0.5804720000000 1.0
C      1  0.5542770000000  0.5557140000000  0.5464560000000 1.0
C      1  0.5566480000000  0.5535290000000  0.4536050000000 1.0
C      1  0.4757460000000  0.4413500000000  0.5746910000000 1.0
C      1  0.4287600000000  0.4514860000000  0.4985500000000 1.0
C      1  0.4735830000000  0.4430590000000  0.4262920000000 1.0
C      1  0.5560320000000  0.4424650000000  0.4572630000000 1.0
C      1  0.5586720000000  0.4462010000000  0.5471280000000 1.0
C      1  0.5167530000000  0.5107180000000  0.4562350000000 1.0
C      1  0.4679060000000  0.5215510000000  0.4707130000000 1.0
C      1  0.4662530000000  0.5082540000000  0.5223530000000 1.0
C      1  0.5123630000000  0.5164810000000  0.5466310000000 1.0
C      1  0.5366830000000  0.5127740000000  0.5024450000000 1.0
C      1  0.5205070000000  0.4909040000000  0.5436360000000 1.0
C      1  0.4707330000000  0.4828280000000  0.5290050000000 1.0
C      1  0.4612450000000  0.4966360000000  0.4771770000000 1.0
C      1  0.5086290000000  0.4851230000000  0.4554640000000 1.0
C      1  0.5370330000000  0.4871110000000  0.4952570000000 1.0
C      1  0.4895610000000  0.4831960000000  0.3985390000000 1.0
C      1  0.4008930000000  0.4878540000000  0.4748490000000 1.0
C      1  0.4481910000000  0.4821130000000  0.5876020000000 1.0
C      1  0.5623520000000  0.4843360000000  0.5799000000000 1.0
C      1  0.5882810000000  0.4845410000000  0.4602770000000 1.0
C      1  0.4904650000000  0.5110840000000  0.6052040000000 1.0
C      1  0.4059970000000  0.5140670000000  0.5213070000000 1.0
C      1  0.4466980000000  0.5143060000000  0.4106950000000 1.0
C      1  0.5616850000000  0.5124630000000  0.4230040000000 1.0
C      1  0.5866760000000  0.5137540000000  0.5416720000000 1.0
C      1  0.4775000000000  0.5643330000000  0.4469150000000 1.0
C      1  0.4638250000000  0.5569690000000  0.5078530000000 1.0
C      1  0.4901550000000  0.5609180000000  0.5588350000000 1.0
C      1  0.5397750000000  0.5737220000000  0.5301290000000 1.0
C      1  0.5300720000000  0.5622240000000  0.4598370000000 1.0
C      1  0.4795490000000  0.4364450000000  0.5469880000000 1.0
C      1  0.4562930000000  0.4485460000000  0.4922870000000 1.0
C      1  0.4888120000000  0.4382720000000  0.4501230000000 1.0
C      1  0.5415120000000  0.4253050000000  0.4744140000000 1.0
C      1  0.5322310000000  0.4389230000000  0.5393150000000 1.0
C      1  0.4957980000000  0.5391690000000  0.5414470000000 1.0
C      1  0.5235520000000  0.5368800000000  0.4975670000000 1.0
C      1  0.5136060000000  0.5381840000000  0.4688850000000 1.0
C      1  0.4845460000000  0.5434580000000  0.4648970000000 1.0
C      1  0.4755680000000  0.5347830000000  0.5220380000000 1.0
C      1  0.4919500000000  0.4636680000000  0.4631250000000 1.0
C      1  0.5240220000000  0.4634480000000  0.5019770000000 1.0
C      1  0.5160930000000  0.4634970000000  0.5307360000000 1.0
C      1  0.4867210000000  0.4603230000000  0.5337000000000 1.0
C      1  0.4697400000000  0.4701460000000  0.4795520000000 1.0
C      1  0.4972710000000  0.6135610000000  0.5627350000000 1.0
C      1  0.5536680000000  0.6257700000000  0.5288030000000 1.0
C      1  0.5232510000000  0.6114070000000  0.4602720000000 1.0
C      1  0.4573840000000  0.6137480000000  0.4493160000000 1.0
C      1  0.4658210000000  0.6056120000000  0.5079410000000 1.0
C      1  0.4970480000000  0.3884150000000  0.4546960000000 1.0
C      1  0.5592800000000  0.3745250000000  0.4762660000000 1.0
C      1  0.5330300000000  0.3887560000000  0.5339080000000 1.0
C      1  0.4751640000000  0.3878490000000  0.5384910000000 1.0
C      1  0.4517990000000  0.4004110000000  0.4890830000000 1.0
C      1  0.4675890000000  0.4955260000000  0.6023230000000 1.0
C      1  0.5788950000000  0.5007480000000  0.5646160000000 1.0
C      1  0.5795600000000  0.4972070000000  0.4376500000000 1.0
C      1  0.4662510000000  0.4984380000000  0.3987190000000 1.0
C      1  0.3978530000000  0.5022360000000  0.4979990000000 1.0
C      1  0.5060390000000  0.5811220000000  0.4959190000000 1.0
C      1  0.5002680000000  0.4191440000000  0.5008290000000 1.0
C      1  0.5213590000000  0.4373390000000  0.4905890000000 1.0
C      1  0.5226910000000  0.5626390000000  0.5105020000000 1.0
END
