TITL C-74085-4933-314 0.418530675023405 125000 -1130.83535179348 0 0 177 (C1) n - 1
REM
REM in /home/nfs/bkarasulu/CARBON/AIRSS/Generating-Clusters/LCBOP/Higher-Symm/SD-CG/FIRE-CG
REM
REM
REM
REM
REM
REM ./C.cell (b20cbc046b6831c77cfcea5457e17084)
REM AIRSS Version 0.9.1 bugfix July 2018 build 013d7b7c2542+ Fri, 06 Jul 2018 19:26:36 +0100
REM compiler GCC version 9.2.1 20190827 (Red Hat 9.2.1-1)
REM options -cpp -mtune=generic -march=x86-64 -g -O0 -fpre-include=/usr/include/finclude/math-vector-fortran.h
REM seed -956383916 699728683 1471907652 2011234917 1657137185 48221301 910287048 -1817067698 1275670404 1125836570 -1091365499 2032201664 -1053471144 -478645378 1045126950 -719287140 -1415059867 -1126588984 1435024520 -877290729 -359291965 -784643943 1082627751 47463533 155895993 -1369258639 -291301534 1299526970 157785505 835453675 -1153930923 1762627095 -1968070213
REM
CELL 1.54180   50.00000   50.00000   50.00000   90.00000   90.00000   90.00000
LATT -1
SFAC C  
C      1  0.4723450000000  0.4571500000000  0.4793190000000 1.0
C      1  0.4886030000000  0.4864990000000  0.4474280000000 1.0
C      1  0.4524930000000  0.4756920000000  0.4859490000000 1.0
C      1  0.5055960000000  0.5444790000000  0.4807110000000 1.0
C      1  0.5077390000000  0.4191720000000  0.5180210000000 1.0
C      1  0.4696000000000  0.5344720000000  0.5195430000000 1.0
C      1  0.5185230000000  0.5198140000000  0.4682210000000 1.0
C      1  0.5252090000000  0.4930820000000  0.5427110000000 1.0
C      1  0.4867660000000  0.5162220000000  0.5333280000000 1.0
C      1  0.5445590000000  0.5202260000000  0.4832310000000 1.0
C      1  0.5444320000000  0.4839520000000  0.5236770000000 1.0
C      1  0.4559210000000  0.5170220000000  0.5019670000000 1.0
C      1  0.4887500000000  0.4387660000000  0.5183730000000 1.0
C      1  0.4800750000000  0.4860300000000  0.5294620000000 1.0
C      1  0.4533920000000  0.4892130000000  0.5123420000000 1.0
C      1  0.5290370000000  0.5377640000000  0.5231020000000 1.0
C      1  0.5098540000000  0.4681370000000  0.4868160000000 1.0
C      1  0.4782380000000  0.5462650000000  0.4764800000000 1.0
C      1  0.5140890000000  0.5214640000000  0.5424660000000 1.0
C      1  0.5078130000000  0.4901200000000  0.4679660000000 1.0
C      1  0.4746270000000  0.5105380000000  0.4477850000000 1.0
C      1  0.5501430000000  0.5246950000000  0.5102970000000 1.0
C      1  0.5441810000000  0.4775870000000  0.4965930000000 1.0
C      1  0.4607940000000  0.5214260000000  0.4725510000000 1.0
C      1  0.4706290000000  0.6291350000000  0.5131240000000 1.0
C      1  0.5148630000000  0.4703880000000  0.6274940000000 1.0
C      1  0.6303880000000  0.5133310000000  0.4712490000000 1.0
C      1  0.5283200000000  0.3694770000000  0.5173640000000 1.0
C      1  0.5279700000000  0.6302040000000  0.4863990000000 1.0
C      1  0.4709180000000  0.3707980000000  0.4911820000000 1.0
C      1  0.4882070000000  0.5256160000000  0.6307430000000 1.0
C      1  0.4871510000000  0.4741770000000  0.3698760000000 1.0
C      1  0.5144460000000  0.5301290000000  0.3718510000000 1.0
C      1  0.3696540000000  0.4880120000000  0.4694900000000 1.0
C      1  0.3707550000000  0.5130550000000  0.5273740000000 1.0
C      1  0.6315620000000  0.4877270000000  0.5257200000000 1.0
C      1  0.4713280000000  0.6310110000000  0.4864910000000 1.0
C      1  0.5139170000000  0.4739710000000  0.3701590000000 1.0
C      1  0.6320100000000  0.5144380000000  0.5274780000000 1.0
C      1  0.5269160000000  0.3719750000000  0.4906430000000 1.0
C      1  0.5274900000000  0.6304480000000  0.5131140000000 1.0
C      1  0.4728170000000  0.3692810000000  0.5178900000000 1.0
C      1  0.4877620000000  0.5302850000000  0.3702750000000 1.0
C      1  0.4882260000000  0.4689800000000  0.6263130000000 1.0
C      1  0.5149150000000  0.5270670000000  0.6297490000000 1.0
C      1  0.3700830000000  0.4863550000000  0.5257890000000 1.0
C      1  0.3701620000000  0.5146720000000  0.4712640000000 1.0
C      1  0.6288110000000  0.4867060000000  0.4693630000000 1.0
C      1  0.6182620000000  0.4667360000000  0.5127060000000 1.0
C      1  0.5140450000000  0.6169610000000  0.4660520000000 1.0
C      1  0.4674820000000  0.5125840000000  0.6171220000000 1.0
C      1  0.3839760000000  0.5342080000000  0.5145290000000 1.0
C      1  0.3817670000000  0.4662170000000  0.4822320000000 1.0
C      1  0.6184380000000  0.5344860000000  0.4852070000000 1.0
C      1  0.4835680000000  0.3829630000000  0.4692250000000 1.0
C      1  0.4847430000000  0.6156990000000  0.5331490000000 1.0
C      1  0.5158480000000  0.3814740000000  0.5398180000000 1.0
C      1  0.5349880000000  0.4850360000000  0.6148020000000 1.0
C      1  0.5346680000000  0.5158880000000  0.3849410000000 1.0
C      1  0.4660560000000  0.4877330000000  0.3824760000000 1.0
C      1  0.6166690000000  0.4658730000000  0.4836100000000 1.0
C      1  0.5137970000000  0.6171900000000  0.5335840000000 1.0
C      1  0.4660490000000  0.5169180000000  0.3819420000000 1.0
C      1  0.3834800000000  0.5348230000000  0.4854410000000 1.0
C      1  0.3825590000000  0.4658430000000  0.5113310000000 1.0
C      1  0.6201000000000  0.5361820000000  0.5142700000000 1.0
C      1  0.4860470000000  0.3817720000000  0.5395090000000 1.0
C      1  0.4849570000000  0.6182490000000  0.4656400000000 1.0
C      1  0.5127360000000  0.3849150000000  0.4700920000000 1.0
C      1  0.5347230000000  0.4868720000000  0.3838590000000 1.0
C      1  0.5355260000000  0.5140900000000  0.6158970000000 1.0
C      1  0.4679540000000  0.4837260000000  0.6140290000000 1.0
C      1  0.4845980000000  0.4728500000000  0.5583400000000 1.0
C      1  0.5640930000000  0.4823800000000  0.4744620000000 1.0
C      1  0.4634710000000  0.5690690000000  0.4862650000000 1.0
C      1  0.5147370000000  0.5364270000000  0.5685050000000 1.0
C      1  0.5112270000000  0.4541240000000  0.4213140000000 1.0
C      1  0.4854980000000  0.5318810000000  0.4311980000000 1.0
C      1  0.4318260000000  0.5143000000000  0.4628650000000 1.0
C      1  0.4307830000000  0.4868150000000  0.5319320000000 1.0
C      1  0.5719610000000  0.5178750000000  0.5290650000000 1.0
C      1  0.5310300000000  0.4375580000000  0.4862630000000 1.0
C      1  0.5301020000000  0.5657840000000  0.5162000000000 1.0
C      1  0.4628880000000  0.4272850000000  0.5127120000000 1.0
C      1  0.4864850000000  0.4646730000000  0.4297610000000 1.0
C      1  0.5712330000000  0.4892660000000  0.5339910000000 1.0
C      1  0.4635190000000  0.5629890000000  0.5154420000000 1.0
C      1  0.5147740000000  0.5300320000000  0.4375580000000 1.0
C      1  0.5145340000000  0.4735140000000  0.5614980000000 1.0
C      1  0.4890770000000  0.5438290000000  0.5782140000000 1.0
C      1  0.4234940000000  0.5111100000000  0.5446080000000 1.0
C      1  0.4321390000000  0.4845310000000  0.4663860000000 1.0
C      1  0.5669490000000  0.5109700000000  0.4682680000000 1.0
C      1  0.5345450000000  0.4260070000000  0.5123400000000 1.0
C      1  0.5246270000000  0.5655910000000  0.4875400000000 1.0
C      1  0.4618510000000  0.4306090000000  0.4836610000000 1.0
C      1  0.4481960000000  0.5306200000000  0.4000990000000 1.0
C      1  0.4018540000000  0.4482390000000  0.5236390000000 1.0
C      1  0.5246790000000  0.4036120000000  0.4515950000000 1.0
C      1  0.5518650000000  0.4731250000000  0.4027020000000 1.0
C      1  0.5532600000000  0.5274850000000  0.5972900000000 1.0
C      1  0.4503670000000  0.4728010000000  0.5941370000000 1.0
C      1  0.6019620000000  0.5548380000000  0.5275310000000 1.0
C      1  0.5970670000000  0.4478510000000  0.4720310000000 1.0
C      1  0.4019490000000  0.5524790000000  0.4722840000000 1.0
C      1  0.4711490000000  0.5998880000000  0.4483270000000 1.0
C      1  0.4719970000000  0.4027120000000  0.5543360000000 1.0
C      1  0.5274030000000  0.5993220000000  0.5516440000000 1.0
C      1  0.4490850000000  0.5267850000000  0.6000020000000 1.0
C      1  0.3997310000000  0.4482560000000  0.4684580000000 1.0
C      1  0.5298960000000  0.4028080000000  0.5548450000000 1.0
C      1  0.5513990000000  0.4727940000000  0.5948250000000 1.0
C      1  0.5514710000000  0.5278100000000  0.4049460000000 1.0
C      1  0.4483070000000  0.4745250000000  0.4011980000000 1.0
C      1  0.5982940000000  0.5503820000000  0.4724100000000 1.0
C      1  0.6000030000000  0.4496530000000  0.5269870000000 1.0
C      1  0.4028130000000  0.5515140000000  0.5282470000000 1.0
C      1  0.4723770000000  0.5967780000000  0.5509760000000 1.0
C      1  0.4699630000000  0.3987050000000  0.4487690000000 1.0
C      1  0.5265790000000  0.5964670000000  0.4500190000000 1.0
C      1  0.4594630000000  0.4576460000000  0.4218060000000 1.0
C      1  0.4219420000000  0.4597830000000  0.4543730000000 1.0
C      1  0.4544450000000  0.4211470000000  0.4574450000000 1.0
C      1  0.5393450000000  0.5403750000000  0.4273500000000 1.0
C      1  0.5388320000000  0.4602400000000  0.5722680000000 1.0
C      1  0.4603320000000  0.5434950000000  0.5796780000000 1.0
C      1  0.5769110000000  0.5373890000000  0.4586480000000 1.0
C      1  0.5791430000000  0.4621150000000  0.5419750000000 1.0
C      1  0.4222070000000  0.5396730000000  0.5459920000000 1.0
C      1  0.5393010000000  0.5743480000000  0.4635200000000 1.0
C      1  0.5458440000000  0.4231660000000  0.5394750000000 1.0
C      1  0.4574170000000  0.5746350000000  0.5409340000000 1.0
C      1  0.4608520000000  0.4612600000000  0.5701970000000 1.0
C      1  0.4232610000000  0.4598560000000  0.5385450000000 1.0
C      1  0.4541590000000  0.4213060000000  0.5400590000000 1.0
C      1  0.5420460000000  0.5432270000000  0.5762210000000 1.0
C      1  0.5397780000000  0.4559790000000  0.4219440000000 1.0
C      1  0.4604600000000  0.5452090000000  0.4219400000000 1.0
C      1  0.5799340000000  0.5429120000000  0.5417300000000 1.0
C      1  0.5735340000000  0.4594320000000  0.4603500000000 1.0
C      1  0.4221330000000  0.5411510000000  0.4554230000000 1.0
C      1  0.5419520000000  0.5776370000000  0.5401210000000 1.0
C      1  0.5374860000000  0.4273090000000  0.4611390000000 1.0
C      1  0.4543210000000  0.5798100000000  0.4601410000000 1.0
C      1  0.4070370000000  0.5759310000000  0.5142810000000 1.0
C      1  0.5144200000000  0.4109730000000  0.5775440000000 1.0
C      1  0.5762740000000  0.5140720000000  0.4080570000000 1.0
C      1  0.5961600000000  0.4245340000000  0.5140450000000 1.0
C      1  0.5947910000000  0.5758120000000  0.4848500000000 1.0
C      1  0.4029050000000  0.4235010000000  0.4822930000000 1.0
C      1  0.4861460000000  0.5954480000000  0.5759790000000 1.0
C      1  0.4849330000000  0.4001040000000  0.4245530000000 1.0
C      1  0.5129850000000  0.5924870000000  0.4252650000000 1.0
C      1  0.4240350000000  0.4890160000000  0.4049220000000 1.0
C      1  0.4243590000000  0.5130040000000  0.5969870000000 1.0
C      1  0.5766270000000  0.4858480000000  0.5920630000000 1.0
C      1  0.4062880000000  0.5764710000000  0.4870310000000 1.0
C      1  0.5120870000000  0.4025880000000  0.4260010000000 1.0
C      1  0.5775320000000  0.5130950000000  0.5931950000000 1.0
C      1  0.5947810000000  0.4235350000000  0.4867960000000 1.0
C      1  0.5971630000000  0.5782180000000  0.5119270000000 1.0
C      1  0.4044770000000  0.4236190000000  0.5095440000000 1.0
C      1  0.4857790000000  0.5944660000000  0.4244300000000 1.0
C      1  0.4870890000000  0.4110990000000  0.5771380000000 1.0
C      1  0.5134520000000  0.5964650000000  0.5763400000000 1.0
C      1  0.4249640000000  0.4858590000000  0.5939600000000 1.0
C      1  0.4238500000000  0.5162950000000  0.4040000000000 1.0
C      1  0.5763070000000  0.4868230000000  0.4075160000000 1.0
C      1  0.5531860000000  0.4453930000000  0.4451300000000 1.0
C      1  0.4430260000000  0.5582840000000  0.4426890000000 1.0
C      1  0.4435400000000  0.4450210000000  0.5529920000000 1.0
C      1  0.5565970000000  0.4462880000000  0.5531780000000 1.0
C      1  0.4442670000000  0.5548110000000  0.5582120000000 1.0
C      1  0.5548570000000  0.5541600000000  0.4478260000000 1.0
C      1  0.5578750000000  0.5576080000000  0.5557220000000 1.0
C      1  0.4427200000000  0.4431970000000  0.4410640000000 1.0
C      1  0.4969900000000  0.4659240000000  0.5136280000000 1.0
END
