TITL C-74081-2727-459 179766.020660116 125000 -1112.02343200606 0 0 182 (C1) n - 1
REM
REM in /home/nfs/bkarasulu/CARBON/AIRSS/Generating-Clusters/LCBOP/Higher-Symm/SD-CG/FIRE-CG
REM
REM
REM
REM
REM
REM ./C.cell (b20cbc046b6831c77cfcea5457e17084)
REM AIRSS Version 0.9.1 bugfix July 2018 build 013d7b7c2542+ Fri, 06 Jul 2018 19:26:36 +0100
REM compiler GCC version 9.2.1 20190827 (Red Hat 9.2.1-1)
REM options -cpp -mtune=generic -march=x86-64 -g -O0 -fpre-include=/usr/include/finclude/math-vector-fortran.h
REM seed 29803436 524126260 -402373772 -942500406 -1498652005 1475595783 -987137922 1753069801 -23596360 236921707 1138709083 -903048116 -704394958 -467673648 545384006 -904852817 -684074261 -1114252485 794265133 254667009 -819646310 2081662913 -2053378686 -833252500 2025482098 -1140602179 951648300 -10773593 -750572384 1786430451 1483603494 -99997759 411271426
REM
CELL 1.54180   50.00000   50.00000   50.00000   90.00000   90.00000   90.00000
LATT -1
SFAC C  
C      1  0.4107600000000  0.4324850000000  0.5367070000000 1.0
C      1  0.4076120000000  0.5024750000000  0.4405300000000 1.0
C      1  0.3780740000000  0.4809240000000  0.4810770000000 1.0
C      1  0.4612340000000  0.5295420000000  0.5079790000000 1.0
C      1  0.4482310000000  0.5167270000000  0.3947690000000 1.0
C      1  0.5146090000000  0.4212990000000  0.4481020000000 1.0
C      1  0.4616320000000  0.4123060000000  0.4883570000000 1.0
C      1  0.4501010000000  0.4384440000000  0.4008930000000 1.0
C      1  0.3801790000000  0.6190290000000  0.4916360000000 1.0
C      1  0.3884000000000  0.6048460000000  0.4708030000000 1.0
C      1  0.4879890000000  0.5603590000000  0.5456300000000 1.0
C      1  0.5754040000000  0.5090260000000  0.5100340000000 1.0
C      1  0.4745380000000  0.5703020000000  0.4584790000000 1.0
C      1  0.6002630000000  0.5063820000000  0.4218580000000 1.0
C      1  0.4762880000000  0.5356320000000  0.5538210000000 1.0
C      1  0.4081200000000  0.5578230000000  0.5396750000000 1.0
C      1  0.4915750000000  0.4333550000000  0.4582120000000 1.0
C      1  0.4775460000000  0.5248800000000  0.5803100000000 1.0
C      1  0.5582540000000  0.4710830000000  0.4040990000000 1.0
C      1  0.4983900000000  0.3874380000000  0.5079970000000 1.0
C      1  0.5621070000000  0.4466460000000  0.5171250000000 1.0
C      1  0.4810660000000  0.3877090000000  0.5846130000000 1.0
C      1  0.5229710000000  0.5944570000000  0.4784530000000 1.0
C      1  0.5856310000000  0.5161640000000  0.5837610000000 1.0
C      1  0.5342150000000  0.4551270000000  0.4036230000000 1.0
C      1  0.5196500000000  0.5391260000000  0.5887280000000 1.0
C      1  0.4652900000000  0.4882510000000  0.6198070000000 1.0
C      1  0.4398230000000  0.4856260000000  0.4077240000000 1.0
C      1  0.5579490000000  0.4736800000000  0.5867360000000 1.0
C      1  0.3631180000000  0.5282170000000  0.4656030000000 1.0
C      1  0.4814230000000  0.5353960000000  0.4882260000000 1.0
C      1  0.4195410000000  0.5269600000000  0.4319550000000 1.0
C      1  0.4615950000000  0.5403860000000  0.5986060000000 1.0
C      1  0.4706810000000  0.5903190000000  0.6015710000000 1.0
C      1  0.4922540000000  0.3914350000000  0.4171990000000 1.0
C      1  0.3730210000000  0.5502390000000  0.4539010000000 1.0
C      1  0.5835560000000  0.4342510000000  0.5042280000000 1.0
C      1  0.6024840000000  0.5210600000000  0.4739930000000 1.0
C      1  0.4386830000000  0.4186040000000  0.4147160000000 1.0
C      1  0.4863130000000  0.4702310000000  0.4063780000000 1.0
C      1  0.5375910000000  0.5616840000000  0.4375750000000 1.0
C      1  0.3937070000000  0.5653560000000  0.4417740000000 1.0
C      1  0.4464500000000  0.5234240000000  0.4416470000000 1.0
C      1  0.5227390000000  0.4325850000000  0.5513940000000 1.0
C      1  0.4374310000000  0.4628190000000  0.5577360000000 1.0
C      1  0.4312470000000  0.5949720000000  0.4505410000000 1.0
C      1  0.5340220000000  0.5341450000000  0.4994650000000 1.0
C      1  0.5246490000000  0.4963210000000  0.4275300000000 1.0
C      1  0.4283800000000  0.4136110000000  0.4389500000000 1.0
C      1  0.4155180000000  0.4558670000000  0.4563250000000 1.0
C      1  0.5245130000000  0.3911600000000  0.4993920000000 1.0
C      1  0.5821820000000  0.4200930000000  0.4348870000000 1.0
C      1  0.5747700000000  0.5148830000000  0.4129800000000 1.0
C      1  0.4334910000000  0.5341550000000  0.5067510000000 1.0
C      1  0.5150570000000  0.5143750000000  0.4487980000000 1.0
C      1  0.5100430000000  0.4881370000000  0.6003860000000 1.0
C      1  0.3934150000000  0.4888020000000  0.5477170000000 1.0
C      1  0.4039410000000  0.5891250000000  0.4538010000000 1.0
C      1  0.5684340000000  0.4763560000000  0.4680330000000 1.0
C      1  0.5819310000000  0.5234360000000  0.6101550000000 1.0
C      1  0.4441910000000  0.5955620000000  0.5937440000000 1.0
C      1  0.4304810000000  0.4705150000000  0.5846540000000 1.0
C      1  0.4497010000000  0.4016160000000  0.5301900000000 1.0
C      1  0.4105450000000  0.5518500000000  0.4230730000000 1.0
C      1  0.5771360000000  0.5605950000000  0.5534010000000 1.0
C      1  0.4336090000000  0.5346870000000  0.5974590000000 1.0
C      1  0.5291460000000  0.3743040000000  0.4421570000000 1.0
C      1  0.4234220000000  0.4290940000000  0.4621070000000 1.0
C      1  0.3980880000000  0.5024160000000  0.5732870000000 1.0
C      1  0.4962340000000  0.4384580000000  0.5072210000000 1.0
C      1  0.5830090000000  0.5617530000000  0.4538610000000 1.0
C      1  0.4076260000000  0.4744340000000  0.4801980000000 1.0
C      1  0.5129730000000  0.4725880000000  0.4139340000000 1.0
C      1  0.5483990000000  0.5043220000000  0.5484900000000 1.0
C      1  0.4576520000000  0.5889150000000  0.4451060000000 1.0
C      1  0.4233130000000  0.5795000000000  0.5498070000000 1.0
C      1  0.5039900000000  0.5647440000000  0.3983260000000 1.0
C      1  0.4782870000000  0.4926900000000  0.5341360000000 1.0
C      1  0.5404100000000  0.4274790000000  0.4036130000000 1.0
C      1  0.4817980000000  0.4312350000000  0.4839230000000 1.0
C      1  0.5166420000000  0.4436590000000  0.5255320000000 1.0
C      1  0.5810400000000  0.5367930000000  0.5117900000000 1.0
C      1  0.4106690000000  0.5344360000000  0.5235790000000 1.0
C      1  0.4845230000000  0.5515360000000  0.4397600000000 1.0
C      1  0.5183760000000  0.5880210000000  0.5963250000000 1.0
C      1  0.6185010000000  0.5327650000000  0.5522450000000 1.0
C      1  0.5513050000000  0.5888170000000  0.4780870000000 1.0
C      1  0.5708340000000  0.5373750000000  0.3967530000000 1.0
C      1  0.5631550000000  0.4914110000000  0.4907540000000 1.0
C      1  0.5379620000000  0.4093910000000  0.5555720000000 1.0
C      1  0.6310950000000  0.5158530000000  0.5355550000000 1.0
C      1  0.5620410000000  0.5779120000000  0.5707070000000 1.0
C      1  0.4194340000000  0.4689880000000  0.5069700000000 1.0
C      1  0.6160590000000  0.4868870000000  0.4315960000000 1.0
C      1  0.4188060000000  0.4783870000000  0.4284750000000 1.0
C      1  0.5717240000000  0.4981610000000  0.5353310000000 1.0
C      1  0.4912650000000  0.4345900000000  0.5873400000000 1.0
C      1  0.5151610000000  0.4456290000000  0.5752360000000 1.0
C      1  0.4088750000000  0.4573150000000  0.5961120000000 1.0
C      1  0.4704340000000  0.4752290000000  0.4911550000000 1.0
C      1  0.6162420000000  0.4595750000000  0.4395470000000 1.0
C      1  0.3963920000000  0.5101200000000  0.5281160000000 1.0
C      1  0.4701860000000  0.3947820000000  0.5102130000000 1.0
C      1  0.4527860000000  0.5519140000000  0.3954840000000 1.0
C      1  0.5240120000000  0.4962560000000  0.5529220000000 1.0
C      1  0.5548280000000  0.4558310000000  0.4575920000000 1.0
C      1  0.5157900000000  0.5573450000000  0.5400550000000 1.0
C      1  0.5232170000000  0.5084540000000  0.5055920000000 1.0
C      1  0.4971540000000  0.6082470000000  0.4319840000000 1.0
C      1  0.4451940000000  0.4859940000000  0.6023950000000 1.0
C      1  0.4896110000000  0.4749600000000  0.6162530000000 1.0
C      1  0.4759430000000  0.5715850000000  0.4013710000000 1.0
C      1  0.5903970000000  0.4809990000000  0.5485620000000 1.0
C      1  0.5572590000000  0.6160850000000  0.5991560000000 1.0
C      1  0.5794850000000  0.5369600000000  0.4678810000000 1.0
C      1  0.6275570000000  0.4466050000000  0.4886480000000 1.0
C      1  0.5374570000000  0.4592510000000  0.5149830000000 1.0
C      1  0.5371940000000  0.4843500000000  0.5022110000000 1.0
C      1  0.5770150000000  0.3767760000000  0.4546440000000 1.0
C      1  0.5537730000000  0.3942560000000  0.5008780000000 1.0
C      1  0.5752400000000  0.5622530000000  0.5235060000000 1.0
C      1  0.5743540000000  0.4118670000000  0.4873240000000 1.0
C      1  0.4710550000000  0.4941910000000  0.4709360000000 1.0
C      1  0.3763610000000  0.6324200000000  0.5136800000000 1.0
C      1  0.4956510000000  0.6327160000000  0.5930810000000 1.0
C      1  0.4186210000000  0.4995670000000  0.4685050000000 1.0
C      1  0.4924120000000  0.5138180000000  0.4694470000000 1.0
C      1  0.5830400000000  0.4579620000000  0.4055330000000 1.0
C      1  0.4541700000000  0.4150840000000  0.5560170000000 1.0
C      1  0.4949480000000  0.6057550000000  0.5968240000000 1.0
C      1  0.6082310000000  0.4488330000000  0.5091040000000 1.0
C      1  0.4851170000000  0.5633930000000  0.4832250000000 1.0
C      1  0.4385630000000  0.4700600000000  0.5284420000000 1.0
C      1  0.5824030000000  0.4870230000000  0.5766620000000 1.0
C      1  0.5536830000000  0.3652780000000  0.4477110000000 1.0
C      1  0.4865220000000  0.4468970000000  0.6122910000000 1.0
C      1  0.4458900000000  0.5873690000000  0.5346560000000 1.0
C      1  0.5638650000000  0.3825670000000  0.5249260000000 1.0
C      1  0.5303150000000  0.5631050000000  0.4095440000000 1.0
C      1  0.4123340000000  0.5209430000000  0.5874220000000 1.0
C      1  0.4707720000000  0.5306200000000  0.4310610000000 1.0
C      1  0.5080150000000  0.5614250000000  0.6025880000000 1.0
C      1  0.5655740000000  0.5820980000000  0.5036090000000 1.0
C      1  0.6185880000000  0.5060800000000  0.4899310000000 1.0
C      1  0.6238200000000  0.4961690000000  0.5163560000000 1.0
C      1  0.4702130000000  0.5190980000000  0.5325000000000 1.0
C      1  0.5588940000000  0.5770030000000  0.4522040000000 1.0
C      1  0.5608570000000  0.4140740000000  0.4158600000000 1.0
C      1  0.5528610000000  0.4968690000000  0.4161480000000 1.0
C      1  0.5378650000000  0.4356480000000  0.4540490000000 1.0
C      1  0.4752970000000  0.4132000000000  0.5755800000000 1.0
C      1  0.5329130000000  0.5369310000000  0.4520220000000 1.0
C      1  0.5554050000000  0.3902080000000  0.5492940000000 1.0
C      1  0.4590900000000  0.4650060000000  0.4028780000000 1.0
C      1  0.4331480000000  0.4190790000000  0.4876510000000 1.0
C      1  0.4264080000000  0.5619720000000  0.4018480000000 1.0
C      1  0.5930900000000  0.5374410000000  0.5645020000000 1.0
C      1  0.4245860000000  0.4150560000000  0.5161890000000 1.0
C      1  0.5964690000000  0.4437100000000  0.4265830000000 1.0
C      1  0.5112410000000  0.6077220000000  0.4555680000000 1.0
C      1  0.5291840000000  0.5460370000000  0.5624870000000 1.0
C      1  0.5291720000000  0.4686890000000  0.5881630000000 1.0
C      1  0.4718660000000  0.5815290000000  0.5373970000000 1.0
C      1  0.5035810000000  0.5150230000000  0.5908500000000 1.0
C      1  0.5816060000000  0.4045250000000  0.4597830000000 1.0
C      1  0.5517660000000  0.5557840000000  0.3926920000000 1.0
C      1  0.3934190000000  0.4585540000000  0.5412260000000 1.0
C      1  0.5455590000000  0.5935450000000  0.5884000000000 1.0
C      1  0.4463060000000  0.5053460000000  0.4637650000000 1.0
C      1  0.6297340000000  0.4507910000000  0.4623480000000 1.0
C      1  0.4245570000000  0.5889230000000  0.5764550000000 1.0
C      1  0.5002470000000  0.4860930000000  0.5485810000000 1.0
C      1  0.4641950000000  0.4753120000000  0.5183730000000 1.0
C      1  0.5225480000000  0.5572930000000  0.5122580000000 1.0
C      1  0.3638290000000  0.5031160000000  0.4751370000000 1.0
C      1  0.4329560000000  0.4342350000000  0.5569680000000 1.0
C      1  0.5119210000000  0.3955820000000  0.4358540000000 1.0
C      1  0.4781710000000  0.5627000000000  0.6067470000000 1.0
C      1  0.5084900000000  0.5751430000000  0.4940390000000 1.0
C      1  0.4734600000000  0.5945850000000  0.4210010000000 1.0
C      1  0.5502790000000  0.5345010000000  0.4750100000000 1.0
C      1  0.6097860000000  0.4723860000000  0.5274080000000 1.0
END
