TITL C-74085-4933-140 -1041.90933962861 125000 -1183.54636748752 0 0 190 (C1) n - 1
REM
REM in /home/nfs/bkarasulu/CARBON/AIRSS/Generating-Clusters/LCBOP/Higher-Symm/SD-CG/FIRE-CG
REM
REM
REM
REM
REM
REM ./C.cell (b20cbc046b6831c77cfcea5457e17084)
REM AIRSS Version 0.9.1 bugfix July 2018 build 013d7b7c2542+ Fri, 06 Jul 2018 19:26:36 +0100
REM compiler GCC version 9.2.1 20190827 (Red Hat 9.2.1-1)
REM options -cpp -mtune=generic -march=x86-64 -g -O0 -fpre-include=/usr/include/finclude/math-vector-fortran.h
REM seed -1716822661 -1024620083 -1148040131 629054014 1380155350 478560978 -915608714 -1000673531 1517473439 -1144703437 1295728907 -2139992586 1716899663 -1431392163 875012358 1292628660 -1404714795 145873920 1134290461 -1675515912 790354510 -1264029032 -2118224318 -1271792373 1153955223 -1580139005 -204833811 284708142 -208521825 -643996945 -981025484 -647767330 -107804783
REM
CELL 1.54180   50.00000   50.00000   50.00000   90.00000   90.00000   90.00000
LATT -1
SFAC C  
C      1  0.5030380000000  0.5865770000000  0.4309580000000 1.0
C      1  0.4158070000000  0.4563190000000  0.4213050000000 1.0
C      1  0.5786770000000  0.4499390000000  0.4293580000000 1.0
C      1  0.5070270000000  0.5653210000000  0.5368640000000 1.0
C      1  0.4446760000000  0.4700640000000  0.5375070000000 1.0
C      1  0.5513510000000  0.4725300000000  0.5353800000000 1.0
C      1  0.5910800000000  0.5227730000000  0.4280450000000 1.0
C      1  0.4383210000000  0.5520910000000  0.4362180000000 1.0
C      1  0.4760210000000  0.4133490000000  0.4290630000000 1.0
C      1  0.5198730000000  0.4376590000000  0.5260860000000 1.0
C      1  0.5511840000000  0.5537470000000  0.5240320000000 1.0
C      1  0.4332030000000  0.5176960000000  0.5398460000000 1.0
C      1  0.4087470000000  0.4767790000000  0.4027510000000 1.0
C      1  0.5613880000000  0.4328480000000  0.4144410000000 1.0
C      1  0.5248000000000  0.5830190000000  0.4128500000000 1.0
C      1  0.4438010000000  0.4709070000000  0.6118320000000 1.0
C      1  0.5611530000000  0.4657640000000  0.5996290000000 1.0
C      1  0.4954270000000  0.5586900000000  0.6335640000000 1.0
C      1  0.4385460000000  0.4404280000000  0.4134660000000 1.0
C      1  0.5820170000000  0.4758710000000  0.4180130000000 1.0
C      1  0.4780790000000  0.5743990000000  0.4223480000000 1.0
C      1  0.5084530000000  0.6105930000000  0.5053430000000 1.0
C      1  0.3997700000000  0.4556980000000  0.4980480000000 1.0
C      1  0.5965360000000  0.4408660000000  0.5048950000000 1.0
C      1  0.5190030000000  0.5480140000000  0.6263650000000 1.0
C      1  0.4333670000000  0.4967890000000  0.6033000000000 1.0
C      1  0.5391050000000  0.4488710000000  0.5927420000000 1.0
C      1  0.3835110000000  0.5102640000000  0.4550700000000 1.0
C      1  0.5487270000000  0.4001250000000  0.4660890000000 1.0
C      1  0.5653830000000  0.5916540000000  0.4627820000000 1.0
C      1  0.5018930000000  0.5240760000000  0.5547660000000 1.0
C      1  0.4726720000000  0.4829990000000  0.5746210000000 1.0
C      1  0.5227010000000  0.5033300000000  0.5596530000000 1.0
C      1  0.5715380000000  0.5163180000000  0.5528990000000 1.0
C      1  0.4613760000000  0.5618790000000  0.5556220000000 1.0
C      1  0.4752830000000  0.4330410000000  0.5558660000000 1.0
C      1  0.4661140000000  0.4548470000000  0.6112370000000 1.0
C      1  0.5635510000000  0.4927940000000  0.6040020000000 1.0
C      1  0.4695010000000  0.5567010000000  0.6268770000000 1.0
C      1  0.4587840000000  0.3950200000000  0.4844870000000 1.0
C      1  0.6172520000000  0.5216990000000  0.4848480000000 1.0
C      1  0.4261750000000  0.5869080000000  0.4872960000000 1.0
C      1  0.6114420000000  0.4999230000000  0.4651080000000 1.0
C      1  0.4483320000000  0.5888020000000  0.4671160000000 1.0
C      1  0.4438350000000  0.4102480000000  0.4632750000000 1.0
C      1  0.5511870000000  0.3567130000000  0.4851900000000 1.0
C      1  0.6005120000000  0.6202240000000  0.4776580000000 1.0
C      1  0.3457220000000  0.5283230000000  0.4776890000000 1.0
C      1  0.4568170000000  0.4005780000000  0.5142590000000 1.0
C      1  0.6133070000000  0.5172270000000  0.5144970000000 1.0
C      1  0.4327850000000  0.5890380000000  0.5168230000000 1.0
C      1  0.5118720000000  0.4793700000000  0.5028340000000 1.0
C      1  0.5121990000000  0.5298510000000  0.5007860000000 1.0
C      1  0.4702970000000  0.5029440000000  0.5096660000000 1.0
C      1  0.6022640000000  0.3868900000000  0.5245240000000 1.0
C      1  0.5535240000000  0.6493990000000  0.5223120000000 1.0
C      1  0.3462330000000  0.4695580000000  0.5175240000000 1.0
C      1  0.3848280000000  0.4987730000000  0.5956670000000 1.0
C      1  0.5395600000000  0.3991990000000  0.5862240000000 1.0
C      1  0.5704310000000  0.5833410000000  0.5897450000000 1.0
C      1  0.5709780000000  0.4943460000000  0.4876090000000 1.0
C      1  0.4685900000000  0.5580590000000  0.4935930000000 1.0
C      1  0.4579660000000  0.4458240000000  0.4898750000000 1.0
C      1  0.4543480000000  0.5454280000000  0.6059110000000 1.0
C      1  0.4910240000000  0.4474240000000  0.5989710000000 1.0
C      1  0.5536860000000  0.5198890000000  0.5993160000000 1.0
C      1  0.5407430000000  0.4790770000000  0.4534410000000 1.0
C      1  0.4942700000000  0.5422280000000  0.4586040000000 1.0
C      1  0.4521920000000  0.4757840000000  0.4504480000000 1.0
C      1  0.4995250000000  0.5324990000000  0.3552730000000 1.0
C      1  0.4689330000000  0.4813120000000  0.3505830000000 1.0
C      1  0.5304710000000  0.4786290000000  0.3538870000000 1.0
C      1  0.5272580000000  0.4654050000000  0.5211360000000 1.0
C      1  0.5233020000000  0.5485260000000  0.5200690000000 1.0
C      1  0.4541480000000  0.4985250000000  0.5323960000000 1.0
C      1  0.3760700000000  0.5156420000000  0.6152510000000 1.0
C      1  0.5227820000000  0.3812900000000  0.5981550000000 1.0
C      1  0.5839640000000  0.5781760000000  0.6128860000000 1.0
C      1  0.4015400000000  0.5758130000000  0.4791850000000 1.0
C      1  0.4812920000000  0.3797160000000  0.4765320000000 1.0
C      1  0.6190960000000  0.5483630000000  0.4758560000000 1.0
C      1  0.5641300000000  0.5199320000000  0.4225170000000 1.0
C      1  0.4538580000000  0.5299140000000  0.4285260000000 1.0
C      1  0.4856600000000  0.4390990000000  0.4252290000000 1.0
C      1  0.5695380000000  0.5367620000000  0.5118110000000 1.0
C      1  0.4339150000000  0.5411040000000  0.5233950000000 1.0
C      1  0.4965640000000  0.4283090000000  0.5132110000000 1.0
C      1  0.5169200000000  0.4892070000000  0.5843300000000 1.0
C      1  0.5050250000000  0.5094560000000  0.6008200000000 1.0
C      1  0.4774510000000  0.5052710000000  0.5937330000000 1.0
C      1  0.3677130000000  0.4642760000000  0.5346370000000 1.0
C      1  0.5945430000000  0.4080530000000  0.5412630000000 1.0
C      1  0.5411030000000  0.6312190000000  0.5395110000000 1.0
C      1  0.5629200000000  0.6096740000000  0.5826300000000 1.0
C      1  0.3682620000000  0.4791350000000  0.5844630000000 1.0
C      1  0.5672240000000  0.3950390000000  0.5834250000000 1.0
C      1  0.4941880000000  0.4284450000000  0.5770570000000 1.0
C      1  0.5656780000000  0.5339940000000  0.5760940000000 1.0
C      1  0.4517710000000  0.5605000000000  0.5822010000000 1.0
C      1  0.4299260000000  0.6381110000000  0.5396250000000 1.0
C      1  0.4146820000000  0.3798010000000  0.5411960000000 1.0
C      1  0.6536210000000  0.4943340000000  0.5423820000000 1.0
C      1  0.4960170000000  0.5989340000000  0.4821370000000 1.0
C      1  0.4119960000000  0.4487230000000  0.4729750000000 1.0
C      1  0.5958330000000  0.4536910000000  0.4795830000000 1.0
C      1  0.3317800000000  0.4869980000000  0.5035980000000 1.0
C      1  0.5943120000000  0.3655960000000  0.5106380000000 1.0
C      1  0.5736760000000  0.6534690000000  0.5053820000000 1.0
C      1  0.4970970000000  0.5065250000000  0.4316500000000 1.0
C      1  0.4959200000000  0.4799770000000  0.4380670000000 1.0
C      1  0.5226290000000  0.5176070000000  0.4356000000000 1.0
C      1  0.5604710000000  0.5209780000000  0.4901050000000 1.0
C      1  0.4465060000000  0.5394200000000  0.4973390000000 1.0
C      1  0.4865350000000  0.4422600000000  0.4896320000000 1.0
C      1  0.4712320000000  0.5851880000000  0.4841490000000 1.0
C      1  0.4369410000000  0.4353010000000  0.4741750000000 1.0
C      1  0.5960450000000  0.4820630000000  0.4807100000000 1.0
C      1  0.4487080000000  0.4132490000000  0.4347680000000 1.0
C      1  0.6027570000000  0.4991100000000  0.4370040000000 1.0
C      1  0.4529460000000  0.5766750000000  0.4401690000000 1.0
C      1  0.3891030000000  0.4846490000000  0.4504130000000 1.0
C      1  0.5690800000000  0.4169810000000  0.4630520000000 1.0
C      1  0.5394180000000  0.5969620000000  0.4610420000000 1.0
C      1  0.4043120000000  0.4607760000000  0.4479300000000 1.0
C      1  0.5838200000000  0.4404380000000  0.4565890000000 1.0
C      1  0.5112870000000  0.5955220000000  0.4576330000000 1.0
C      1  0.5923520000000  0.6424380000000  0.4899200000000 1.0
C      1  0.3309850000000  0.5099990000000  0.4902280000000 1.0
C      1  0.5745300000000  0.3533300000000  0.4976690000000 1.0
C      1  0.5393500000000  0.5644200000000  0.3999360000000 1.0
C      1  0.4203430000000  0.4989350000000  0.3927740000000 1.0
C      1  0.5369760000000  0.4315240000000  0.4033300000000 1.0
C      1  0.4606030000000  0.4805970000000  0.3767630000000 1.0
C      1  0.5351100000000  0.4725930000000  0.3803920000000 1.0
C      1  0.5044780000000  0.5388850000000  0.3817180000000 1.0
C      1  0.5494170000000  0.4976110000000  0.5484340000000 1.0
C      1  0.4878980000000  0.5500790000000  0.5510070000000 1.0
C      1  0.4635030000000  0.4606220000000  0.5583690000000 1.0
C      1  0.4755380000000  0.4178820000000  0.5298890000000 1.0
C      1  0.5883630000000  0.5234480000000  0.5289100000000 1.0
C      1  0.4414060000000  0.5665580000000  0.5343210000000 1.0
C      1  0.5146930000000  0.4637700000000  0.5957350000000 1.0
C      1  0.5266470000000  0.5266740000000  0.6098460000000 1.0
C      1  0.4536850000000  0.5171250000000  0.6033760000000 1.0
C      1  0.4480820000000  0.4550530000000  0.5136660000000 1.0
C      1  0.5530540000000  0.4757750000000  0.4777410000000 1.0
C      1  0.4910690000000  0.5443190000000  0.4859920000000 1.0
C      1  0.5924730000000  0.5946320000000  0.4694630000000 1.0
C      1  0.3713320000000  0.5325890000000  0.4670270000000 1.0
C      1  0.5351220000000  0.3768760000000  0.4740530000000 1.0
C      1  0.4112690000000  0.5004680000000  0.5851890000000 1.0
C      1  0.5299770000000  0.4248700000000  0.5750030000000 1.0
C      1  0.5633070000000  0.5626350000000  0.5714250000000 1.0
C      1  0.6097160000000  0.5726520000000  0.4704200000000 1.0
C      1  0.3847800000000  0.5567970000000  0.4710450000000 1.0
C      1  0.5072440000000  0.3748840000000  0.4730440000000 1.0
C      1  0.4149250000000  0.4751460000000  0.5424560000000 1.0
C      1  0.5631750000000  0.4459820000000  0.5412020000000 1.0
C      1  0.5255340000000  0.5862410000000  0.5440020000000 1.0
C      1  0.4353950000000  0.3887180000000  0.5281400000000 1.0
C      1  0.6347040000000  0.5062430000000  0.5289890000000 1.0
C      1  0.4306230000000  0.6145240000000  0.5285710000000 1.0
C      1  0.5569550000000  0.4869020000000  0.3937500000000 1.0
C      1  0.4812830000000  0.5482460000000  0.3976300000000 1.0
C      1  0.4627350000000  0.4556120000000  0.3911850000000 1.0
C      1  0.5878050000000  0.4014690000000  0.5677090000000 1.0
C      1  0.5520660000000  0.6269580000000  0.5652970000000 1.0
C      1  0.3632680000000  0.4652610000000  0.5622990000000 1.0
C      1  0.5235740000000  0.6108670000000  0.5297090000000 1.0
C      1  0.3946820000000  0.4642890000000  0.5249390000000 1.0
C      1  0.5861200000000  0.4330680000000  0.5300190000000 1.0
C      1  0.4530090000000  0.5127180000000  0.4884530000000 1.0
C      1  0.5038520000000  0.4629090000000  0.4809290000000 1.0
C      1  0.5348890000000  0.5289500000000  0.4800140000000 1.0
C      1  0.4478660000000  0.5041220000000  0.3878530000000 1.0
C      1  0.5194100000000  0.4509910000000  0.3921210000000 1.0
C      1  0.5326320000000  0.5383150000000  0.3901850000000 1.0
C      1  0.5225230000000  0.5373370000000  0.4553130000000 1.0
C      1  0.4458990000000  0.4954800000000  0.4677160000000 1.0
C      1  0.5145230000000  0.4699400000000  0.4557400000000 1.0
C      1  0.4906920000000  0.4476330000000  0.3980530000000 1.0
C      1  0.5525590000000  0.5166700000000  0.3960820000000 1.0
C      1  0.4594120000000  0.5276480000000  0.4001650000000 1.0
C      1  0.5386150000000  0.4294620000000  0.5466290000000 1.0
C      1  0.5514610000000  0.5715400000000  0.5469560000000 1.0
C      1  0.4149910000000  0.5013800000000  0.5565690000000 1.0
C      1  0.5460920000000  0.5025650000000  0.4378520000000 1.0
C      1  0.4780210000000  0.5252170000000  0.4422880000000 1.0
C      1  0.4738010000000  0.4630600000000  0.4377750000000 1.0
C      1  0.4987540000000  0.5037040000000  0.5070960000000 1.0
END
