TITL C-74083-3671-65 199.150386499735 125000 -1166.21661967648 0 0 190 (C1) n - 1
REM
REM in /home/nfs/bkarasulu/CARBON/AIRSS/Generating-Clusters/LCBOP/Higher-Symm/SD-CG/FIRE-CG
REM
REM
REM
REM
REM
REM ./C.cell (b20cbc046b6831c77cfcea5457e17084)
REM AIRSS Version 0.9.1 bugfix July 2018 build 013d7b7c2542+ Fri, 06 Jul 2018 19:26:36 +0100
REM compiler GCC version 9.2.1 20190827 (Red Hat 9.2.1-1)
REM options -cpp -mtune=generic -march=x86-64 -g -O0 -fpre-include=/usr/include/finclude/math-vector-fortran.h
REM seed -724011208 -647018322 -179782609 -1288602354 -1769326784 -1661227149 1731157314 -37342695 -292653049 519347109 -1397023284 -1601249542 1292298420 -473950382 -753881060 -1852467840 1018441415 1752231711 -488653000 627591312 88036403 -1580967501 -1490953547 -1763337780 -993612551 983938712 -1668542257 1723432222 -705133709 316399063 1546292932 -370773660 1759012642
REM
CELL 1.54180   50.00000   50.00000   50.00000   90.00000   90.00000   90.00000
LATT -1
SFAC C  
C      1  0.4310360000000  0.4543470000000  0.6106830000000 1.0
C      1  0.5398670000000  0.5585080000000  0.4192000000000 1.0
C      1  0.5229890000000  0.6023920000000  0.4401680000000 1.0
C      1  0.5498800000000  0.5331770000000  0.5506660000000 1.0
C      1  0.5658080000000  0.4902070000000  0.5556040000000 1.0
C      1  0.4325530000000  0.4289070000000  0.6029610000000 1.0
C      1  0.4034690000000  0.5753150000000  0.4822570000000 1.0
C      1  0.4615140000000  0.5350620000000  0.5186550000000 1.0
C      1  0.5194660000000  0.5921800000000  0.5516840000000 1.0
C      1  0.5479890000000  0.5767950000000  0.5119820000000 1.0
C      1  0.5281040000000  0.5083900000000  0.3958770000000 1.0
C      1  0.6360290000000  0.4921630000000  0.4797710000000 1.0
C      1  0.4595140000000  0.5571750000000  0.5005670000000 1.0
C      1  0.5126490000000  0.4588740000000  0.5061600000000 1.0
C      1  0.6079840000000  0.4937700000000  0.6544710000000 1.0
C      1  0.4229980000000  0.5028190000000  0.5931800000000 1.0
C      1  0.3713980000000  0.4492580000000  0.5433320000000 1.0
C      1  0.5408960000000  0.4335590000000  0.4099930000000 1.0
C      1  0.4880840000000  0.4268020000000  0.5423930000000 1.0
C      1  0.4367180000000  0.3979590000000  0.4475960000000 1.0
C      1  0.5685090000000  0.4650200000000  0.4448910000000 1.0
C      1  0.5552020000000  0.5494750000000  0.5045990000000 1.0
C      1  0.4372370000000  0.6032280000000  0.4256190000000 1.0
C      1  0.5815650000000  0.5198050000000  0.6189040000000 1.0
C      1  0.4786140000000  0.4915490000000  0.4935740000000 1.0
C      1  0.4251590000000  0.5354440000000  0.4229200000000 1.0
C      1  0.5629250000000  0.3441050000000  0.5784600000000 1.0
C      1  0.4849420000000  0.6163310000000  0.5243250000000 1.0
C      1  0.4671040000000  0.5901760000000  0.5605370000000 1.0
C      1  0.6291230000000  0.5380040000000  0.4954970000000 1.0
C      1  0.4218560000000  0.4490010000000  0.5366520000000 1.0
C      1  0.6281990000000  0.4635050000000  0.5168320000000 1.0
C      1  0.3982080000000  0.4516570000000  0.5512820000000 1.0
C      1  0.4905090000000  0.5223630000000  0.4217310000000 1.0
C      1  0.5665920000000  0.5165560000000  0.5659060000000 1.0
C      1  0.5077410000000  0.6268720000000  0.5088460000000 1.0
C      1  0.5410490000000  0.5771280000000  0.6205260000000 1.0
C      1  0.5402810000000  0.5794220000000  0.4391630000000 1.0
C      1  0.5211030000000  0.3742540000000  0.5153450000000 1.0
C      1  0.4772010000000  0.5718980000000  0.4191920000000 1.0
C      1  0.5860900000000  0.5071590000000  0.4877490000000 1.0
C      1  0.4456310000000  0.5903120000000  0.5403810000000 1.0
C      1  0.4203030000000  0.5758520000000  0.5298520000000 1.0
C      1  0.5056520000000  0.3647040000000  0.4689550000000 1.0
C      1  0.5752000000000  0.4864930000000  0.5017690000000 1.0
C      1  0.5526520000000  0.5574770000000  0.6340800000000 1.0
C      1  0.5584360000000  0.4136270000000  0.5588010000000 1.0
C      1  0.5945940000000  0.5099870000000  0.6735030000000 1.0
C      1  0.5248830000000  0.5399310000000  0.5618510000000 1.0
C      1  0.4352320000000  0.6106440000000  0.4989800000000 1.0
C      1  0.6039490000000  0.5481400000000  0.4291460000000 1.0
C      1  0.4259260000000  0.5329520000000  0.5528770000000 1.0
C      1  0.3804940000000  0.4900320000000  0.4522590000000 1.0
C      1  0.4784920000000  0.5079550000000  0.5841060000000 1.0
C      1  0.5022490000000  0.5713020000000  0.5127030000000 1.0
C      1  0.4172800000000  0.4060320000000  0.4641630000000 1.0
C      1  0.4836590000000  0.4675150000000  0.3622630000000 1.0
C      1  0.4146680000000  0.4586900000000  0.4007280000000 1.0
C      1  0.5243580000000  0.5110810000000  0.4552490000000 1.0
C      1  0.4855680000000  0.4058580000000  0.4440330000000 1.0
C      1  0.3644710000000  0.4677340000000  0.5229180000000 1.0
C      1  0.5302380000000  0.4806740000000  0.5049610000000 1.0
C      1  0.5548460000000  0.5484250000000  0.4758920000000 1.0
C      1  0.4151010000000  0.5493840000000  0.4803210000000 1.0
C      1  0.5078880000000  0.6075810000000  0.4643700000000 1.0
C      1  0.4147380000000  0.4210110000000  0.4879580000000 1.0
C      1  0.5406360000000  0.3954000000000  0.4763040000000 1.0
C      1  0.5473720000000  0.4124420000000  0.4256380000000 1.0
C      1  0.4235660000000  0.6072900000000  0.4498420000000 1.0
C      1  0.3773780000000  0.4901940000000  0.4815090000000 1.0
C      1  0.4975780000000  0.4014120000000  0.5508680000000 1.0
C      1  0.5368060000000  0.5347920000000  0.4058080000000 1.0
C      1  0.5679840000000  0.5819940000000  0.5623430000000 1.0
C      1  0.4523460000000  0.4991720000000  0.3797520000000 1.0
C      1  0.6152980000000  0.5199970000000  0.5470860000000 1.0
C      1  0.4792870000000  0.4621580000000  0.4308450000000 1.0
C      1  0.5737510000000  0.4349370000000  0.5547040000000 1.0
C      1  0.3902070000000  0.4910950000000  0.4265890000000 1.0
C      1  0.5181880000000  0.4776500000000  0.5764770000000 1.0
C      1  0.5906520000000  0.4987780000000  0.4217090000000 1.0
C      1  0.4855220000000  0.4670970000000  0.5105930000000 1.0
C      1  0.4330650000000  0.4069170000000  0.5570170000000 1.0
C      1  0.4247680000000  0.5040260000000  0.3887880000000 1.0
C      1  0.4547880000000  0.4566770000000  0.4739700000000 1.0
C      1  0.4850210000000  0.3887470000000  0.5717690000000 1.0
C      1  0.3838080000000  0.5153860000000  0.5677050000000 1.0
C      1  0.4418470000000  0.5220030000000  0.4409260000000 1.0
C      1  0.4815260000000  0.5747640000000  0.4945360000000 1.0
C      1  0.4914040000000  0.4155710000000  0.4992000000000 1.0
C      1  0.6259530000000  0.4743920000000  0.6607900000000 1.0
C      1  0.6312730000000  0.4654640000000  0.4881800000000 1.0
C      1  0.4919560000000  0.6023910000000  0.5504040000000 1.0
C      1  0.6084940000000  0.4433590000000  0.5212630000000 1.0
C      1  0.5034770000000  0.5165050000000  0.5256820000000 1.0
C      1  0.5447420000000  0.3894510000000  0.5554670000000 1.0
C      1  0.4548650000000  0.5387530000000  0.4588260000000 1.0
C      1  0.5085420000000  0.5261360000000  0.3552770000000 1.0
C      1  0.3856140000000  0.5153420000000  0.4961870000000 1.0
C      1  0.4368220000000  0.4156870000000  0.5067770000000 1.0
C      1  0.5230670000000  0.6127360000000  0.4879750000000 1.0
C      1  0.5527580000000  0.4745110000000  0.4897340000000 1.0
C      1  0.4425880000000  0.5518160000000  0.4793350000000 1.0
C      1  0.5890260000000  0.4524180000000  0.5395280000000 1.0
C      1  0.3937560000000  0.4415490000000  0.4906310000000 1.0
C      1  0.4937530000000  0.3796400000000  0.4500880000000 1.0
C      1  0.3540260000000  0.4311390000000  0.5538030000000 1.0
C      1  0.4789610000000  0.4533860000000  0.5361810000000 1.0
C      1  0.5414260000000  0.5906510000000  0.5703370000000 1.0
C      1  0.6002300000000  0.5003560000000  0.6279880000000 1.0
C      1  0.6060560000000  0.5450420000000  0.5526380000000 1.0
C      1  0.4803250000000  0.4922640000000  0.3745260000000 1.0
C      1  0.6296450000000  0.5106630000000  0.5009320000000 1.0
C      1  0.5246470000000  0.3743300000000  0.4872500000000 1.0
C      1  0.4799900000000  0.5149610000000  0.5103650000000 1.0
C      1  0.5052160000000  0.5082470000000  0.3764480000000 1.0
C      1  0.6099710000000  0.4848280000000  0.4382890000000 1.0
C      1  0.5486300000000  0.5280830000000  0.5220660000000 1.0
C      1  0.6163850000000  0.4947940000000  0.5277130000000 1.0
C      1  0.3862040000000  0.5297650000000  0.5222780000000 1.0
C      1  0.6093780000000  0.4502730000000  0.4746380000000 1.0
C      1  0.5964430000000  0.4348120000000  0.4959030000000 1.0
C      1  0.6316790000000  0.4963270000000  0.4522000000000 1.0
C      1  0.4743860000000  0.4683610000000  0.5592870000000 1.0
C      1  0.4871790000000  0.5887180000000  0.4689480000000 1.0
C      1  0.5968720000000  0.4620760000000  0.4518220000000 1.0
C      1  0.4560190000000  0.6103190000000  0.5193180000000 1.0
C      1  0.5751390000000  0.5218980000000  0.5918840000000 1.0
C      1  0.4370030000000  0.4736390000000  0.4900420000000 1.0
C      1  0.4097320000000  0.5218070000000  0.4829050000000 1.0
C      1  0.4812410000000  0.5460160000000  0.4565060000000 1.0
C      1  0.5011350000000  0.5306160000000  0.5505810000000 1.0
C      1  0.4567890000000  0.5900300000000  0.4126710000000 1.0
C      1  0.5654320000000  0.4843410000000  0.4223490000000 1.0
C      1  0.4272210000000  0.4992080000000  0.4818840000000 1.0
C      1  0.4586220000000  0.4082050000000  0.4329790000000 1.0
C      1  0.6144960000000  0.5589820000000  0.4511610000000 1.0
C      1  0.3565150000000  0.4931460000000  0.5328300000000 1.0
C      1  0.5005490000000  0.4597990000000  0.4132400000000 1.0
C      1  0.5284940000000  0.5076360000000  0.5159290000000 1.0
C      1  0.5481300000000  0.4605720000000  0.4643310000000 1.0
C      1  0.5845360000000  0.4825010000000  0.5325680000000 1.0
C      1  0.4090610000000  0.5480520000000  0.5338820000000 1.0
C      1  0.4902310000000  0.4830110000000  0.5772340000000 1.0
C      1  0.4144190000000  0.5900950000000  0.5047520000000 1.0
C      1  0.4830340000000  0.5456080000000  0.4088830000000 1.0
C      1  0.5896730000000  0.5662860000000  0.5574100000000 1.0
C      1  0.5947060000000  0.5260490000000  0.4172350000000 1.0
C      1  0.5247940000000  0.4435110000000  0.4581890000000 1.0
C      1  0.4312800000000  0.4222510000000  0.5337660000000 1.0
C      1  0.4116840000000  0.5180090000000  0.5727210000000 1.0
C      1  0.5416010000000  0.4842540000000  0.4063380000000 1.0
C      1  0.5246860000000  0.5785640000000  0.5273750000000 1.0
C      1  0.5168830000000  0.4305050000000  0.5014940000000 1.0
C      1  0.4774260000000  0.4499840000000  0.4569870000000 1.0
C      1  0.5155210000000  0.6528060000000  0.5144250000000 1.0
C      1  0.4064450000000  0.4855440000000  0.4028490000000 1.0
C      1  0.3771640000000  0.4651940000000  0.4968540000000 1.0
C      1  0.4538520000000  0.4731350000000  0.4250950000000 1.0
C      1  0.4644360000000  0.4111170000000  0.4998610000000 1.0
C      1  0.3714050000000  0.5151480000000  0.5424250000000 1.0
C      1  0.4637590000000  0.5819470000000  0.5863340000000 1.0
C      1  0.5207630000000  0.3883700000000  0.5399460000000 1.0
C      1  0.4200940000000  0.5305940000000  0.3970570000000 1.0
C      1  0.5515310000000  0.5751510000000  0.4653310000000 1.0
C      1  0.4508200000000  0.4263860000000  0.4128260000000 1.0
C      1  0.6235310000000  0.5555040000000  0.4760590000000 1.0
C      1  0.5543690000000  0.3661470000000  0.5675010000000 1.0
C      1  0.5448900000000  0.5261140000000  0.4627140000000 1.0
C      1  0.4761090000000  0.5275890000000  0.5638830000000 1.0
C      1  0.4280780000000  0.4804910000000  0.6067220000000 1.0
C      1  0.4527430000000  0.4957150000000  0.4432330000000 1.0
C      1  0.4983460000000  0.5077470000000  0.4457930000000 1.0
C      1  0.5427870000000  0.4182060000000  0.4937200000000 1.0
C      1  0.5697100000000  0.4259630000000  0.4974350000000 1.0
C      1  0.5364780000000  0.5903990000000  0.5979300000000 1.0
C      1  0.4307490000000  0.4669880000000  0.5169610000000 1.0
C      1  0.5695560000000  0.5360590000000  0.6395290000000 1.0
C      1  0.5460380000000  0.5940350000000  0.4884020000000 1.0
C      1  0.4983420000000  0.4302820000000  0.4553110000000 1.0
C      1  0.4020170000000  0.5903290000000  0.4579940000000 1.0
C      1  0.4536210000000  0.5326640000000  0.5466250000000 1.0
C      1  0.5769550000000  0.5291920000000  0.6660680000000 1.0
C      1  0.5478340000000  0.3986380000000  0.4488990000000 1.0
C      1  0.4844640000000  0.5717680000000  0.4467350000000 1.0
C      1  0.4329900000000  0.4106790000000  0.5835000000000 1.0
C      1  0.4768050000000  0.4964260000000  0.4628960000000 1.0
C      1  0.4391860000000  0.4520670000000  0.4119540000000 1.0
C      1  0.4358330000000  0.6200470000000  0.4722780000000 1.0
C      1  0.5278000000000  0.4587630000000  0.4067190000000 1.0
C      1  0.5426540000000  0.4761730000000  0.5650800000000 1.0
END
