TITL C-74083-3671-372 -29.816655043276 125000 -784.303573044555 0 0 130 (C1) n - 1
REM
REM in /home/nfs/bkarasulu/CARBON/AIRSS/Generating-Clusters/LCBOP/Higher-Symm/SD-CG/FIRE-CG
REM
REM
REM
REM
REM
REM ./C.cell (b20cbc046b6831c77cfcea5457e17084)
REM AIRSS Version 0.9.1 bugfix July 2018 build 013d7b7c2542+ Fri, 06 Jul 2018 19:26:36 +0100
REM compiler GCC version 9.2.1 20190827 (Red Hat 9.2.1-1)
REM options -cpp -mtune=generic -march=x86-64 -g -O0 -fpre-include=/usr/include/finclude/math-vector-fortran.h
REM seed -249144238 -1537897612 -1340405037 -1961786893 -4981984 1214069756 -1474613113 -1674490224 -1041097541 636725014 -1812439903 1088731652 -1035170307 396564335 1087119268 1246756569 462918556 -206549112 939345887 -1040301520 1362957726 1202362340 -2131594637 -1413932068 1677297634 -946446227 -579814977 1999544900 2063074516 1654487318 2126848895 -521176796 -2106909115
REM
CELL 1.54180   50.00000   50.00000   50.00000   90.00000   90.00000   90.00000
LATT -1
SFAC C  
C      1  0.5792750000000  0.4611910000000  0.4573680000000 1.0
C      1  0.5540820000000  0.6121090000000  0.5570430000000 1.0
C      1  0.5033270000000  0.5041140000000  0.5009690000000 1.0
C      1  0.5498450000000  0.4332270000000  0.4251300000000 1.0
C      1  0.5956990000000  0.5615540000000  0.5327310000000 1.0
C      1  0.4010870000000  0.4611340000000  0.5562930000000 1.0
C      1  0.5702220000000  0.4445920000000  0.4382250000000 1.0
C      1  0.4012690000000  0.5010470000000  0.4865760000000 1.0
C      1  0.5674780000000  0.5360580000000  0.4368660000000 1.0
C      1  0.5082430000000  0.5300530000000  0.5122520000000 1.0
C      1  0.4986350000000  0.4054880000000  0.5243920000000 1.0
C      1  0.4646520000000  0.4813360000000  0.3998550000000 1.0
C      1  0.5159660000000  0.5817390000000  0.5842270000000 1.0
C      1  0.6370470000000  0.5018210000000  0.6086660000000 1.0
C      1  0.4143390000000  0.5460260000000  0.5012160000000 1.0
C      1  0.4104520000000  0.4710810000000  0.4370010000000 1.0
C      1  0.6037860000000  0.5138640000000  0.4054930000000 1.0
C      1  0.4625030000000  0.4311890000000  0.5694880000000 1.0
C      1  0.4793230000000  0.3976370000000  0.5041540000000 1.0
C      1  0.5005390000000  0.5283850000000  0.5392210000000 1.0
C      1  0.5333200000000  0.6301190000000  0.5506250000000 1.0
C      1  0.5558370000000  0.4374250000000  0.5628830000000 1.0
C      1  0.5406460000000  0.5409170000000  0.5734820000000 1.0
C      1  0.3852370000000  0.4724750000000  0.4305690000000 1.0
C      1  0.5773020000000  0.4843930000000  0.5580150000000 1.0
C      1  0.5142130000000  0.4332750000000  0.4859490000000 1.0
C      1  0.5085800000000  0.4601830000000  0.4816270000000 1.0
C      1  0.3744680000000  0.5197590000000  0.5200620000000 1.0
C      1  0.4603090000000  0.5943790000000  0.4930770000000 1.0
C      1  0.6208130000000  0.5003880000000  0.3910680000000 1.0
C      1  0.5438540000000  0.4170370000000  0.5221430000000 1.0
C      1  0.4598350000000  0.4333980000000  0.4716260000000 1.0
C      1  0.4978970000000  0.5506870000000  0.4962950000000 1.0
C      1  0.5739250000000  0.4166780000000  0.4865350000000 1.0
C      1  0.4790540000000  0.4595630000000  0.5390600000000 1.0
C      1  0.4790820000000  0.5568590000000  0.4240320000000 1.0
C      1  0.4377010000000  0.4678600000000  0.4413930000000 1.0
C      1  0.4826130000000  0.5996780000000  0.4754190000000 1.0
C      1  0.4307960000000  0.4941820000000  0.5683970000000 1.0
C      1  0.4252450000000  0.4466480000000  0.5072780000000 1.0
C      1  0.5694700000000  0.4587520000000  0.5487790000000 1.0
C      1  0.5658830000000  0.5093590000000  0.5167480000000 1.0
C      1  0.5199500000000  0.4162960000000  0.5075650000000 1.0
C      1  0.4589750000000  0.4380860000000  0.5407270000000 1.0
C      1  0.4615690000000  0.5849850000000  0.5204490000000 1.0
C      1  0.5698860000000  0.5344290000000  0.5022370000000 1.0
C      1  0.4979960000000  0.4317820000000  0.4162910000000 1.0
C      1  0.4559550000000  0.5694660000000  0.4353170000000 1.0
C      1  0.4145230000000  0.5736380000000  0.4902810000000 1.0
C      1  0.4536290000000  0.5045850000000  0.5823900000000 1.0
C      1  0.4241250000000  0.4961760000000  0.5405010000000 1.0
C      1  0.5622130000000  0.4597720000000  0.5189690000000 1.0
C      1  0.6164310000000  0.5452730000000  0.4921420000000 1.0
C      1  0.4843530000000  0.5077870000000  0.5456550000000 1.0
C      1  0.4609520000000  0.4183370000000  0.4963190000000 1.0
C      1  0.4530800000000  0.5603760000000  0.5330770000000 1.0
C      1  0.5207560000000  0.4962890000000  0.5774120000000 1.0
C      1  0.4903670000000  0.3793330000000  0.4852660000000 1.0
C      1  0.5445940000000  0.4923280000000  0.4613720000000 1.0
C      1  0.4925730000000  0.4286230000000  0.5694410000000 1.0
C      1  0.4984970000000  0.4781230000000  0.5797470000000 1.0
C      1  0.5981730000000  0.4891660000000  0.5756320000000 1.0
C      1  0.4987040000000  0.4563810000000  0.5610190000000 1.0
C      1  0.4580290000000  0.5323480000000  0.5785050000000 1.0
C      1  0.3999630000000  0.4381410000000  0.5018800000000 1.0
C      1  0.5708820000000  0.4838460000000  0.5021800000000 1.0
C      1  0.4544060000000  0.5163530000000  0.5063430000000 1.0
C      1  0.5381850000000  0.4185030000000  0.5506180000000 1.0
C      1  0.6177880000000  0.4954320000000  0.5922990000000 1.0
C      1  0.4509500000000  0.5593610000000  0.4627570000000 1.0
C      1  0.4617340000000  0.4214670000000  0.4462880000000 1.0
C      1  0.5197420000000  0.5424830000000  0.4469860000000 1.0
C      1  0.4456040000000  0.4298410000000  0.5175180000000 1.0
C      1  0.4505180000000  0.4680100000000  0.4695720000000 1.0
C      1  0.4526600000000  0.3962120000000  0.4411320000000 1.0
C      1  0.5033610000000  0.6052700000000  0.5809360000000 1.0
C      1  0.5336690000000  0.6431490000000  0.5259460000000 1.0
C      1  0.5242290000000  0.4855040000000  0.4172530000000 1.0
C      1  0.5352300000000  0.6221280000000  0.4794920000000 1.0
C      1  0.4388050000000  0.5814350000000  0.4789530000000 1.0
C      1  0.5948170000000  0.5472680000000  0.5087160000000 1.0
C      1  0.4591970000000  0.5094180000000  0.4013890000000 1.0
C      1  0.5034380000000  0.5654440000000  0.4400880000000 1.0
C      1  0.5302260000000  0.5952440000000  0.4729920000000 1.0
C      1  0.4724090000000  0.5147170000000  0.4470070000000 1.0
C      1  0.5391300000000  0.5688000000000  0.5746060000000 1.0
C      1  0.3895870000000  0.5421410000000  0.5173880000000 1.0
C      1  0.5046900000000  0.5185660000000  0.4479630000000 1.0
C      1  0.4564190000000  0.5523190000000  0.5601860000000 1.0
C      1  0.5049700000000  0.5885420000000  0.4600900000000 1.0
C      1  0.5595700000000  0.5850960000000  0.5627330000000 1.0
C      1  0.4408360000000  0.5303670000000  0.4617040000000 1.0
C      1  0.5620300000000  0.3963800000000  0.4730100000000 1.0
C      1  0.3994310000000  0.4817600000000  0.5346610000000 1.0
C      1  0.4721360000000  0.4897660000000  0.4654850000000 1.0
C      1  0.5829160000000  0.5736830000000  0.5525670000000 1.0
C      1  0.5672600000000  0.4808560000000  0.4736680000000 1.0
C      1  0.4567270000000  0.4620820000000  0.4200200000000 1.0
C      1  0.4763240000000  0.5049330000000  0.4911850000000 1.0
C      1  0.4413620000000  0.5406660000000  0.5153570000000 1.0
C      1  0.4702870000000  0.4855120000000  0.5350870000000 1.0
C      1  0.5472130000000  0.5411990000000  0.4553720000000 1.0
C      1  0.4175760000000  0.5244380000000  0.4780700000000 1.0
C      1  0.5141130000000  0.3750360000000  0.4730740000000 1.0
C      1  0.5611020000000  0.5055600000000  0.5464200000000 1.0
C      1  0.4882270000000  0.4755700000000  0.3852080000000 1.0
C      1  0.4719830000000  0.4378610000000  0.4250740000000 1.0
C      1  0.5538170000000  0.5487610000000  0.4823760000000 1.0
C      1  0.5399100000000  0.3815520000000  0.4689290000000 1.0
C      1  0.4449540000000  0.4915750000000  0.5199930000000 1.0
C      1  0.4242220000000  0.4654220000000  0.5748730000000 1.0
C      1  0.4694260000000  0.5281530000000  0.4199640000000 1.0
C      1  0.5135160000000  0.4797480000000  0.3934210000000 1.0
C      1  0.5244710000000  0.4285830000000  0.4181440000000 1.0
C      1  0.3870230000000  0.4952670000000  0.5121880000000 1.0
C      1  0.5401850000000  0.5140920000000  0.5649650000000 1.0
C      1  0.4511780000000  0.4551510000000  0.5839940000000 1.0
C      1  0.5324260000000  0.4677530000000  0.5215470000000 1.0
C      1  0.5353510000000  0.6397030000000  0.4995580000000 1.0
C      1  0.5086410000000  0.4115890000000  0.5524110000000 1.0
C      1  0.5647690000000  0.4313260000000  0.5088100000000 1.0
C      1  0.4986140000000  0.4744170000000  0.4593550000000 1.0
C      1  0.4700220000000  0.4803180000000  0.5887810000000 1.0
C      1  0.5147120000000  0.4782620000000  0.5030150000000 1.0
C      1  0.4777180000000  0.5544720000000  0.4789310000000 1.0
C      1  0.5101360000000  0.6270400000000  0.5664760000000 1.0
C      1  0.5192470000000  0.4920670000000  0.4456230000000 1.0
C      1  0.5861020000000  0.5265870000000  0.4205880000000 1.0
C      1  0.4373190000000  0.4710750000000  0.4976590000000 1.0
C      1  0.5453620000000  0.5754880000000  0.4865860000000 1.0
END
