TITL C-74084-3399-47 168.239790261747 125000 -840.890341893386 0 0 138 (C1) n - 1
REM
REM in /home/nfs/bkarasulu/CARBON/AIRSS/Generating-Clusters/LCBOP/Higher-Symm/SD-CG/FIRE-CG
REM
REM
REM
REM
REM
REM ./C.cell (b20cbc046b6831c77cfcea5457e17084)
REM AIRSS Version 0.9.1 bugfix July 2018 build 013d7b7c2542+ Fri, 06 Jul 2018 19:26:36 +0100
REM compiler GCC version 9.2.1 20190827 (Red Hat 9.2.1-1)
REM options -cpp -mtune=generic -march=x86-64 -g -O0 -fpre-include=/usr/include/finclude/math-vector-fortran.h
REM seed 1252160735 496797679 -1696246841 -942046602 192913563 1909974087 122360263 -1876589588 -1191397507 -200606114 558834076 2114886407 2090004027 837911754 -1014613254 2080906985 -807161966 743387506 -2057969581 120756915 -1100612762 -1560201470 -1921801150 34360103 -1764705356 980287501 689518701 -1159404313 -851391179 -850818110 -149367743 -1971083882 1975602019
REM
CELL 1.54180   50.00000   50.00000   50.00000   90.00000   90.00000   90.00000
LATT -1
SFAC C  
C      1  0.5003970000000  0.5715340000000  0.4452530000000 1.0
C      1  0.5009480000000  0.4074650000000  0.4616380000000 1.0
C      1  0.4973130000000  0.5124400000000  0.5915730000000 1.0
C      1  0.4973400000000  0.5750190000000  0.5501310000000 1.0
C      1  0.5061930000000  0.4107640000000  0.5381940000000 1.0
C      1  0.4967680000000  0.5121740000000  0.4058390000000 1.0
C      1  0.5975100000000  0.5059840000000  0.4568400000000 1.0
C      1  0.5861460000000  0.4558380000000  0.5370470000000 1.0
C      1  0.5794920000000  0.5534310000000  0.5196660000000 1.0
C      1  0.4009950000000  0.5066790000000  0.5372400000000 1.0
C      1  0.4052290000000  0.4577280000000  0.4813210000000 1.0
C      1  0.3979080000000  0.5403660000000  0.4687120000000 1.0
C      1  0.5660870000000  0.4921130000000  0.5224000000000 1.0
C      1  0.5664240000000  0.5198090000000  0.4890300000000 1.0
C      1  0.5669550000000  0.4913670000000  0.4937350000000 1.0
C      1  0.4292940000000  0.5009470000000  0.4861870000000 1.0
C      1  0.4259170000000  0.5244170000000  0.5026300000000 1.0
C      1  0.4354210000000  0.4825920000000  0.5081310000000 1.0
C      1  0.4891340000000  0.3894220000000  0.4414010000000 1.0
C      1  0.4883100000000  0.5054860000000  0.6189770000000 1.0
C      1  0.4916220000000  0.5995500000000  0.4449860000000 1.0
C      1  0.5111250000000  0.3896790000000  0.5588950000000 1.0
C      1  0.5041440000000  0.5002140000000  0.3799200000000 1.0
C      1  0.5052950000000  0.6028270000000  0.5576160000000 1.0
C      1  0.4431640000000  0.4299070000000  0.3986940000000 1.0
C      1  0.4435460000000  0.4479090000000  0.6117360000000 1.0
C      1  0.4743200000000  0.6212900000000  0.5127370000000 1.0
C      1  0.5675290000000  0.4092290000000  0.6037250000000 1.0
C      1  0.5373890000000  0.4365470000000  0.3949250000000 1.0
C      1  0.5481440000000  0.6339940000000  0.5070730000000 1.0
C      1  0.4806080000000  0.6040780000000  0.4925590000000 1.0
C      1  0.4605300000000  0.4241240000000  0.4188560000000 1.0
C      1  0.4588160000000  0.4696050000000  0.6056520000000 1.0
C      1  0.5364890000000  0.6144020000000  0.5219880000000 1.0
C      1  0.5495030000000  0.4110910000000  0.5833790000000 1.0
C      1  0.5282360000000  0.4619700000000  0.3982380000000 1.0
C      1  0.5862580000000  0.5384010000000  0.4957800000000 1.0
C      1  0.5896350000000  0.4838070000000  0.4751180000000 1.0
C      1  0.5896950000000  0.4852210000000  0.5360180000000 1.0
C      1  0.4049880000000  0.5425300000000  0.4970500000000 1.0
C      1  0.4121720000000  0.4808880000000  0.5258780000000 1.0
C      1  0.4095990000000  0.4845620000000  0.4700700000000 1.0
C      1  0.5544350000000  0.4305110000000  0.5032290000000 1.0
C      1  0.5504260000000  0.5404030000000  0.5564870000000 1.0
C      1  0.5596050000000  0.5299030000000  0.4329210000000 1.0
C      1  0.4458720000000  0.4303220000000  0.4942520000000 1.0
C      1  0.4397890000000  0.5434680000000  0.4415030000000 1.0
C      1  0.4361010000000  0.5324720000000  0.5609910000000 1.0
C      1  0.5142230000000  0.4024930000000  0.5091920000000 1.0
C      1  0.5071860000000  0.5552400000000  0.5718320000000 1.0
C      1  0.5104890000000  0.5392000000000  0.4117170000000 1.0
C      1  0.4908150000000  0.4035240000000  0.4908850000000 1.0
C      1  0.4876900000000  0.5553090000000  0.4230230000000 1.0
C      1  0.4843610000000  0.5388980000000  0.5814060000000 1.0
C      1  0.5846200000000  0.4557870000000  0.4731220000000 1.0
C      1  0.5864300000000  0.5024890000000  0.5594290000000 1.0
C      1  0.5872460000000  0.5537270000000  0.4703230000000 1.0
C      1  0.4145470000000  0.4519330000000  0.5310910000000 1.0
C      1  0.4136020000000  0.4969320000000  0.4438780000000 1.0
C      1  0.4081310000000  0.5589320000000  0.5217980000000 1.0
C      1  0.4830370000000  0.5737720000000  0.4954640000000 1.0
C      1  0.4702560000000  0.4433740000000  0.4374960000000 1.0
C      1  0.4640900000000  0.4784570000000  0.5792470000000 1.0
C      1  0.5372170000000  0.5871320000000  0.5149790000000 1.0
C      1  0.5480800000000  0.4335450000000  0.5657990000000 1.0
C      1  0.5277340000000  0.4757440000000  0.4231000000000 1.0
C      1  0.4132650000000  0.5281730000000  0.4454080000000 1.0
C      1  0.4180940000000  0.4401280000000  0.5027100000000 1.0
C      1  0.4098280000000  0.5371190000000  0.5450390000000 1.0
C      1  0.5775370000000  0.5354960000000  0.5497680000000 1.0
C      1  0.5808530000000  0.4413580000000  0.5054140000000 1.0
C      1  0.5861760000000  0.5335720000000  0.4478400000000 1.0
C      1  0.5385640000000  0.4085770000000  0.4944940000000 1.0
C      1  0.5324060000000  0.5424480000000  0.5778650000000 1.0
C      1  0.5371670000000  0.5466270000000  0.4235430000000 1.0
C      1  0.4672860000000  0.4136240000000  0.5050620000000 1.0
C      1  0.4613010000000  0.5419960000000  0.4218720000000 1.0
C      1  0.4591560000000  0.5480910000000  0.5696820000000 1.0
C      1  0.4702670000000  0.4932850000000  0.4590120000000 1.0
C      1  0.4815530000000  0.4895840000000  0.5172420000000 1.0
C      1  0.4765790000000  0.5164550000000  0.5064180000000 1.0
C      1  0.5216890000000  0.4816740000000  0.5395920000000 1.0
C      1  0.5160140000000  0.4801090000000  0.4737210000000 1.0
C      1  0.5221040000000  0.5293990000000  0.4905180000000 1.0
C      1  0.4665190000000  0.5163770000000  0.4086760000000 1.0
C      1  0.4754970000000  0.4181320000000  0.5334320000000 1.0
C      1  0.4665550000000  0.5714080000000  0.5534230000000 1.0
C      1  0.5276360000000  0.5166350000000  0.5907440000000 1.0
C      1  0.5322470000000  0.4099430000000  0.4656750000000 1.0
C      1  0.5307130000000  0.5694820000000  0.4407690000000 1.0
C      1  0.5683870000000  0.5754010000000  0.4770540000000 1.0
C      1  0.5630520000000  0.4529210000000  0.4524590000000 1.0
C      1  0.5687770000000  0.4837230000000  0.5761630000000 1.0
C      1  0.4340810000000  0.5725890000000  0.5155890000000 1.0
C      1  0.4372570000000  0.4525970000000  0.5493730000000 1.0
C      1  0.4352880000000  0.4812650000000  0.4308900000000 1.0
C      1  0.5208820000000  0.5408850000000  0.5162220000000 1.0
C      1  0.4989260000000  0.5014280000000  0.4593420000000 1.0
C      1  0.5253400000000  0.4559130000000  0.5307290000000 1.0
C      1  0.4961750000000  0.5274430000000  0.4781490000000 1.0
C      1  0.4951030000000  0.4889380000000  0.5431510000000 1.0
C      1  0.5053290000000  0.4550580000000  0.4676320000000 1.0
C      1  0.5414040000000  0.5002500000000  0.5336270000000 1.0
C      1  0.5430080000000  0.5218800000000  0.4741630000000 1.0
C      1  0.5400430000000  0.4766640000000  0.4889470000000 1.0
C      1  0.4528170000000  0.5118020000000  0.4710160000000 1.0
C      1  0.4506700000000  0.5220490000000  0.5193230000000 1.0
C      1  0.4619010000000  0.4722490000000  0.5049830000000 1.0
C      1  0.5083070000000  0.5684730000000  0.5198230000000 1.0
C      1  0.5069950000000  0.4954740000000  0.4292130000000 1.0
C      1  0.5251510000000  0.4338130000000  0.5476320000000 1.0
C      1  0.4931350000000  0.5572470000000  0.4711600000000 1.0
C      1  0.4878070000000  0.4919380000000  0.5711130000000 1.0
C      1  0.4931020000000  0.4352880000000  0.4528950000000 1.0
C      1  0.5356140000000  0.5275590000000  0.5355220000000 1.0
C      1  0.5486530000000  0.5076920000000  0.4488300000000 1.0
C      1  0.5378250000000  0.4536380000000  0.5061550000000 1.0
C      1  0.4503180000000  0.5420300000000  0.4692020000000 1.0
C      1  0.4457100000000  0.5086120000000  0.5463380000000 1.0
C      1  0.4573000000000  0.4543570000000  0.4817670000000 1.0
C      1  0.4710370000000  0.3979560000000  0.4229150000000 1.0
C      1  0.4712350000000  0.4855460000000  0.6253490000000 1.0
C      1  0.4838810000000  0.6137770000000  0.4663300000000 1.0
C      1  0.5303860000000  0.3908410000000  0.5779490000000 1.0
C      1  0.5176030000000  0.4769930000000  0.3768110000000 1.0
C      1  0.5221140000000  0.6198950000000  0.5455100000000 1.0
C      1  0.5491990000000  0.4276650000000  0.4507560000000 1.0
C      1  0.5474340000000  0.4961110000000  0.5906840000000 1.0
C      1  0.5494230000000  0.5821900000000  0.4574070000000 1.0
C      1  0.4569810000000  0.4321200000000  0.5494930000000 1.0
C      1  0.4483170000000  0.4947110000000  0.4093390000000 1.0
C      1  0.4473860000000  0.5840730000000  0.5376770000000 1.0
C      1  0.5502830000000  0.4783440000000  0.4410900000000 1.0
C      1  0.5686820000000  0.4543620000000  0.5627530000000 1.0
C      1  0.5620040000000  0.5751030000000  0.5067060000000 1.0
C      1  0.4452280000000  0.4801230000000  0.5580660000000 1.0
C      1  0.4564110000000  0.4669440000000  0.4514170000000 1.0
C      1  0.4524620000000  0.5634090000000  0.4933660000000 1.0
END
