TITL C-74083-3671-346 3.86789130885571e-07 125000 -1170.46335379401 0 0 190 (C1) n - 1
REM
REM in /home/nfs/bkarasulu/CARBON/AIRSS/Generating-Clusters/LCBOP/Higher-Symm/SD-CG/FIRE-CG
REM
REM
REM
REM
REM
REM ./C.cell (b20cbc046b6831c77cfcea5457e17084)
REM AIRSS Version 0.9.1 bugfix July 2018 build 013d7b7c2542+ Fri, 06 Jul 2018 19:26:36 +0100
REM compiler GCC version 9.2.1 20190827 (Red Hat 9.2.1-1)
REM options -cpp -mtune=generic -march=x86-64 -g -O0 -fpre-include=/usr/include/finclude/math-vector-fortran.h
REM seed -1897368270 -888417999 -1841614941 -926705021 2060224943 -1365201909 365939030 -142285747 279461604 -2021911057 -1267214191 904197722 1653563722 522756412 372013784 2142174105 1825881855 708658446 -843280250 921349985 359322822 138093345 -2127701619 582652990 1631912740 1235544890 1530753010 -673093761 -2038290194 -1875242010 -1179559194 550252227 -1805063866
REM
CELL 1.54180   50.00000   50.00000   50.00000   90.00000   90.00000   90.00000
LATT -1
SFAC C  
C      1  0.5487300000000  0.4631140000000  0.5150000000000 1.0
C      1  0.5608950000000  0.4615870000000  0.4670370000000 1.0
C      1  0.5203220000000  0.6170930000000  0.4761340000000 1.0
C      1  0.5204160000000  0.6188360000000  0.5279840000000 1.0
C      1  0.5325840000000  0.4967440000000  0.6119880000000 1.0
C      1  0.5330040000000  0.4927050000000  0.3897100000000 1.0
C      1  0.4280440000000  0.4319940000000  0.4188300000000 1.0
C      1  0.4426270000000  0.4278880000000  0.5878930000000 1.0
C      1  0.5078440000000  0.4527160000000  0.5901630000000 1.0
C      1  0.5088210000000  0.4473400000000  0.4078080000000 1.0
C      1  0.4813080000000  0.5030020000000  0.3851280000000 1.0
C      1  0.4813780000000  0.5086550000000  0.6187090000000 1.0
C      1  0.5062560000000  0.4113340000000  0.4700220000000 1.0
C      1  0.5013410000000  0.4108010000000  0.5295020000000 1.0
C      1  0.4969020000000  0.5428930000000  0.5798380000000 1.0
C      1  0.5004280000000  0.5430570000000  0.4185550000000 1.0
C      1  0.5261910000000  0.6257960000000  0.4499100000000 1.0
C      1  0.5248940000000  0.6273150000000  0.5546950000000 1.0
C      1  0.5226360000000  0.4735170000000  0.5102400000000 1.0
C      1  0.5099220000000  0.4802310000000  0.4865920000000 1.0
C      1  0.5141630000000  0.3651060000000  0.4864170000000 1.0
C      1  0.5120030000000  0.3646580000000  0.5136540000000 1.0
C      1  0.4337710000000  0.3955370000000  0.4486770000000 1.0
C      1  0.4392610000000  0.3958440000000  0.5512380000000 1.0
C      1  0.3824000000000  0.4807590000000  0.4815910000000 1.0
C      1  0.4015430000000  0.4759770000000  0.5023530000000 1.0
C      1  0.4329190000000  0.5609360000000  0.5381890000000 1.0
C      1  0.4451970000000  0.5639080000000  0.4759040000000 1.0
C      1  0.5243010000000  0.4250010000000  0.4539010000000 1.0
C      1  0.5269530000000  0.4183670000000  0.5431260000000 1.0
C      1  0.4076020000000  0.3887550000000  0.4082710000000 1.0
C      1  0.4564350000000  0.3818870000000  0.5939300000000 1.0
C      1  0.4175280000000  0.5747130000000  0.5161430000000 1.0
C      1  0.4178260000000  0.5634910000000  0.4897780000000 1.0
C      1  0.5692140000000  0.5590340000000  0.3533860000000 1.0
C      1  0.5713850000000  0.5643550000000  0.6467710000000 1.0
C      1  0.4976090000000  0.3839590000000  0.4730400000000 1.0
C      1  0.4934480000000  0.3830940000000  0.5248430000000 1.0
C      1  0.4951290000000  0.5052900000000  0.4883260000000 1.0
C      1  0.4939520000000  0.5139920000000  0.5142160000000 1.0
C      1  0.4423570000000  0.5111890000000  0.4814240000000 1.0
C      1  0.4349830000000  0.5137210000000  0.5080360000000 1.0
C      1  0.4095970000000  0.4488460000000  0.5070850000000 1.0
C      1  0.3616030000000  0.4613700000000  0.4807920000000 1.0
C      1  0.3984570000000  0.5407750000000  0.4865910000000 1.0
C      1  0.3880530000000  0.5345340000000  0.5146720000000 1.0
C      1  0.4681080000000  0.6035690000000  0.5520570000000 1.0
C      1  0.4677060000000  0.6052870000000  0.4496360000000 1.0
C      1  0.5676930000000  0.3820130000000  0.4660790000000 1.0
C      1  0.5490820000000  0.3969060000000  0.5422910000000 1.0
C      1  0.5600320000000  0.5069560000000  0.6032060000000 1.0
C      1  0.5603330000000  0.5032850000000  0.3992090000000 1.0
C      1  0.4729720000000  0.5426630000000  0.4251920000000 1.0
C      1  0.4704100000000  0.5392850000000  0.5714190000000 1.0
C      1  0.4464560000000  0.4681210000000  0.5586680000000 1.0
C      1  0.4506060000000  0.4793770000000  0.4641220000000 1.0
C      1  0.5775900000000  0.4072970000000  0.4642200000000 1.0
C      1  0.5753190000000  0.4096570000000  0.5396550000000 1.0
C      1  0.5372890000000  0.5888980000000  0.4229880000000 1.0
C      1  0.5363140000000  0.5888850000000  0.5790620000000 1.0
C      1  0.4372290000000  0.4448320000000  0.5041530000000 1.0
C      1  0.4477800000000  0.4529580000000  0.4783140000000 1.0
C      1  0.4445130000000  0.5345700000000  0.5266910000000 1.0
C      1  0.4480670000000  0.5353080000000  0.4677440000000 1.0
C      1  0.4765880000000  0.5049520000000  0.5346000000000 1.0
C      1  0.4838480000000  0.5109840000000  0.4629380000000 1.0
C      1  0.5542310000000  0.4367110000000  0.5792390000000 1.0
C      1  0.5554190000000  0.4308210000000  0.4195630000000 1.0
C      1  0.5801010000000  0.5350060000000  0.4474740000000 1.0
C      1  0.5759170000000  0.5334810000000  0.5543480000000 1.0
C      1  0.4877040000000  0.6027850000000  0.5731670000000 1.0
C      1  0.4887690000000  0.6029370000000  0.4303120000000 1.0
C      1  0.5963620000000  0.4682750000000  0.4251650000000 1.0
C      1  0.5952450000000  0.4733600000000  0.5745700000000 1.0
C      1  0.5791060000000  0.4768330000000  0.4815290000000 1.0
C      1  0.5730730000000  0.4762570000000  0.5094640000000 1.0
C      1  0.4793770000000  0.4617100000000  0.5938230000000 1.0
C      1  0.4794240000000  0.4541070000000  0.4058390000000 1.0
C      1  0.4630540000000  0.4299760000000  0.4703700000000 1.0
C      1  0.4553590000000  0.4280390000000  0.5189350000000 1.0
C      1  0.4678520000000  0.4851920000000  0.6086510000000 1.0
C      1  0.4695930000000  0.4813950000000  0.4004520000000 1.0
C      1  0.5703420000000  0.5507540000000  0.4255020000000 1.0
C      1  0.5688060000000  0.5513020000000  0.5752270000000 1.0
C      1  0.4259620000000  0.5320330000000  0.4119940000000 1.0
C      1  0.4249580000000  0.5351320000000  0.5853460000000 1.0
C      1  0.5189970000000  0.5369640000000  0.5647740000000 1.0
C      1  0.5178040000000  0.5340000000000  0.4385610000000 1.0
C      1  0.5159780000000  0.6075900000000  0.5734950000000 1.0
C      1  0.5170580000000  0.6070660000000  0.4302770000000 1.0
C      1  0.5427140000000  0.4388630000000  0.5270070000000 1.0
C      1  0.5425170000000  0.4421920000000  0.4670900000000 1.0
C      1  0.5767610000000  0.4294090000000  0.5627320000000 1.0
C      1  0.5768490000000  0.4241140000000  0.4387060000000 1.0
C      1  0.3978880000000  0.5240950000000  0.4601910000000 1.0
C      1  0.3972060000000  0.5273140000000  0.5429520000000 1.0
C      1  0.5663600000000  0.5331580000000  0.4011050000000 1.0
C      1  0.5660700000000  0.5362330000000  0.6007900000000 1.0
C      1  0.5049740000000  0.4727570000000  0.4587080000000 1.0
C      1  0.5106020000000  0.4751420000000  0.5358520000000 1.0
C      1  0.4771100000000  0.5688390000000  0.4915370000000 1.0
C      1  0.4802450000000  0.5724970000000  0.5192250000000 1.0
C      1  0.4638740000000  0.5267460000000  0.5468430000000 1.0
C      1  0.4691100000000  0.5311640000000  0.4502720000000 1.0
C      1  0.5744960000000  0.4815540000000  0.5929210000000 1.0
C      1  0.5750460000000  0.4772400000000  0.4079910000000 1.0
C      1  0.5169590000000  0.5479290000000  0.5390310000000 1.0
C      1  0.5154230000000  0.5489610000000  0.4630850000000 1.0
C      1  0.5389120000000  0.6490790000000  0.4439230000000 1.0
C      1  0.5362210000000  0.6510350000000  0.5616550000000 1.0
C      1  0.5970190000000  0.4501650000000  0.5575140000000 1.0
C      1  0.5985340000000  0.4449240000000  0.4420610000000 1.0
C      1  0.4575450000000  0.4501200000000  0.5781850000000 1.0
C      1  0.4559070000000  0.4375120000000  0.4114650000000 1.0
C      1  0.4460360000000  0.4014700000000  0.5778880000000 1.0
C      1  0.4224750000000  0.4045690000000  0.4247280000000 1.0
C      1  0.5318150000000  0.5113380000000  0.5638630000000 1.0
C      1  0.5345020000000  0.5103140000000  0.4401590000000 1.0
C      1  0.4438370000000  0.4875000000000  0.4125410000000 1.0
C      1  0.4390110000000  0.4903660000000  0.6065110000000 1.0
C      1  0.5994830000000  0.4955020000000  0.4746220000000 1.0
C      1  0.5900630000000  0.4937630000000  0.5238440000000 1.0
C      1  0.5774350000000  0.5655050000000  0.5169400000000 1.0
C      1  0.5797740000000  0.5667610000000  0.4873030000000 1.0
C      1  0.4149220000000  0.4956710000000  0.5165520000000 1.0
C      1  0.3928500000000  0.4942810000000  0.4587500000000 1.0
C      1  0.4953870000000  0.6273790000000  0.5159270000000 1.0
C      1  0.4954800000000  0.6263370000000  0.4877310000000 1.0
C      1  0.4594640000000  0.5790610000000  0.5391910000000 1.0
C      1  0.4481030000000  0.5853360000000  0.4550590000000 1.0
C      1  0.5093590000000  0.5092020000000  0.6216700000000 1.0
C      1  0.5091670000000  0.5045920000000  0.3810630000000 1.0
C      1  0.5878630000000  0.5415680000000  0.5299260000000 1.0
C      1  0.5925030000000  0.5437120000000  0.4724110000000 1.0
C      1  0.4885040000000  0.4286680000000  0.4843240000000 1.0
C      1  0.4846900000000  0.4288660000000  0.5131620000000 1.0
C      1  0.4521890000000  0.5413640000000  0.5927670000000 1.0
C      1  0.4533510000000  0.5404110000000  0.4049760000000 1.0
C      1  0.4649120000000  0.4801940000000  0.5408850000000 1.0
C      1  0.4786310000000  0.4836150000000  0.4544040000000 1.0
C      1  0.5507540000000  0.5260380000000  0.4883420000000 1.0
C      1  0.5414040000000  0.5178720000000  0.5114450000000 1.0
C      1  0.4691760000000  0.3837380000000  0.4821820000000 1.0
C      1  0.4667870000000  0.3826590000000  0.5117660000000 1.0
C      1  0.5938340000000  0.4206010000000  0.4859630000000 1.0
C      1  0.5926610000000  0.4209160000000  0.5162580000000 1.0
C      1  0.4353460000000  0.4820610000000  0.4391750000000 1.0
C      1  0.4203780000000  0.4801890000000  0.5598670000000 1.0
C      1  0.5408800000000  0.5474860000000  0.4744360000000 1.0
C      1  0.5174010000000  0.5269810000000  0.5212170000000 1.0
C      1  0.5568110000000  0.4546070000000  0.4029360000000 1.0
C      1  0.5556930000000  0.4592700000000  0.5967170000000 1.0
C      1  0.5304530000000  0.5908960000000  0.4867880000000 1.0
C      1  0.5304320000000  0.5911280000000  0.5183860000000 1.0
C      1  0.5236550000000  0.4844400000000  0.4412740000000 1.0
C      1  0.5166870000000  0.4886540000000  0.5581060000000 1.0
C      1  0.4075350000000  0.4760050000000  0.4409720000000 1.0
C      1  0.4071490000000  0.4994810000000  0.5437970000000 1.0
C      1  0.5250080000000  0.4326240000000  0.5716970000000 1.0
C      1  0.5257360000000  0.4282840000000  0.4254210000000 1.0
C      1  0.4486880000000  0.4006790000000  0.5254540000000 1.0
C      1  0.4530860000000  0.4027090000000  0.4672650000000 1.0
C      1  0.5011890000000  0.5686690000000  0.4767580000000 1.0
C      1  0.5078840000000  0.5719720000000  0.5282160000000 1.0
C      1  0.3884740000000  0.4300960000000  0.5045130000000 1.0
C      1  0.3652430000000  0.4366260000000  0.4917550000000 1.0
C      1  0.5571030000000  0.5742700000000  0.4358350000000 1.0
C      1  0.5561510000000  0.5752820000000  0.5637190000000 1.0
C      1  0.5685730000000  0.5464780000000  0.3762100000000 1.0
C      1  0.5694910000000  0.5506100000000  0.6247140000000 1.0
C      1  0.5620150000000  0.5126810000000  0.4470050000000 1.0
C      1  0.5588470000000  0.5111320000000  0.5555820000000 1.0
C      1  0.4727330000000  0.6248650000000  0.5330610000000 1.0
C      1  0.4730730000000  0.6238100000000  0.4707370000000 1.0
C      1  0.5987320000000  0.5198610000000  0.5152710000000 1.0
C      1  0.6029620000000  0.5212810000000  0.4871090000000 1.0
C      1  0.4649950000000  0.5265850000000  0.3822770000000 1.0
C      1  0.4647830000000  0.5323850000000  0.6171890000000 1.0
C      1  0.5294110000000  0.4687600000000  0.6041870000000 1.0
C      1  0.5304270000000  0.4641700000000  0.3953310000000 1.0
C      1  0.6074450000000  0.4425310000000  0.5311710000000 1.0
C      1  0.6094580000000  0.4396770000000  0.4690560000000 1.0
C      1  0.4238850000000  0.4319610000000  0.6075650000000 1.0
C      1  0.4068890000000  0.4505950000000  0.4269570000000 1.0
C      1  0.4140100000000  0.5462960000000  0.5598000000000 1.0
C      1  0.4091720000000  0.5354570000000  0.4352890000000 1.0
C      1  0.4252780000000  0.5055260000000  0.4004710000000 1.0
C      1  0.4207470000000  0.5092400000000  0.5980940000000 1.0
C      1  0.5569510000000  0.5800330000000  0.5332020000000 1.0
C      1  0.5537180000000  0.5741920000000  0.4730020000000 1.0
END
