TITL C-74085-4933-181 -15066.2514571341 125000 -420.980221436285 0 0 76 (T23) n - 1
REM
REM in /home/nfs/bkarasulu/CARBON/AIRSS/Generating-Clusters/LCBOP/Higher-Symm/SD-CG/FIRE-CG
REM
REM
REM
REM
REM
REM ./C.cell (b20cbc046b6831c77cfcea5457e17084)
REM AIRSS Version 0.9.1 bugfix July 2018 build 013d7b7c2542+ Fri, 06 Jul 2018 19:26:36 +0100
REM compiler GCC version 9.2.1 20190827 (Red Hat 9.2.1-1)
REM options -cpp -mtune=generic -march=x86-64 -g -O0 -fpre-include=/usr/include/finclude/math-vector-fortran.h
REM seed -302464251 1008685942 -475358411 974656408 1468223564 -501401191 1742150247 2146317684 -80229998 -1970009809 -2114814901 1155637646 -1854043783 650551966 620051022 -243728477 772381192 1421108038 -1687743948 1967857867 1766157049 1671959352 1115262831 604948269 309707975 -143277533 1358045802 -249271986 741143066 1238250196 2118202587 -372493687 1762545623
REM
CELL 1.54180   50.00000   50.00000   50.00000   90.00000   90.00000   90.00000
LATT -1
SFAC C  
C      1  0.5153430000000  0.5275590000000  0.4206650000000 1.0
C      1  0.4200170000000  0.5155880000000  0.5273460000000 1.0
C      1  0.5269250000000  0.4204280000000  0.5156450000000 1.0
C      1  0.4850160000000  0.5275060000000  0.5803540000000 1.0
C      1  0.5153160000000  0.4732950000000  0.5801820000000 1.0
C      1  0.4848580000000  0.4734730000000  0.4204190000000 1.0
C      1  0.5799170000000  0.5154230000000  0.4732510000000 1.0
C      1  0.4202120000000  0.4851040000000  0.4732470000000 1.0
C      1  0.5799230000000  0.4853760000000  0.5275510000000 1.0
C      1  0.4727900000000  0.4205130000000  0.4853220000000 1.0
C      1  0.5268880000000  0.5804080000000  0.4852290000000 1.0
C      1  0.4728050000000  0.5801490000000  0.5157430000000 1.0
C      1  0.5205690000000  0.5520890000000  0.5263920000000 1.0
C      1  0.5260640000000  0.5209820000000  0.5520290000000 1.0
C      1  0.5516810000000  0.5264660000000  0.5209140000000 1.0
C      1  0.4794070000000  0.5520650000000  0.4744170000000 1.0
C      1  0.5205380000000  0.4486940000000  0.4744290000000 1.0
C      1  0.4794070000000  0.4487490000000  0.5264550000000 1.0
C      1  0.4740210000000  0.5209760000000  0.4487420000000 1.0
C      1  0.5260040000000  0.4797890000000  0.4487740000000 1.0
C      1  0.4739970000000  0.4798690000000  0.5520840000000 1.0
C      1  0.4483270000000  0.5263830000000  0.4798120000000 1.0
C      1  0.5516490000000  0.4743220000000  0.4798750000000 1.0
C      1  0.4483250000000  0.4744190000000  0.5210030000000 1.0
C      1  0.5244440000000  0.4990190000000  0.5918970000000 1.0
C      1  0.5915490000000  0.5246860000000  0.4989420000000 1.0
C      1  0.4985410000000  0.5919060000000  0.5247940000000 1.0
C      1  0.4758650000000  0.4992570000000  0.4087640000000 1.0
C      1  0.5244190000000  0.5018170000000  0.4089450000000 1.0
C      1  0.4758770000000  0.5017570000000  0.5919690000000 1.0
C      1  0.4083630000000  0.5245960000000  0.5015640000000 1.0
C      1  0.5915260000000  0.4761000000000  0.5018530000000 1.0
C      1  0.4084910000000  0.4760400000000  0.4989930000000 1.0
C      1  0.5010940000000  0.5920540000000  0.4762420000000 1.0
C      1  0.4985110000000  0.4088650000000  0.4761530000000 1.0
C      1  0.5011750000000  0.4087710000000  0.5247260000000 1.0
C      1  0.4583000000000  0.5633590000000  0.5342410000000 1.0
C      1  0.5337900000000  0.4587450000000  0.5633960000000 1.0
C      1  0.5632090000000  0.5337280000000  0.4584760000000 1.0
C      1  0.5413820000000  0.5637220000000  0.4666470000000 1.0
C      1  0.4580570000000  0.4372160000000  0.4669970000000 1.0
C      1  0.5414230000000  0.4371290000000  0.5341970000000 1.0
C      1  0.4662620000000  0.4589850000000  0.4370800000000 1.0
C      1  0.5338150000000  0.5420950000000  0.4374480000000 1.0
C      1  0.4666660000000  0.5422640000000  0.5636650000000 1.0
C      1  0.4367080000000  0.5341520000000  0.5418530000000 1.0
C      1  0.5632130000000  0.4670960000000  0.5423470000000 1.0
C      1  0.4369970000000  0.4666270000000  0.4587040000000 1.0
C      1  0.4220280000000  0.5152930000000  0.4768890000000 1.0
C      1  0.4764910000000  0.4224140000000  0.5154630000000 1.0
C      1  0.5150340000000  0.4770450000000  0.4224000000000 1.0
C      1  0.5780330000000  0.5155050000000  0.5237410000000 1.0
C      1  0.4219650000000  0.4854120000000  0.5237590000000 1.0
C      1  0.5780070000000  0.4852880000000  0.4770540000000 1.0
C      1  0.5232970000000  0.4223480000000  0.4854660000000 1.0
C      1  0.4764400000000  0.5783480000000  0.4855460000000 1.0
C      1  0.5233130000000  0.5784530000000  0.5154080000000 1.0
C      1  0.4851210000000  0.4769990000000  0.5783820000000 1.0
C      1  0.5151560000000  0.5237920000000  0.5784060000000 1.0
C      1  0.4851510000000  0.5239210000000  0.4224580000000 1.0
C      1  0.4990890000000  0.5391980000000  0.5145920000000 1.0
C      1  0.5141940000000  0.4995100000000  0.5391770000000 1.0
C      1  0.5388070000000  0.5145970000000  0.4994620000000 1.0
C      1  0.5009230000000  0.5392100000000  0.4861940000000 1.0
C      1  0.4990530000000  0.4615840000000  0.4862220000000 1.0
C      1  0.5009010000000  0.4615950000000  0.5146230000000 1.0
C      1  0.4857930000000  0.4994600000000  0.4616060000000 1.0
C      1  0.5141920000000  0.5012850000000  0.4616380000000 1.0
C      1  0.4857930000000  0.5013640000000  0.5392110000000 1.0
C      1  0.4611860000000  0.5146080000000  0.5013250000000 1.0
C      1  0.5387930000000  0.4861930000000  0.5013410000000 1.0
C      1  0.4612040000000  0.4862090000000  0.4995080000000 1.0
C      1  0.5217440000000  0.5221400000000  0.4786510000000 1.0
C      1  0.5217310000000  0.4786580000000  0.5221540000000 1.0
C      1  0.4782420000000  0.5221720000000  0.5221480000000 1.0
C      1  0.4782370000000  0.4786410000000  0.4786700000000 1.0
END
