TITL C-74086-5274-334 1.73921024994903 125000 -517.680011351006 0 0 85 (C1) n - 1
REM
REM in /home/nfs/bkarasulu/CARBON/AIRSS/Generating-Clusters/LCBOP/Higher-Symm/SD-CG/FIRE-CG
REM
REM
REM
REM
REM
REM ./C.cell (b20cbc046b6831c77cfcea5457e17084)
REM AIRSS Version 0.9.1 bugfix July 2018 build 013d7b7c2542+ Fri, 06 Jul 2018 19:26:36 +0100
REM compiler GCC version 9.2.1 20190827 (Red Hat 9.2.1-1)
REM options -cpp -mtune=generic -march=x86-64 -g -O0 -fpre-include=/usr/include/finclude/math-vector-fortran.h
REM seed -334870645 806933098 997992114 -406391496 806308247 -138449754 -1614442451 -1219899201 -2114817554 1531909082 1470880421 1452236832 -894257100 904023633 -1858304132 -2111068842 1722676219 160585022 -1834720278 1361891665 -1850244247 1402074681 -891554528 -1834388392 -533481794 1008061901 486632998 1042271557 -1752437856 1018770447 37628251 -1190791975 -957765962
REM
CELL 1.54180   50.00000   50.00000   50.00000   90.00000   90.00000   90.00000
LATT -1
SFAC C  
C      1  0.5892120000000  0.4761100000000  0.5308470000000 1.0
C      1  0.5243100000000  0.4583100000000  0.4941070000000 1.0
C      1  0.4835170000000  0.5410160000000  0.5792320000000 1.0
C      1  0.5825230000000  0.5196670000000  0.4769460000000 1.0
C      1  0.4459460000000  0.4446520000000  0.4886920000000 1.0
C      1  0.6253630000000  0.3954220000000  0.5910070000000 1.0
C      1  0.4680400000000  0.4964320000000  0.5245470000000 1.0
C      1  0.3926910000000  0.5024550000000  0.4856530000000 1.0
C      1  0.4587240000000  0.4089070000000  0.4435600000000 1.0
C      1  0.4238520000000  0.5110960000000  0.5226240000000 1.0
C      1  0.4595630000000  0.4976380000000  0.4337500000000 1.0
C      1  0.4667320000000  0.3892070000000  0.4621740000000 1.0
C      1  0.5557790000000  0.4961930000000  0.4444720000000 1.0
C      1  0.5987380000000  0.4553440000000  0.5468330000000 1.0
C      1  0.4372220000000  0.4132080000000  0.5226700000000 1.0
C      1  0.4861180000000  0.5373090000000  0.5018620000000 1.0
C      1  0.4281670000000  0.5394160000000  0.5265620000000 1.0
C      1  0.5294490000000  0.4586130000000  0.4451780000000 1.0
C      1  0.4605340000000  0.3834900000000  0.4878140000000 1.0
C      1  0.6076290000000  0.4352910000000  0.5616780000000 1.0
C      1  0.6236330000000  0.4713590000000  0.4969900000000 1.0
C      1  0.5711740000000  0.5204160000000  0.4498360000000 1.0
C      1  0.5062070000000  0.4953060000000  0.4225410000000 1.0
C      1  0.5314030000000  0.4844910000000  0.4313890000000 1.0
C      1  0.5413690000000  0.4594850000000  0.4716750000000 1.0
C      1  0.4985440000000  0.5228400000000  0.4300740000000 1.0
C      1  0.5505060000000  0.5133000000000  0.5342050000000 1.0
C      1  0.4809100000000  0.4798360000000  0.4235620000000 1.0
C      1  0.4334460000000  0.4631010000000  0.5324040000000 1.0
C      1  0.4572790000000  0.5486260000000  0.5686900000000 1.0
C      1  0.5129610000000  0.5317000000000  0.4528270000000 1.0
C      1  0.5575980000000  0.5402370000000  0.5400480000000 1.0
C      1  0.5299410000000  0.5542990000000  0.5844420000000 1.0
C      1  0.4887400000000  0.5858410000000  0.4616530000000 1.0
C      1  0.4483280000000  0.3918960000000  0.5102780000000 1.0
C      1  0.5480530000000  0.5511890000000  0.5645180000000 1.0
C      1  0.4181450000000  0.5041900000000  0.4952460000000 1.0
C      1  0.4419770000000  0.4980240000000  0.4805480000000 1.0
C      1  0.4179370000000  0.5556000000000  0.5055390000000 1.0
C      1  0.5200720000000  0.5801470000000  0.5001490000000 1.0
C      1  0.5485840000000  0.5623560000000  0.4413640000000 1.0
C      1  0.4690840000000  0.5255090000000  0.4326100000000 1.0
C      1  0.4962950000000  0.5298010000000  0.5554740000000 1.0
C      1  0.4233340000000  0.4670040000000  0.4497090000000 1.0
C      1  0.4995700000000  0.5546530000000  0.5392740000000 1.0
C      1  0.4564450000000  0.5493180000000  0.4423610000000 1.0
C      1  0.5120990000000  0.5225220000000  0.5005310000000 1.0
C      1  0.5006250000000  0.4808400000000  0.5566320000000 1.0
C      1  0.5103810000000  0.5129960000000  0.4738020000000 1.0
C      1  0.4409030000000  0.4905970000000  0.5335900000000 1.0
C      1  0.4675170000000  0.4952380000000  0.4944540000000 1.0
C      1  0.5009350000000  0.5436380000000  0.6432970000000 1.0
C      1  0.4305300000000  0.4437290000000  0.4644370000000 1.0
C      1  0.5984820000000  0.4795260000000  0.5040990000000 1.0
C      1  0.4515180000000  0.5489590000000  0.5399520000000 1.0
C      1  0.5697650000000  0.4937560000000  0.5404950000000 1.0
C      1  0.5624110000000  0.4787340000000  0.4684800000000 1.0
C      1  0.4873580000000  0.5035450000000  0.5457520000000 1.0
C      1  0.4405480000000  0.4892740000000  0.4533070000000 1.0
C      1  0.4359510000000  0.4405460000000  0.5153430000000 1.0
C      1  0.4016070000000  0.4678590000000  0.4332350000000 1.0
C      1  0.4332300000000  0.4199660000000  0.4494470000000 1.0
C      1  0.5294480000000  0.5054770000000  0.5165240000000 1.0
C      1  0.4793150000000  0.4518250000000  0.4212220000000 1.0
C      1  0.5002810000000  0.4437690000000  0.4914410000000 1.0
C      1  0.4751770000000  0.5521010000000  0.5233600000000 1.0
C      1  0.4317340000000  0.5498890000000  0.4559790000000 1.0
C      1  0.5258970000000  0.4761880000000  0.5162350000000 1.0
C      1  0.4194720000000  0.5569190000000  0.4787570000000 1.0
C      1  0.4982190000000  0.5611270000000  0.6223990000000 1.0
C      1  0.5129490000000  0.5766960000000  0.4729040000000 1.0
C      1  0.5817150000000  0.4917150000000  0.4850520000000 1.0
C      1  0.5036200000000  0.5523550000000  0.5960850000000 1.0
C      1  0.4896660000000  0.4935240000000  0.4765820000000 1.0
C      1  0.5173670000000  0.5722310000000  0.5259970000000 1.0
C      1  0.4749880000000  0.4261580000000  0.4280970000000 1.0
C      1  0.6165690000000  0.4151920000000  0.5764650000000 1.0
C      1  0.4712790000000  0.5732230000000  0.4455560000000 1.0
C      1  0.4903120000000  0.5869990000000  0.6266550000000 1.0
C      1  0.5253800000000  0.5572040000000  0.4561960000000 1.0
C      1  0.4741220000000  0.4428260000000  0.4867060000000 1.0
C      1  0.5682620000000  0.5447490000000  0.4365240000000 1.0
C      1  0.5828510000000  0.5407020000000  0.4957620000000 1.0
C      1  0.5739850000000  0.5507750000000  0.5193330000000 1.0
C      1  0.5178830000000  0.4663290000000  0.5417030000000 1.0
END
