TITL C-74079-2735-77 1347.81110904511 125000 -776.362443353348 0 0 130 (C5) n - 1
REM
REM in /home/nfs/bkarasulu/CARBON/AIRSS/Generating-Clusters/LCBOP/Higher-Symm/SD-CG/FIRE-CG
REM
REM
REM
REM
REM
REM ./C.cell (b20cbc046b6831c77cfcea5457e17084)
REM AIRSS Version 0.9.1 bugfix July 2018 build 013d7b7c2542+ Fri, 06 Jul 2018 19:26:36 +0100
REM compiler GCC version 9.2.1 20190827 (Red Hat 9.2.1-1)
REM options -cpp -mtune=generic -march=x86-64 -g -O0 -fpre-include=/usr/include/finclude/math-vector-fortran.h
REM seed 946619792 288317708 1271282464 -70276799 1171803663 -32587372 -1955158462 1963181321 -785419106 -968077421 -2038606824 363662845 -202428287 142343982 1479286916 -830881874 2068874550 1264917565 2118012784 -1403062643 -955827070 399519755 1714366322 545594717 -887930641 -847388964 -664756256 934085956 -686975412 -1309125121 -1072309676 597944720 -951805899
REM
CELL 1.54180   50.00000   50.00000   50.00000   90.00000   90.00000   90.00000
LATT -1
SFAC C  
C      1  0.4687370000000  0.5267690000000  0.4229990000000 1.0
C      1  0.5635720000000  0.5267700000000  0.4464740000000 1.0
C      1  0.5705520000000  0.5267630000000  0.5439230000000 1.0
C      1  0.4800300000000  0.5267580000000  0.5806740000000 1.0
C      1  0.4171050000000  0.5267620000000  0.5059390000000 1.0
C      1  0.4687380000000  0.4732400000000  0.4229960000000 1.0
C      1  0.5635740000000  0.4732410000000  0.4464710000000 1.0
C      1  0.5705530000000  0.4732340000000  0.5439190000000 1.0
C      1  0.4800320000000  0.4732290000000  0.5806700000000 1.0
C      1  0.4171060000000  0.4732330000000  0.5059350000000 1.0
C      1  0.5134420000000  0.4206690000000  0.5456080000000 1.0
C      1  0.4607740000000  0.4206690000000  0.5268720000000 1.0
C      1  0.4623180000000  0.4206730000000  0.4709920000000 1.0
C      1  0.5159400000000  0.4206760000000  0.4551930000000 1.0
C      1  0.5475360000000  0.4206730000000  0.5013080000000 1.0
C      1  0.5134370000000  0.5793250000000  0.5456190000000 1.0
C      1  0.4607700000000  0.5793250000000  0.5268830000000 1.0
C      1  0.4623140000000  0.5793290000000  0.4710030000000 1.0
C      1  0.5159360000000  0.5793310000000  0.4552040000000 1.0
C      1  0.5475320000000  0.5793290000000  0.5013190000000 1.0
C      1  0.4351920000000  0.5225580000000  0.4816660000000 1.0
C      1  0.4974110000000  0.5225630000000  0.4327000000000 1.0
C      1  0.5632070000000  0.5225620000000  0.4767430000000 1.0
C      1  0.5416520000000  0.5225560000000  0.5529280000000 1.0
C      1  0.4625350000000  0.5225540000000  0.5559710000000 1.0
C      1  0.4351940000000  0.4774410000000  0.4816630000000 1.0
C      1  0.4974120000000  0.4774460000000  0.4326970000000 1.0
C      1  0.5632080000000  0.4774450000000  0.4767390000000 1.0
C      1  0.5416530000000  0.4774390000000  0.5529250000000 1.0
C      1  0.4625360000000  0.4774370000000  0.5559680000000 1.0
C      1  0.5430230000000  0.5139720000000  0.4929410000000 1.0
C      1  0.5200100000000  0.5139680000000  0.5387370000000 1.0
C      1  0.4693430000000  0.5139670000000  0.5310020000000 1.0
C      1  0.4610430000000  0.5139710000000  0.4804240000000 1.0
C      1  0.5065800000000  0.5139740000000  0.4569010000000 1.0
C      1  0.5430240000000  0.4860310000000  0.4929390000000 1.0
C      1  0.5200100000000  0.4860280000000  0.5387350000000 1.0
C      1  0.4693430000000  0.4860270000000  0.5310000000000 1.0
C      1  0.4610430000000  0.4860300000000  0.4804220000000 1.0
C      1  0.5065810000000  0.4860330000000  0.4568990000000 1.0
C      1  0.4383440000000  0.4356030000000  0.5401980000000 1.0
C      1  0.4427130000000  0.4356090000000  0.4537790000000 1.0
C      1  0.5262540000000  0.4356130000000  0.4312290000000 1.0
C      1  0.5735150000000  0.4356090000000  0.5037130000000 1.0
C      1  0.5191830000000  0.4356030000000  0.5710590000000 1.0
C      1  0.4383400000000  0.5643880000000  0.5402070000000 1.0
C      1  0.4427100000000  0.5643940000000  0.4537880000000 1.0
C      1  0.5262500000000  0.5643980000000  0.4312380000000 1.0
C      1  0.5735110000000  0.5643940000000  0.5037220000000 1.0
C      1  0.5191800000000  0.5643880000000  0.5710680000000 1.0
C      1  0.4791480000000  0.5324220000000  0.4887420000000 1.0
C      1  0.5042650000000  0.5324230000000  0.4766920000000 1.0
C      1  0.5234870000000  0.5324220000000  0.4968560000000 1.0
C      1  0.5102490000000  0.5324200000000  0.5213680000000 1.0
C      1  0.4828470000000  0.5324200000000  0.5163530000000 1.0
C      1  0.4791500000000  0.4675790000000  0.4887380000000 1.0
C      1  0.5042670000000  0.4675800000000  0.4766880000000 1.0
C      1  0.5234880000000  0.4675800000000  0.4968510000000 1.0
C      1  0.5102510000000  0.4675780000000  0.5213630000000 1.0
C      1  0.4828480000000  0.4675770000000  0.5163490000000 1.0
C      1  0.4770450000000  0.4294390000000  0.4145510000000 1.0
C      1  0.5741700000000  0.4294390000000  0.4517580000000 1.0
C      1  0.5687970000000  0.4294310000000  0.5556270000000 1.0
C      1  0.4683520000000  0.4294270000000  0.5826150000000 1.0
C      1  0.4116460000000  0.4294310000000  0.4954250000000 1.0
C      1  0.4770410000000  0.5705720000000  0.4145610000000 1.0
C      1  0.5741660000000  0.5705720000000  0.4517680000000 1.0
C      1  0.5687940000000  0.5705640000000  0.5556370000000 1.0
C      1  0.4683480000000  0.5705600000000  0.5826240000000 1.0
C      1  0.4116420000000  0.5705640000000  0.4954350000000 1.0
C      1  0.3909540000000  0.4837040000000  0.4929190000000 1.0
C      1  0.4730370000000  0.4837130000000  0.3941020000000 1.0
C      1  0.5923820000000  0.4837130000000  0.4416310000000 1.0
C      1  0.5840590000000  0.4837040000000  0.5698230000000 1.0
C      1  0.4595700000000  0.4836990000000  0.6015200000000 1.0
C      1  0.3909530000000  0.5162910000000  0.4929210000000 1.0
C      1  0.4730360000000  0.5163000000000  0.3941040000000 1.0
C      1  0.5923810000000  0.5163000000000  0.4416330000000 1.0
C      1  0.5840580000000  0.5162900000000  0.5698250000000 1.0
C      1  0.4595690000000  0.5162850000000  0.6015220000000 1.0
C      1  0.4884230000000  0.5841580000000  0.4603650000000 1.0
C      1  0.5341220000000  0.5841580000000  0.4767480000000 1.0
C      1  0.5326620000000  0.5841540000000  0.5252720000000 1.0
C      1  0.4860620000000  0.5841520000000  0.5388790000000 1.0
C      1  0.4587200000000  0.5841540000000  0.4987640000000 1.0
C      1  0.4884280000000  0.4158470000000  0.4603530000000 1.0
C      1  0.5341260000000  0.4158470000000  0.4767360000000 1.0
C      1  0.5326660000000  0.4158440000000  0.5252610000000 1.0
C      1  0.4860660000000  0.4158420000000  0.5388680000000 1.0
C      1  0.4587250000000  0.4158440000000  0.4987530000000 1.0
C      1  0.4196800000000  0.4466200000000  0.5184630000000 1.0
C      1  0.4576180000000  0.4466270000000  0.4293130000000 1.0
C      1  0.5541280000000  0.4466290000000  0.4378450000000 1.0
C      1  0.5758370000000  0.4466230000000  0.5322680000000 1.0
C      1  0.4927440000000  0.4466180000000  0.5820930000000 1.0
C      1  0.4196770000000  0.5533730000000  0.5184710000000 1.0
C      1  0.4576150000000  0.5533800000000  0.4293200000000 1.0
C      1  0.5541250000000  0.5533820000000  0.4378520000000 1.0
C      1  0.5758340000000  0.5533760000000  0.5322750000000 1.0
C      1  0.4927410000000  0.5533710000000  0.5821000000000 1.0
C      1  0.4348670000000  0.4857570000000  0.5642840000000 1.0
C      1  0.4187340000000  0.4857640000000  0.4579190000000 1.0
C      1  0.5149080000000  0.4857700000000  0.4097070000000 1.0
C      1  0.5904800000000  0.4857670000000  0.4862760000000 1.0
C      1  0.5410120000000  0.4857590000000  0.5818100000000 1.0
C      1  0.4348670000000  0.5142300000000  0.5642860000000 1.0
C      1  0.4187340000000  0.5142370000000  0.4579210000000 1.0
C      1  0.5149080000000  0.5142430000000  0.4097090000000 1.0
C      1  0.5904790000000  0.5142400000000  0.4862780000000 1.0
C      1  0.5410110000000  0.5142320000000  0.5818120000000 1.0
C      1  0.4344480000000  0.4698740000000  0.5883460000000 1.0
C      1  0.3957200000000  0.4698820000000  0.4649540000000 1.0
C      1  0.5011050000000  0.4698900000000  0.3899920000000 1.0
C      1  0.6049640000000  0.4698870000000  0.4670540000000 1.0
C      1  0.5637670000000  0.4698770000000  0.5896440000000 1.0
C      1  0.4344460000000  0.5301100000000  0.5883500000000 1.0
C      1  0.3957180000000  0.5301180000000  0.4649580000000 1.0
C      1  0.5011040000000  0.5301260000000  0.3899960000000 1.0
C      1  0.6049630000000  0.5301230000000  0.4670590000000 1.0
C      1  0.5637660000000  0.5301130000000  0.5896480000000 1.0
C      1  0.4134890000000  0.4393670000000  0.4676670000000 1.0
C      1  0.5040140000000  0.4393740000000  0.4077270000000 1.0
C      1  0.5889940000000  0.4393710000000  0.4753000000000 1.0
C      1  0.5509890000000  0.4393630000000  0.5770010000000 1.0
C      1  0.4425210000000  0.4393610000000  0.5722850000000 1.0
C      1  0.4134860000000  0.5606330000000  0.4676750000000 1.0
C      1  0.5040110000000  0.5606390000000  0.4077350000000 1.0
C      1  0.5889910000000  0.5606370000000  0.4753080000000 1.0
C      1  0.5509860000000  0.5606290000000  0.5770100000000 1.0
C      1  0.4425180000000  0.5606260000000  0.5722920000000 1.0
END
