TITL C-74079-2735-69 -1023.58225346047 125000 -789.246822529956 0 0 128 (C1) n - 1
REM
REM in /home/nfs/bkarasulu/CARBON/AIRSS/Generating-Clusters/LCBOP/Higher-Symm/SD-CG/FIRE-CG
REM
REM
REM
REM
REM
REM ./C.cell (b20cbc046b6831c77cfcea5457e17084)
REM AIRSS Version 0.9.1 bugfix July 2018 build 013d7b7c2542+ Fri, 06 Jul 2018 19:26:36 +0100
REM compiler GCC version 9.2.1 20190827 (Red Hat 9.2.1-1)
REM options -cpp -mtune=generic -march=x86-64 -g -O0 -fpre-include=/usr/include/finclude/math-vector-fortran.h
REM seed -1202196737 -15167265 1581150432 -1053616700 2044376840 891915099 -739491091 325244367 -1504570665 1050825711 -1927030356 -1806027133 -1731966566 1999783393 -544890523 -703337980 -901666779 -1107261111 598618549 -511182586 1528651983 -1769983178 367311610 -1642987442 944092794 1550247586 -498139271 -1499016560 -964006470 -1185547287 701206182 -1948501003 -1664684130
REM
CELL 1.54180   50.00000   50.00000   50.00000   90.00000   90.00000   90.00000
LATT -1
SFAC C  
C      1  0.4177520000000  0.5159040000000  0.4258970000000 1.0
C      1  0.5554910000000  0.5528950000000  0.4484120000000 1.0
C      1  0.5072140000000  0.4979730000000  0.5866590000000 1.0
C      1  0.4566650000000  0.4934190000000  0.5871180000000 1.0
C      1  0.4688350000000  0.4758190000000  0.5033010000000 1.0
C      1  0.4594230000000  0.4948740000000  0.4830850000000 1.0
C      1  0.6081100000000  0.4979770000000  0.4698850000000 1.0
C      1  0.4563580000000  0.5226360000000  0.5293540000000 1.0
C      1  0.6211400000000  0.5231730000000  0.5316440000000 1.0
C      1  0.4306160000000  0.5008760000000  0.4825780000000 1.0
C      1  0.5710970000000  0.4829900000000  0.5342920000000 1.0
C      1  0.4192180000000  0.4555980000000  0.5535400000000 1.0
C      1  0.5344700000000  0.4776930000000  0.4793210000000 1.0
C      1  0.5208710000000  0.4442930000000  0.5760910000000 1.0
C      1  0.4449150000000  0.5105860000000  0.4242460000000 1.0
C      1  0.6057560000000  0.3964590000000  0.5406430000000 1.0
C      1  0.4661440000000  0.5387350000000  0.4297870000000 1.0
C      1  0.5042250000000  0.5976460000000  0.4709920000000 1.0
C      1  0.5012110000000  0.5011090000000  0.4500930000000 1.0
C      1  0.5124220000000  0.5079720000000  0.5096710000000 1.0
C      1  0.5797680000000  0.5832530000000  0.5249780000000 1.0
C      1  0.4219630000000  0.4317990000000  0.4888870000000 1.0
C      1  0.4104440000000  0.5203980000000  0.5232500000000 1.0
C      1  0.5250950000000  0.5199910000000  0.5812070000000 1.0
C      1  0.5359490000000  0.5639880000000  0.5207880000000 1.0
C      1  0.4545130000000  0.5699130000000  0.4706210000000 1.0
C      1  0.4801770000000  0.5105800000000  0.5847960000000 1.0
C      1  0.5951480000000  0.5138320000000  0.4887950000000 1.0
C      1  0.4560360000000  0.5970320000000  0.4823990000000 1.0
C      1  0.4694930000000  0.4321830000000  0.4273040000000 1.0
C      1  0.4901570000000  0.5312500000000  0.4161910000000 1.0
C      1  0.4163230000000  0.5580910000000  0.5800270000000 1.0
C      1  0.4006960000000  0.4721810000000  0.5093560000000 1.0
C      1  0.4511320000000  0.4564830000000  0.4266430000000 1.0
C      1  0.5516820000000  0.4053630000000  0.4918660000000 1.0
C      1  0.4822120000000  0.5083380000000  0.4707960000000 1.0
C      1  0.4553370000000  0.4833140000000  0.4158590000000 1.0
C      1  0.4704990000000  0.5598010000000  0.4498300000000 1.0
C      1  0.4161800000000  0.5220990000000  0.4951000000000 1.0
C      1  0.5272980000000  0.4950270000000  0.4584070000000 1.0
C      1  0.3922010000000  0.5208160000000  0.4273440000000 1.0
C      1  0.5006030000000  0.5694810000000  0.4572060000000 1.0
C      1  0.4228620000000  0.4545720000000  0.4705050000000 1.0
C      1  0.6013430000000  0.4620240000000  0.5007300000000 1.0
C      1  0.5132500000000  0.5408190000000  0.5641670000000 1.0
C      1  0.4821800000000  0.4862120000000  0.4070120000000 1.0
C      1  0.5347650000000  0.4144060000000  0.5351860000000 1.0
C      1  0.5359270000000  0.3841230000000  0.4794710000000 1.0
C      1  0.5149180000000  0.5680940000000  0.4304230000000 1.0
C      1  0.4938450000000  0.5271610000000  0.4925520000000 1.0
C      1  0.5067430000000  0.4224540000000  0.5873970000000 1.0
C      1  0.5874350000000  0.5614430000000  0.4825810000000 1.0
C      1  0.5270590000000  0.5435430000000  0.5390100000000 1.0
C      1  0.5565660000000  0.5185370000000  0.4136310000000 1.0
C      1  0.5352910000000  0.4362860000000  0.5531000000000 1.0
C      1  0.5899180000000  0.4856700000000  0.4291640000000 1.0
C      1  0.4538500000000  0.4417570000000  0.5869670000000 1.0
C      1  0.4693610000000  0.5840600000000  0.5520910000000 1.0
C      1  0.3608390000000  0.5731510000000  0.6342890000000 1.0
C      1  0.5887510000000  0.4627720000000  0.4484240000000 1.0
C      1  0.5107620000000  0.4231360000000  0.4749780000000 1.0
C      1  0.5476770000000  0.4537620000000  0.4720390000000 1.0
C      1  0.4493950000000  0.5533550000000  0.4938640000000 1.0
C      1  0.4650500000000  0.6017350000000  0.5302930000000 1.0
C      1  0.4621870000000  0.4213200000000  0.5681830000000 1.0
C      1  0.4438980000000  0.5963880000000  0.5103920000000 1.0
C      1  0.5821150000000  0.4004080000000  0.5304140000000 1.0
C      1  0.4024510000000  0.4931660000000  0.5310360000000 1.0
C      1  0.5974920000000  0.5337790000000  0.4400570000000 1.0
C      1  0.4855760000000  0.4087610000000  0.5775500000000 1.0
C      1  0.4824380000000  0.6081380000000  0.4857340000000 1.0
C      1  0.4975590000000  0.4374420000000  0.4205250000000 1.0
C      1  0.4357920000000  0.5506210000000  0.5617030000000 1.0
C      1  0.5322410000000  0.5175350000000  0.5274140000000 1.0
C      1  0.4462340000000  0.4150410000000  0.4879010000000 1.0
C      1  0.4307640000000  0.5342650000000  0.5390300000000 1.0
C      1  0.4704600000000  0.4521330000000  0.4660300000000 1.0
C      1  0.5589910000000  0.5586510000000  0.4759030000000 1.0
C      1  0.4855060000000  0.6142230000000  0.5140420000000 1.0
C      1  0.5215050000000  0.4511200000000  0.4180700000000 1.0
C      1  0.5130590000000  0.5469180000000  0.4116060000000 1.0
C      1  0.5100200000000  0.5500230000000  0.4802360000000 1.0
C      1  0.4964750000000  0.5044520000000  0.4223940000000 1.0
C      1  0.6138810000000  0.5476460000000  0.5228800000000 1.0
C      1  0.5706260000000  0.5366910000000  0.4310590000000 1.0
C      1  0.4570220000000  0.4667230000000  0.5970340000000 1.0
C      1  0.5573010000000  0.4063690000000  0.5195280000000 1.0
C      1  0.4556180000000  0.4971770000000  0.5415320000000 1.0
C      1  0.6026280000000  0.4694870000000  0.4732670000000 1.0
C      1  0.5735290000000  0.5176620000000  0.5037670000000 1.0
C      1  0.5354540000000  0.5562460000000  0.4923650000000 1.0
C      1  0.4679730000000  0.5357370000000  0.5069630000000 1.0
C      1  0.4137500000000  0.4834180000000  0.5561830000000 1.0
C      1  0.4135120000000  0.4780910000000  0.4833730000000 1.0
C      1  0.6044740000000  0.5529570000000  0.4607000000000 1.0
C      1  0.5436580000000  0.6076380000000  0.5031120000000 1.0
C      1  0.4838060000000  0.5386430000000  0.5715340000000 1.0
C      1  0.5349920000000  0.5319940000000  0.4010720000000 1.0
C      1  0.5581920000000  0.5063930000000  0.5244380000000 1.0
C      1  0.4926590000000  0.4434590000000  0.4805380000000 1.0
C      1  0.4606610000000  0.4110110000000  0.5147430000000 1.0
C      1  0.3976470000000  0.5634630000000  0.5980190000000 1.0
C      1  0.4450110000000  0.4572160000000  0.4544140000000 1.0
C      1  0.4387530000000  0.4959050000000  0.5651200000000 1.0
C      1  0.4944260000000  0.4636190000000  0.5005440000000 1.0
C      1  0.5293890000000  0.6074010000000  0.4800740000000 1.0
C      1  0.5465790000000  0.4648220000000  0.4238390000000 1.0
C      1  0.5118060000000  0.3945380000000  0.4702170000000 1.0
C      1  0.3790650000000  0.5683960000000  0.6162650000000 1.0
C      1  0.5151340000000  0.4710230000000  0.5837400000000 1.0
C      1  0.5101340000000  0.4018840000000  0.5286640000000 1.0
C      1  0.4540350000000  0.4246920000000  0.5401340000000 1.0
C      1  0.6171220000000  0.4964270000000  0.5327870000000 1.0
C      1  0.4861980000000  0.3987360000000  0.5168900000000 1.0
C      1  0.5519600000000  0.5879440000000  0.5220110000000 1.0
C      1  0.4031940000000  0.4422270000000  0.5094910000000 1.0
C      1  0.4564900000000  0.4729340000000  0.5276540000000 1.0
C      1  0.4587140000000  0.4119110000000  0.4549220000000 1.0
C      1  0.5614970000000  0.4542910000000  0.4474460000000 1.0
C      1  0.5164550000000  0.4808150000000  0.5010740000000 1.0
C      1  0.5387560000000  0.4292500000000  0.4812430000000 1.0
C      1  0.4637390000000  0.5586780000000  0.5642630000000 1.0
C      1  0.4325530000000  0.5701890000000  0.5106070000000 1.0
C      1  0.4423460000000  0.4501710000000  0.5375250000000 1.0
C      1  0.5629500000000  0.4901140000000  0.4167910000000 1.0
C      1  0.6050120000000  0.5066510000000  0.4425430000000 1.0
C      1  0.5978310000000  0.4765160000000  0.5254340000000 1.0
C      1  0.5960770000000  0.5655520000000  0.5098430000000 1.0
END
