TITL C-74080-5790-397 4.46934220419083e-08 125000 -31.1856428631267 0 0 6 (D(inf)h) n - 1
REM
REM in /home/nfs/bkarasulu/CARBON/AIRSS/Generating-Clusters/LCBOP/Higher-Symm/SD-CG/FIRE-CG
REM
REM
REM
REM
REM
REM ./C.cell (b20cbc046b6831c77cfcea5457e17084)
REM AIRSS Version 0.9.1 bugfix July 2018 build 013d7b7c2542+ Fri, 06 Jul 2018 19:26:36 +0100
REM compiler GCC version 9.2.1 20190827 (Red Hat 9.2.1-1)
REM options -cpp -mtune=generic -march=x86-64 -g -O0 -fpre-include=/usr/include/finclude/math-vector-fortran.h
REM seed -2021981543 817771332 117327770 -1549167282 -1730022139 1100989889 1856540774 -2117644482 323393465 1454336192 -693996595 1970001396 -302640969 -195668420 -188216004 -1802740485 -1715816617 1535429721 885745185 371306273 -1942436589 1689682993 -624677640 1390328834 -1443219542 -2090760062 1145210584 855870812 1401548822 1086123545 159322329 -344446085 -851702502
REM
CELL 1.54180   50.00000   50.00000   50.00000   90.00000   90.00000   90.00000
LATT -1
SFAC C  
C      1  0.5397560000000  0.4991460000000  0.4993250000000 1.0
C      1  0.5658260000000  0.4991460000000  0.4993250000000 1.0
C      1  0.4341740000000  0.4991460000000  0.4993250000000 1.0
C      1  0.4867500000000  0.4991460000000  0.4993250000000 1.0
C      1  0.5132500000000  0.4991460000000  0.4993250000000 1.0
C      1  0.4602440000000  0.4991460000000  0.4993250000000 1.0
END
