TITL C-74081-2727-191 -1.14090658579107e-07 125000 -184.419271326772 0 0 34 (C3v) n - 1
REM
REM in /home/nfs/bkarasulu/CARBON/AIRSS/Generating-Clusters/LCBOP/Higher-Symm/SD-CG/FIRE-CG
REM
REM
REM
REM
REM
REM ./C.cell (b20cbc046b6831c77cfcea5457e17084)
REM AIRSS Version 0.9.1 bugfix July 2018 build 013d7b7c2542+ Fri, 06 Jul 2018 19:26:36 +0100
REM compiler GCC version 9.2.1 20190827 (Red Hat 9.2.1-1)
REM options -cpp -mtune=generic -march=x86-64 -g -O0 -fpre-include=/usr/include/finclude/math-vector-fortran.h
REM seed 1071793154 2012161789 1309130856 601800838 2014134963 143001404 -805577345 961165474 941492378 -688417493 323777580 74635357 759501506 764176955 809453001 1378151003 -355097577 -482558209 458468430 -1764112392 -817421734 637104217 -1188602103 -1042671564 1899518618 461134418 -2138890748 -1995314395 1020245699 -2020319653 -1874986930 769541212 333876188
REM
CELL 1.54180   50.00000   50.00000   50.00000   90.00000   90.00000   90.00000
LATT -1
SFAC C  
C      1  0.4486820000000  0.5312580000000  0.5291260000000 1.0
C      1  0.4997930000000  0.5312570000000  0.4418200000000 1.0
C      1  0.5498470000000  0.5312690000000  0.5297370000000 1.0
C      1  0.4486870000000  0.5312540000000  0.4713200000000 1.0
C      1  0.4997830000000  0.5312650000000  0.5586350000000 1.0
C      1  0.5498520000000  0.5312650000000  0.4707280000000 1.0
C      1  0.5225460000000  0.5016700000000  0.4870330000000 1.0
C      1  0.4993220000000  0.5016700000000  0.5268350000000 1.0
C      1  0.4764640000000  0.5016650000000  0.4868210000000 1.0
C      1  0.5225430000000  0.5016720000000  0.5134310000000 1.0
C      1  0.4993270000000  0.5016670000000  0.4736240000000 1.0
C      1  0.4764610000000  0.5016670000000  0.5136340000000 1.0
C      1  0.4515070000000  0.5016450000000  0.5270640000000 1.0
C      1  0.5001730000000  0.5016440000000  0.4452990000000 1.0
C      1  0.5466510000000  0.5016550000000  0.5283270000000 1.0
C      1  0.4515120000000  0.5016410000000  0.4733870000000 1.0
C      1  0.5001630000000  0.5016520000000  0.5551610000000 1.0
C      1  0.5466560000000  0.5016510000000  0.4721410000000 1.0
C      1  0.5469010000000  0.4723370000000  0.4662460000000 1.0
C      1  0.5051530000000  0.4723390000000  0.5583210000000 1.0
C      1  0.4462870000000  0.4723270000000  0.4761290000000 1.0
C      1  0.5468940000000  0.4723420000000  0.5342270000000 1.0
C      1  0.5051640000000  0.4723310000000  0.4421440000000 1.0
C      1  0.4462830000000  0.4723300000000  0.5243250000000 1.0
C      1  0.4994550000000  0.5470820000000  0.4689190000000 1.0
C      1  0.5265450000000  0.5470880000000  0.5158940000000 1.0
C      1  0.4723180000000  0.5470830000000  0.5158670000000 1.0
C      1  0.4994490000000  0.5470870000000  0.5315350000000 1.0
C      1  0.5265470000000  0.5470860000000  0.4845640000000 1.0
C      1  0.4723200000000  0.5470800000000  0.4845820000000 1.0
C      1  0.5177470000000  0.4600350000000  0.5319340000000 1.0
C      1  0.4628450000000  0.4600270000000  0.5002300000000 1.0
C      1  0.5177530000000  0.4600300000000  0.4685350000000 1.0
C      1  0.4994490000000  0.4566580000000  0.5002330000000 1.0
END
