TITL C-74079-2735-403 160604.930338958 125000 -1209.66829488169 0 0 195 (C1) n - 1
REM
REM in /home/nfs/bkarasulu/CARBON/AIRSS/Generating-Clusters/LCBOP/Higher-Symm/SD-CG/FIRE-CG
REM
REM
REM
REM
REM
REM ./C.cell (b20cbc046b6831c77cfcea5457e17084)
REM AIRSS Version 0.9.1 bugfix July 2018 build 013d7b7c2542+ Fri, 06 Jul 2018 19:26:36 +0100
REM compiler GCC version 9.2.1 20190827 (Red Hat 9.2.1-1)
REM options -cpp -mtune=generic -march=x86-64 -g -O0 -fpre-include=/usr/include/finclude/math-vector-fortran.h
REM seed 1801993806 849022173 1761873407 1029362224 985302807 -948500552 -840438464 -751006049 -1697905981 1299494538 126454636 -975449766 753609530 -2071333241 859569973 -1545671007 -607899398 1116887640 1070159522 1835557412 -1515755645 -831135830 525481225 -1400354488 -1417659075 1373021620 -828474038 -1808314459 746579370 -56201503 -1944521134 1692463568 -133327459
REM
CELL 1.54180   50.00000   50.00000   50.00000   90.00000   90.00000   90.00000
LATT -1
SFAC C  
C      1  0.5137950000000  0.4704140000000  0.4459980000000 1.0
C      1  0.4084820000000  0.5113110000000  0.4042150000000 1.0
C      1  0.4978660000000  0.6247030000000  0.5501410000000 1.0
C      1  0.6177660000000  0.4893450000000  0.4893650000000 1.0
C      1  0.5729980000000  0.5161320000000  0.5878310000000 1.0
C      1  0.5016450000000  0.5430610000000  0.5942720000000 1.0
C      1  0.5443320000000  0.5058880000000  0.4541370000000 1.0
C      1  0.5530750000000  0.4732890000000  0.5577920000000 1.0
C      1  0.4501610000000  0.4864870000000  0.5983530000000 1.0
C      1  0.6010570000000  0.5065100000000  0.5485270000000 1.0
C      1  0.5119080000000  0.3956510000000  0.5618300000000 1.0
C      1  0.3923630000000  0.5556890000000  0.5390210000000 1.0
C      1  0.4567750000000  0.5156500000000  0.5922560000000 1.0
C      1  0.5229850000000  0.4902610000000  0.4633200000000 1.0
C      1  0.4652910000000  0.4563790000000  0.4766110000000 1.0
C      1  0.5967840000000  0.4998890000000  0.4464650000000 1.0
C      1  0.5071040000000  0.3814560000000  0.4763490000000 1.0
C      1  0.4262830000000  0.4506360000000  0.4336950000000 1.0
C      1  0.4034040000000  0.4141940000000  0.4952630000000 1.0
C      1  0.4985820000000  0.5440260000000  0.5654340000000 1.0
C      1  0.5138560000000  0.4283700000000  0.4246060000000 1.0
C      1  0.3711410000000  0.4706230000000  0.4573470000000 1.0
C      1  0.5523430000000  0.6009890000000  0.5553790000000 1.0
C      1  0.5359580000000  0.5278190000000  0.4389240000000 1.0
C      1  0.5313370000000  0.6250490000000  0.4205330000000 1.0
C      1  0.5140670000000  0.4519100000000  0.5328110000000 1.0
C      1  0.5393050000000  0.5738780000000  0.5974140000000 1.0
C      1  0.4302460000000  0.4722320000000  0.5795560000000 1.0
C      1  0.5342710000000  0.5578510000000  0.3985940000000 1.0
C      1  0.4976130000000  0.5059460000000  0.5092640000000 1.0
C      1  0.5525560000000  0.4700610000000  0.3951100000000 1.0
C      1  0.5253370000000  0.4085840000000  0.5156310000000 1.0
C      1  0.5020030000000  0.4731890000000  0.3749670000000 1.0
C      1  0.5539230000000  0.4018400000000  0.4782880000000 1.0
C      1  0.4821660000000  0.4520300000000  0.5689480000000 1.0
C      1  0.5796180000000  0.4237230000000  0.5405740000000 1.0
C      1  0.4715320000000  0.4607990000000  0.5031990000000 1.0
C      1  0.4744150000000  0.5367350000000  0.6053390000000 1.0
C      1  0.5426990000000  0.5957900000000  0.5816590000000 1.0
C      1  0.4362220000000  0.4299570000000  0.4168680000000 1.0
C      1  0.4399880000000  0.3979620000000  0.5336600000000 1.0
C      1  0.5139420000000  0.6169030000000  0.5282470000000 1.0
C      1  0.4618960000000  0.5446970000000  0.4922010000000 1.0
C      1  0.4676260000000  0.5560070000000  0.4126200000000 1.0
C      1  0.5943910000000  0.5228080000000  0.4283540000000 1.0
C      1  0.3989680000000  0.5620830000000  0.4469770000000 1.0
C      1  0.5278080000000  0.4642210000000  0.3797190000000 1.0
C      1  0.4458650000000  0.5655080000000  0.4316890000000 1.0
C      1  0.4694000000000  0.5047410000000  0.5200290000000 1.0
C      1  0.4779690000000  0.4785250000000  0.3908290000000 1.0
C      1  0.4651820000000  0.3840980000000  0.5233740000000 1.0
C      1  0.5607760000000  0.4211830000000  0.4057590000000 1.0
C      1  0.4754440000000  0.4752190000000  0.5592400000000 1.0
C      1  0.4185640000000  0.5574120000000  0.4272740000000 1.0
C      1  0.6101470000000  0.5781410000000  0.4800770000000 1.0
C      1  0.3827090000000  0.5396350000000  0.4922070000000 1.0
C      1  0.4519610000000  0.5801020000000  0.4577290000000 1.0
C      1  0.6061940000000  0.5987520000000  0.4970180000000 1.0
C      1  0.5693560000000  0.4950290000000  0.4530720000000 1.0
C      1  0.4276500000000  0.4073600000000  0.5082100000000 1.0
C      1  0.4694300000000  0.5855570000000  0.6096410000000 1.0
C      1  0.4654830000000  0.6252570000000  0.4439320000000 1.0
C      1  0.4924340000000  0.5718820000000  0.4198510000000 1.0
C      1  0.5672470000000  0.5788020000000  0.5462180000000 1.0
C      1  0.4123110000000  0.5511230000000  0.6378060000000 1.0
C      1  0.5487970000000  0.4211820000000  0.5021640000000 1.0
C      1  0.4511210000000  0.4145710000000  0.4920740000000 1.0
C      1  0.5930130000000  0.5503680000000  0.4403880000000 1.0
C      1  0.5787780000000  0.5210900000000  0.5599770000000 1.0
C      1  0.5491080000000  0.5236120000000  0.6033090000000 1.0
C      1  0.4420060000000  0.4143370000000  0.5584130000000 1.0
C      1  0.5915090000000  0.4332720000000  0.4776120000000 1.0
C      1  0.4885880000000  0.3980490000000  0.5746310000000 1.0
C      1  0.5688330000000  0.4208300000000  0.4621220000000 1.0
C      1  0.5082370000000  0.5261890000000  0.4344270000000 1.0
C      1  0.6255230000000  0.4780430000000  0.5139450000000 1.0
C      1  0.4702500000000  0.4723240000000  0.6138720000000 1.0
C      1  0.4301920000000  0.4411670000000  0.5607950000000 1.0
C      1  0.5477740000000  0.4712840000000  0.6185680000000 1.0
C      1  0.4699830000000  0.4774430000000  0.4588580000000 1.0
C      1  0.5885610000000  0.6144320000000  0.5102120000000 1.0
C      1  0.4856460000000  0.6075570000000  0.4846660000000 1.0
C      1  0.5692590000000  0.5640460000000  0.4306500000000 1.0
C      1  0.4594150000000  0.5015800000000  0.3961130000000 1.0
C      1  0.5426790000000  0.6165030000000  0.5326490000000 1.0
C      1  0.5340600000000  0.5980700000000  0.4235400000000 1.0
C      1  0.6044020000000  0.5133510000000  0.4948610000000 1.0
C      1  0.5525900000000  0.5646040000000  0.4859880000000 1.0
C      1  0.5849870000000  0.4915460000000  0.5975270000000 1.0
C      1  0.4296500000000  0.4968120000000  0.4541690000000 1.0
C      1  0.4118590000000  0.5391300000000  0.4068670000000 1.0
C      1  0.3813630000000  0.4570410000000  0.4801530000000 1.0
C      1  0.5521490000000  0.5428680000000  0.4176300000000 1.0
C      1  0.4940550000000  0.4513760000000  0.5157660000000 1.0
C      1  0.5901440000000  0.4406340000000  0.5620750000000 1.0
C      1  0.5791830000000  0.4185750000000  0.6041760000000 1.0
C      1  0.5032970000000  0.6008060000000  0.5065130000000 1.0
C      1  0.4778640000000  0.6063720000000  0.5951170000000 1.0
C      1  0.3852000000000  0.5547380000000  0.4686190000000 1.0
C      1  0.5603800000000  0.6184950000000  0.5094730000000 1.0
C      1  0.4781850000000  0.3598410000000  0.5144890000000 1.0
C      1  0.4610420000000  0.5595380000000  0.6168920000000 1.0
C      1  0.4679980000000  0.6044780000000  0.4617480000000 1.0
C      1  0.5077700000000  0.4977840000000  0.4850990000000 1.0
C      1  0.5179020000000  0.5789430000000  0.4089700000000 1.0
C      1  0.5801000000000  0.4420670000000  0.5897180000000 1.0
C      1  0.5353020000000  0.3847600000000  0.4646290000000 1.0
C      1  0.5534730000000  0.4744320000000  0.4985440000000 1.0
C      1  0.5497530000000  0.6125720000000  0.4836320000000 1.0
C      1  0.5375420000000  0.4996280000000  0.6150030000000 1.0
C      1  0.5481720000000  0.4418710000000  0.4597500000000 1.0
C      1  0.4850660000000  0.5656050000000  0.5540340000000 1.0
C      1  0.5687790000000  0.4488450000000  0.4090640000000 1.0
C      1  0.4920320000000  0.4348370000000  0.4098930000000 1.0
C      1  0.4117230000000  0.4903170000000  0.5646460000000 1.0
C      1  0.4870440000000  0.4720740000000  0.4379020000000 1.0
C      1  0.4326110000000  0.4952670000000  0.4063810000000 1.0
C      1  0.4302490000000  0.4741480000000  0.5263120000000 1.0
C      1  0.4871600000000  0.6205130000000  0.5743500000000 1.0
C      1  0.5525080000000  0.4993850000000  0.3976320000000 1.0
C      1  0.4961890000000  0.3571160000000  0.4933590000000 1.0
C      1  0.5437450000000  0.5127420000000  0.5270960000000 1.0
C      1  0.5335660000000  0.4588160000000  0.5490050000000 1.0
C      1  0.4463490000000  0.5898760000000  0.5286920000000 1.0
C      1  0.5802220000000  0.4267630000000  0.5103150000000 1.0
C      1  0.3816920000000  0.4669100000000  0.5073500000000 1.0
C      1  0.3998080000000  0.4353050000000  0.4759360000000 1.0
C      1  0.5249320000000  0.5104690000000  0.3932380000000 1.0
C      1  0.4183950000000  0.4498040000000  0.5363780000000 1.0
C      1  0.5740530000000  0.5465070000000  0.4834810000000 1.0
C      1  0.5019080000000  0.5164130000000  0.5550670000000 1.0
C      1  0.5115540000000  0.4944160000000  0.6037960000000 1.0
C      1  0.5582210000000  0.5018180000000  0.5053370000000 1.0
C      1  0.5302780000000  0.5469230000000  0.6014550000000 1.0
C      1  0.5711970000000  0.5195120000000  0.4085600000000 1.0
C      1  0.4166650000000  0.5490060000000  0.5476710000000 1.0
C      1  0.4690540000000  0.5270930000000  0.4683040000000 1.0
C      1  0.5409920000000  0.3831810000000  0.4364470000000 1.0
C      1  0.4986150000000  0.4716940000000  0.6159710000000 1.0
C      1  0.4895540000000  0.5552800000000  0.5016680000000 1.0
C      1  0.4650990000000  0.5812960000000  0.5457280000000 1.0
C      1  0.4505460000000  0.4074680000000  0.4218370000000 1.0
C      1  0.4525560000000  0.5295980000000  0.5168050000000 1.0
C      1  0.5588480000000  0.4055270000000  0.5491670000000 1.0
C      1  0.4565280000000  0.5023530000000  0.4618050000000 1.0
C      1  0.4359820000000  0.5843010000000  0.5045340000000 1.0
C      1  0.5270770000000  0.4459490000000  0.4423120000000 1.0
C      1  0.4088170000000  0.5053660000000  0.4704090000000 1.0
C      1  0.4752310000000  0.4049210000000  0.5043300000000 1.0
C      1  0.5894380000000  0.4517920000000  0.4298350000000 1.0
C      1  0.3847730000000  0.4988460000000  0.4145740000000 1.0
C      1  0.4452720000000  0.5680720000000  0.4832950000000 1.0
C      1  0.3928320000000  0.5129590000000  0.4923480000000 1.0
C      1  0.4747110000000  0.5033770000000  0.5502330000000 1.0
C      1  0.4288680000000  0.4793170000000  0.4306300000000 1.0
C      1  0.3779020000000  0.5521190000000  0.5168230000000 1.0
C      1  0.6017200000000  0.4532990000000  0.4573680000000 1.0
C      1  0.4100310000000  0.4937710000000  0.5355890000000 1.0
C      1  0.5444390000000  0.4493510000000  0.4883000000000 1.0
C      1  0.5721730000000  0.4665730000000  0.6035800000000 1.0
C      1  0.5519470000000  0.3977630000000  0.4162680000000 1.0
C      1  0.4537740000000  0.5203650000000  0.5637440000000 1.0
C      1  0.5225510000000  0.4563570000000  0.6238720000000 1.0
C      1  0.3904330000000  0.4942080000000  0.5138400000000 1.0
C      1  0.6097460000000  0.4594020000000  0.5550520000000 1.0
C      1  0.5774800000000  0.5206640000000  0.4945090000000 1.0
C      1  0.4478470000000  0.4349790000000  0.4731970000000 1.0
C      1  0.6141430000000  0.4824480000000  0.5398250000000 1.0
C      1  0.4737320000000  0.5273130000000  0.4019610000000 1.0
C      1  0.4677200000000  0.3925320000000  0.4362370000000 1.0
C      1  0.3912490000000  0.4479120000000  0.5272720000000 1.0
C      1  0.4943670000000  0.5657700000000  0.4482810000000 1.0
C      1  0.4865600000000  0.3846890000000  0.4536910000000 1.0
C      1  0.4403690000000  0.5351990000000  0.5429700000000 1.0
C      1  0.4230440000000  0.4405340000000  0.4602920000000 1.0
C      1  0.6114730000000  0.4800130000000  0.4629690000000 1.0
C      1  0.5509440000000  0.5881440000000  0.4693330000000 1.0
C      1  0.5965710000000  0.5564870000000  0.4680330000000 1.0
C      1  0.5586390000000  0.5313680000000  0.5423790000000 1.0
C      1  0.5018770000000  0.5205580000000  0.4074380000000 1.0
C      1  0.5314670000000  0.4012530000000  0.5426230000000 1.0
C      1  0.5536970000000  0.5860000000000  0.4410640000000 1.0
C      1  0.4909530000000  0.5378530000000  0.4533960000000 1.0
C      1  0.4803720000000  0.4604900000000  0.4130970000000 1.0
C      1  0.4550370000000  0.4796590000000  0.5152840000000 1.0
C      1  0.4376750000000  0.5558400000000  0.6317030000000 1.0
C      1  0.5541440000000  0.5577500000000  0.5335180000000 1.0
C      1  0.5115460000000  0.4993870000000  0.5766860000000 1.0
C      1  0.3867850000000  0.5459630000000  0.6389700000000 1.0
C      1  0.5377590000000  0.5640050000000  0.5102800000000 1.0
C      1  0.5105470000000  0.5727450000000  0.5078350000000 1.0
C      1  0.3729260000000  0.4845550000000  0.4342620000000 1.0
C      1  0.5160470000000  0.5127070000000  0.5296310000000 1.0
C      1  0.5029710000000  0.4028960000000  0.4981420000000 1.0
C      1  0.4629060000000  0.4057380000000  0.5754920000000 1.0
END
