TITL C-74079-2735-114 -8.30416180237077e-07 125000 -1055.68395757298 0 0 171 (C1) n - 1
REM
REM in /home/nfs/bkarasulu/CARBON/AIRSS/Generating-Clusters/LCBOP/Higher-Symm/SD-CG/FIRE-CG
REM
REM
REM
REM
REM
REM ./C.cell (b20cbc046b6831c77cfcea5457e17084)
REM AIRSS Version 0.9.1 bugfix July 2018 build 013d7b7c2542+ Fri, 06 Jul 2018 19:26:36 +0100
REM compiler GCC version 9.2.1 20190827 (Red Hat 9.2.1-1)
REM options -cpp -mtune=generic -march=x86-64 -g -O0 -fpre-include=/usr/include/finclude/math-vector-fortran.h
REM seed -118092009 203001370 -1342360319 -1655185679 -397101848 1898217544 1459600684 227314207 1685837948 -524868471 3947264 -1800059030 -593447325 -620059315 1923213046 2001990157 532660763 -845367721 -1502144567 -2122252266 -1239305886 -1121183003 1367639226 -734898520 450575809 -2075574808 -1853320791 -1367978011 -629218437 891829826 -1924068846 -538327521 817457728
REM
CELL 1.54180   50.00000   50.00000   50.00000   90.00000   90.00000   90.00000
LATT -1
SFAC C  
C      1  0.5458050000000  0.5430340000000  0.4179450000000 1.0
C      1  0.5446810000000  0.4206480000000  0.4547820000000 1.0
C      1  0.5415660000000  0.4569970000000  0.5726460000000 1.0
C      1  0.5440560000000  0.5728890000000  0.5392920000000 1.0
C      1  0.4531430000000  0.5406240000000  0.4192500000000 1.0
C      1  0.4556840000000  0.4167280000000  0.4562570000000 1.0
C      1  0.4591110000000  0.4558060000000  0.5773810000000 1.0
C      1  0.4557350000000  0.5762030000000  0.5409560000000 1.0
C      1  0.5290690000000  0.5800750000000  0.5906650000000 1.0
C      1  0.5300120000000  0.5928940000000  0.4202360000000 1.0
C      1  0.5293600000000  0.4155730000000  0.4039090000000 1.0
C      1  0.5279010000000  0.4035750000000  0.5780830000000 1.0
C      1  0.4722410000000  0.5820720000000  0.5925210000000 1.0
C      1  0.4710530000000  0.5910590000000  0.4230930000000 1.0
C      1  0.4715980000000  0.4145290000000  0.4051760000000 1.0
C      1  0.4707740000000  0.4019480000000  0.5811160000000 1.0
C      1  0.5286030000000  0.5506270000000  0.5329760000000 1.0
C      1  0.5311850000000  0.5390450000000  0.4415790000000 1.0
C      1  0.5294370000000  0.4434630000000  0.4604260000000 1.0
C      1  0.5309150000000  0.4690640000000  0.5498980000000 1.0
C      1  0.4736300000000  0.5566880000000  0.5332490000000 1.0
C      1  0.4673360000000  0.5292210000000  0.4436360000000 1.0
C      1  0.4731990000000  0.4376230000000  0.4648620000000 1.0
C      1  0.4761170000000  0.4678770000000  0.5587550000000 1.0
C      1  0.4265990000000  0.5289440000000  0.4184550000000 1.0
C      1  0.4298370000000  0.4190110000000  0.4683980000000 1.0
C      1  0.4321420000000  0.4663710000000  0.5780410000000 1.0
C      1  0.4281550000000  0.5717550000000  0.5335150000000 1.0
C      1  0.5714390000000  0.5298990000000  0.4183180000000 1.0
C      1  0.5711150000000  0.4212950000000  0.4664610000000 1.0
C      1  0.5692610000000  0.4643590000000  0.5774070000000 1.0
C      1  0.5718470000000  0.5707020000000  0.5312510000000 1.0
C      1  0.5428260000000  0.4911560000000  0.6106250000000 1.0
C      1  0.5565540000000  0.6085360000000  0.5057280000000 1.0
C      1  0.5397420000000  0.5027900000000  0.3913190000000 1.0
C      1  0.5424230000000  0.3918170000000  0.4947740000000 1.0
C      1  0.4590260000000  0.4911470000000  0.6119910000000 1.0
C      1  0.4425080000000  0.6093230000000  0.5070930000000 1.0
C      1  0.4608690000000  0.5006580000000  0.3941230000000 1.0
C      1  0.4617280000000  0.3931570000000  0.4983510000000 1.0
C      1  0.5064950000000  0.4988770000000  0.5806050000000 1.0
C      1  0.5129710000000  0.6320660000000  0.5157480000000 1.0
C      1  0.5171670000000  0.5144880000000  0.4415330000000 1.0
C      1  0.5161000000000  0.4408320000000  0.4850510000000 1.0
C      1  0.4826550000000  0.4938480000000  0.5665860000000 1.0
C      1  0.4862150000000  0.6332780000000  0.5160920000000 1.0
C      1  0.4919690000000  0.5156330000000  0.4297220000000 1.0
C      1  0.4923070000000  0.4273320000000  0.4829930000000 1.0
C      1  0.4851800000000  0.4221230000000  0.5964530000000 1.0
C      1  0.4853960000000  0.5968190000000  0.5702390000000 1.0
C      1  0.4856360000000  0.5726240000000  0.4051360000000 1.0
C      1  0.4865660000000  0.3990540000000  0.4253870000000 1.0
C      1  0.5136250000000  0.4243230000000  0.5927350000000 1.0
C      1  0.5150810000000  0.5949520000000  0.5689300000000 1.0
C      1  0.5147670000000  0.5739610000000  0.4029160000000 1.0
C      1  0.5155900000000  0.3997970000000  0.4246740000000 1.0
C      1  0.4271310000000  0.5698420000000  0.4519210000000 1.0
C      1  0.4298920000000  0.4471910000000  0.4240930000000 1.0
C      1  0.4310750000000  0.4239410000000  0.5489590000000 1.0
C      1  0.4311660000000  0.5461610000000  0.5782310000000 1.0
C      1  0.5739440000000  0.5719160000000  0.4496040000000 1.0
C      1  0.5706190000000  0.4489900000000  0.4223480000000 1.0
C      1  0.5698090000000  0.4227440000000  0.5471120000000 1.0
C      1  0.5697030000000  0.5439520000000  0.5750830000000 1.0
C      1  0.5288480000000  0.5574130000000  0.4618220000000 1.0
C      1  0.5265180000000  0.4660220000000  0.4448740000000 1.0
C      1  0.5141950000000  0.4562770000000  0.5311160000000 1.0
C      1  0.5132850000000  0.5363400000000  0.5514230000000 1.0
C      1  0.4765930000000  0.5509910000000  0.4609900000000 1.0
C      1  0.4758080000000  0.4600760000000  0.4497890000000 1.0
C      1  0.4855620000000  0.4576830000000  0.5341850000000 1.0
C      1  0.4850760000000  0.5382550000000  0.5505650000000 1.0
C      1  0.4886040000000  0.5572990000000  0.4855300000000 1.0
C      1  0.4629100000000  0.4819700000000  0.4441000000000 1.0
C      1  0.4653220000000  0.4564030000000  0.5145800000000 1.0
C      1  0.4690080000000  0.5155540000000  0.5561360000000 1.0
C      1  0.5167130000000  0.5555350000000  0.4865430000000 1.0
C      1  0.5332640000000  0.4925680000000  0.4480130000000 1.0
C      1  0.5288850000000  0.4495100000000  0.5079190000000 1.0
C      1  0.5242720000000  0.5134200000000  0.5636380000000 1.0
C      1  0.6071750000000  0.5349290000000  0.5492120000000 1.0
C      1  0.6075370000000  0.5401080000000  0.4562710000000 1.0
C      1  0.6061410000000  0.4590400000000  0.4506500000000 1.0
C      1  0.6067390000000  0.4499770000000  0.5416950000000 1.0
C      1  0.3928520000000  0.5371710000000  0.5536600000000 1.0
C      1  0.3914300000000  0.5403010000000  0.4575160000000 1.0
C      1  0.3939220000000  0.4562250000000  0.4520770000000 1.0
C      1  0.3958890000000  0.4528910000000  0.5408880000000 1.0
C      1  0.5669620000000  0.4907530000000  0.5925000000000 1.0
C      1  0.5736660000000  0.5849240000000  0.5047370000000 1.0
C      1  0.5656110000000  0.5024110000000  0.4068120000000 1.0
C      1  0.5670750000000  0.4089940000000  0.4940160000000 1.0
C      1  0.4351030000000  0.4924030000000  0.5937340000000 1.0
C      1  0.4262700000000  0.5848570000000  0.5063340000000 1.0
C      1  0.4329790000000  0.5007750000000  0.4074150000000 1.0
C      1  0.4353640000000  0.4087610000000  0.4965830000000 1.0
C      1  0.5507800000000  0.5617180000000  0.5870880000000 1.0
C      1  0.5550150000000  0.5874040000000  0.4339540000000 1.0
C      1  0.5523390000000  0.4319630000000  0.4084560000000 1.0
C      1  0.5505550000000  0.4084370000000  0.5619700000000 1.0
C      1  0.4503170000000  0.5639590000000  0.5896310000000 1.0
C      1  0.4468050000000  0.5849860000000  0.4373440000000 1.0
C      1  0.4484720000000  0.4304510000000  0.4103330000000 1.0
C      1  0.4484520000000  0.4083150000000  0.5649040000000 1.0
C      1  0.5322790000000  0.5427870000000  0.5063270000000 1.0
C      1  0.5572740000000  0.4981780000000  0.4615540000000 1.0
C      1  0.5552320000000  0.4604460000000  0.5055230000000 1.0
C      1  0.5395490000000  0.4962170000000  0.5474070000000 1.0
C      1  0.4727930000000  0.5492530000000  0.5068010000000 1.0
C      1  0.4512050000000  0.5055720000000  0.4534250000000 1.0
C      1  0.4427410000000  0.4668070000000  0.5042130000000 1.0
C      1  0.4443120000000  0.5111900000000  0.5432370000000 1.0
C      1  0.4877890000000  0.5194330000000  0.3981140000000 1.0
C      1  0.4892160000000  0.3955650000000  0.4806110000000 1.0
C      1  0.4827110000000  0.4723150000000  0.6133650000000 1.0
C      1  0.4642240000000  0.6180660000000  0.5244520000000 1.0
C      1  0.5174900000000  0.5226190000000  0.3886750000000 1.0
C      1  0.5194300000000  0.3879700000000  0.4762210000000 1.0
C      1  0.5133730000000  0.4794110000000  0.6038710000000 1.0
C      1  0.5343380000000  0.6154960000000  0.5229510000000 1.0
C      1  0.5546420000000  0.5272420000000  0.5005930000000 1.0
C      1  0.5654180000000  0.5055620000000  0.4868150000000 1.0
C      1  0.5677450000000  0.4854830000000  0.5081310000000 1.0
C      1  0.5606690000000  0.5010720000000  0.5304630000000 1.0
C      1  0.4603710000000  0.5248300000000  0.5021330000000 1.0
C      1  0.4297720000000  0.5009330000000  0.4715120000000 1.0
C      1  0.4303220000000  0.4916170000000  0.4984950000000 1.0
C      1  0.4390640000000  0.5124590000000  0.5160810000000 1.0
C      1  0.3983360000000  0.4359700000000  0.5190190000000 1.0
C      1  0.3961980000000  0.5164690000000  0.5718400000000 1.0
C      1  0.3943130000000  0.5546420000000  0.4810350000000 1.0
C      1  0.3960340000000  0.4770760000000  0.4338440000000 1.0
C      1  0.6042910000000  0.4342170000000  0.5189380000000 1.0
C      1  0.6041700000000  0.5140780000000  0.5672160000000 1.0
C      1  0.6057400000000  0.5553020000000  0.4793190000000 1.0
C      1  0.6029130000000  0.4801970000000  0.4330150000000 1.0
C      1  0.5288330000000  0.3975840000000  0.4497330000000 1.0
C      1  0.5233240000000  0.4509240000000  0.5931020000000 1.0
C      1  0.5307100000000  0.5971420000000  0.5448780000000 1.0
C      1  0.5281230000000  0.5493830000000  0.3964540000000 1.0
C      1  0.4742770000000  0.3955100000000  0.4508920000000 1.0
C      1  0.4727980000000  0.4470780000000  0.6008670000000 1.0
C      1  0.4680990000000  0.6008180000000  0.5474380000000 1.0
C      1  0.4733360000000  0.5474090000000  0.3998050000000 1.0
C      1  0.5131840000000  0.3794890000000  0.5750920000000 1.0
C      1  0.5148970000000  0.5799430000000  0.6152280000000 1.0
C      1  0.5137870000000  0.6144370000000  0.4293230000000 1.0
C      1  0.5134790000000  0.4195990000000  0.3807510000000 1.0
C      1  0.4861200000000  0.3786140000000  0.5762790000000 1.0
C      1  0.4878940000000  0.5809560000000  0.6161380000000 1.0
C      1  0.4867440000000  0.6134800000000  0.4307350000000 1.0
C      1  0.4864140000000  0.4189800000000  0.3813620000000 1.0
C      1  0.5832580000000  0.5742350000000  0.4792050000000 1.0
C      1  0.5786590000000  0.4780480000000  0.4165450000000 1.0
C      1  0.5796860000000  0.4182860000000  0.5186310000000 1.0
C      1  0.5790690000000  0.5155180000000  0.5824210000000 1.0
C      1  0.4174750000000  0.5726890000000  0.4812000000000 1.0
C      1  0.4204180000000  0.4758310000000  0.4174440000000 1.0
C      1  0.4222080000000  0.4190420000000  0.5203560000000 1.0
C      1  0.4220710000000  0.5175630000000  0.5858550000000 1.0
C      1  0.4152770000000  0.5555410000000  0.5535140000000 1.0
C      1  0.4124950000000  0.5457580000000  0.4383060000000 1.0
C      1  0.4157510000000  0.4371880000000  0.4499910000000 1.0
C      1  0.4172590000000  0.4491430000000  0.5601020000000 1.0
C      1  0.5851850000000  0.5536910000000  0.5502850000000 1.0
C      1  0.5867590000000  0.5463830000000  0.4370880000000 1.0
C      1  0.5852980000000  0.4390710000000  0.4479480000000 1.0
C      1  0.5844550000000  0.4466170000000  0.5599760000000 1.0
C      1  0.5209110000000  0.4944420000000  0.5012960000000 1.0
C      1  0.4763630000000  0.5065780000000  0.4888930000000 1.0
C      1  0.4987760000000  0.4934470000000  0.4884570000000 1.0
END
