TITL C-74080-5790-461 -993611.71436226 125000 -856.656091069883 0 0 142 (C1) n - 1
REM
REM in /home/nfs/bkarasulu/CARBON/AIRSS/Generating-Clusters/LCBOP/Higher-Symm/SD-CG/FIRE-CG
REM
REM
REM
REM
REM
REM ./C.cell (b20cbc046b6831c77cfcea5457e17084)
REM AIRSS Version 0.9.1 bugfix July 2018 build 013d7b7c2542+ Fri, 06 Jul 2018 19:26:36 +0100
REM compiler GCC version 9.2.1 20190827 (Red Hat 9.2.1-1)
REM options -cpp -mtune=generic -march=x86-64 -g -O0 -fpre-include=/usr/include/finclude/math-vector-fortran.h
REM seed 745706845 -2052271557 -1005624662 -721998054 1173288551 44579308 1861532542 -603404705 864152907 1287135683 1016267032 1256845169 1181222722 -351646629 -249486368 738542506 -1157532714 1820045401 -475492474 -1386697999 -1358627901 127712603 1482505305 730480294 -1562314739 -24601901 -1757570030 1417763067 -1478857357 -293136935 2038287165 -1355714227 802041762
REM
CELL 1.54180   50.00000   50.00000   50.00000   90.00000   90.00000   90.00000
LATT -1
SFAC C  
C      1  0.4751330000000  0.5565460000000  0.6038930000000 1.0
C      1  0.6218160000000  0.4889280000000  0.5553920000000 1.0
C      1  0.5519930000000  0.6102310000000  0.4898410000000 1.0
C      1  0.5033380000000  0.4601870000000  0.6110440000000 1.0
C      1  0.5221980000000  0.5634350000000  0.3954930000000 1.0
C      1  0.4850470000000  0.4611920000000  0.3816510000000 1.0
C      1  0.3982570000000  0.5206500000000  0.5547000000000 1.0
C      1  0.3647460000000  0.4346120000000  0.4747250000000 1.0
C      1  0.6104840000000  0.5197240000000  0.4399260000000 1.0
C      1  0.4403670000000  0.3859550000000  0.4942110000000 1.0
C      1  0.4490740000000  0.6178490000000  0.5073930000000 1.0
C      1  0.5426240000000  0.3882480000000  0.5160880000000 1.0
C      1  0.4931920000000  0.5019730000000  0.4645890000000 1.0
C      1  0.4787220000000  0.5072050000000  0.5027220000000 1.0
C      1  0.5141970000000  0.4635750000000  0.4516390000000 1.0
C      1  0.5558990000000  0.4864590000000  0.4570630000000 1.0
C      1  0.5551160000000  0.5048580000000  0.5564670000000 1.0
C      1  0.5239780000000  0.4847360000000  0.5217310000000 1.0
C      1  0.5478260000000  0.5232850000000  0.5114320000000 1.0
C      1  0.5435380000000  0.4526630000000  0.4885190000000 1.0
C      1  0.4445210000000  0.5139940000000  0.4551490000000 1.0
C      1  0.4837000000000  0.5435060000000  0.4725240000000 1.0
C      1  0.4840640000000  0.4672610000000  0.5193140000000 1.0
C      1  0.5167310000000  0.5316710000000  0.5433010000000 1.0
C      1  0.5615750000000  0.4928270000000  0.4024580000000 1.0
C      1  0.4076930000000  0.5539050000000  0.4846970000000 1.0
C      1  0.4835980000000  0.4119780000000  0.5447070000000 1.0
C      1  0.4654360000000  0.5232720000000  0.4057310000000 1.0
C      1  0.4483410000000  0.4941160000000  0.5925940000000 1.0
C      1  0.5518620000000  0.5229130000000  0.6021280000000 1.0
C      1  0.5992490000000  0.4420300000000  0.4903830000000 1.0
C      1  0.5942480000000  0.5462300000000  0.5022900000000 1.0
C      1  0.3945560000000  0.4495850000000  0.5268740000000 1.0
C      1  0.5061850000000  0.5925710000000  0.5351060000000 1.0
C      1  0.5036680000000  0.4078770000000  0.4446720000000 1.0
C      1  0.4906710000000  0.5958960000000  0.4697870000000 1.0
C      1  0.3978580000000  0.5494010000000  0.5097600000000 1.0
C      1  0.5068760000000  0.3973910000000  0.5529180000000 1.0
C      1  0.5530450000000  0.5182020000000  0.3956030000000 1.0
C      1  0.6107870000000  0.4530740000000  0.5136320000000 1.0
C      1  0.5991460000000  0.5562130000000  0.4759440000000 1.0
C      1  0.3714170000000  0.4344330000000  0.5223190000000 1.0
C      1  0.4883520000000  0.6138300000000  0.5398880000000 1.0
C      1  0.4814450000000  0.3965220000000  0.4575950000000 1.0
C      1  0.5101440000000  0.6147810000000  0.4632380000000 1.0
C      1  0.4546740000000  0.5024610000000  0.3894610000000 1.0
C      1  0.4405060000000  0.5175900000000  0.6067970000000 1.0
C      1  0.5387200000000  0.5013020000000  0.6128450000000 1.0
C      1  0.5176390000000  0.4436150000000  0.4927710000000 1.0
C      1  0.5089480000000  0.5429780000000  0.4569290000000 1.0
C      1  0.4352480000000  0.5156250000000  0.5142550000000 1.0
C      1  0.4563420000000  0.5461970000000  0.5142750000000 1.0
C      1  0.4531650000000  0.4471190000000  0.4877540000000 1.0
C      1  0.5294840000000  0.5426720000000  0.5008910000000 1.0
C      1  0.5180530000000  0.4854670000000  0.4341950000000 1.0
C      1  0.5116780000000  0.5131040000000  0.5635270000000 1.0
C      1  0.4940340000000  0.4631210000000  0.5465800000000 1.0
C      1  0.5704900000000  0.4925530000000  0.5360720000000 1.0
C      1  0.5736980000000  0.4860900000000  0.4783330000000 1.0
C      1  0.4330820000000  0.4639900000000  0.4748440000000 1.0
C      1  0.4266430000000  0.5596780000000  0.4635380000000 1.0
C      1  0.4582240000000  0.4226570000000  0.5592300000000 1.0
C      1  0.5636900000000  0.4665430000000  0.4159630000000 1.0
C      1  0.5825610000000  0.4380870000000  0.4643610000000 1.0
C      1  0.5799770000000  0.5589530000000  0.5318950000000 1.0
C      1  0.4144030000000  0.4441510000000  0.5465320000000 1.0
C      1  0.5301530000000  0.5792190000000  0.5490270000000 1.0
C      1  0.5305020000000  0.4217240000000  0.4382920000000 1.0
C      1  0.4692990000000  0.5856550000000  0.4525090000000 1.0
C      1  0.4537790000000  0.5469640000000  0.4211830000000 1.0
C      1  0.4378350000000  0.4671180000000  0.5841480000000 1.0
C      1  0.5566130000000  0.5436580000000  0.5821600000000 1.0
C      1  0.5981640000000  0.4993070000000  0.4787560000000 1.0
C      1  0.4616770000000  0.5736000000000  0.5103430000000 1.0
C      1  0.4843440000000  0.4734880000000  0.5708840000000 1.0
C      1  0.4061120000000  0.4622960000000  0.4823310000000 1.0
C      1  0.4148890000000  0.4949120000000  0.5222820000000 1.0
C      1  0.5934090000000  0.5066800000000  0.5276630000000 1.0
C      1  0.5108780000000  0.4175570000000  0.5005770000000 1.0
C      1  0.5278660000000  0.5697210000000  0.4946440000000 1.0
C      1  0.4585490000000  0.4240980000000  0.5044340000000 1.0
C      1  0.4919190000000  0.5203790000000  0.5810350000000 1.0
C      1  0.5058590000000  0.4914400000000  0.4102760000000 1.0
C      1  0.5047050000000  0.5399850000000  0.4283970000000 1.0
C      1  0.3945300000000  0.5398340000000  0.5351540000000 1.0
C      1  0.5291070000000  0.3881850000000  0.5399500000000 1.0
C      1  0.5405300000000  0.5425740000000  0.3921200000000 1.0
C      1  0.6196740000000  0.4674630000000  0.5362230000000 1.0
C      1  0.6060930000000  0.5438370000000  0.4524510000000 1.0
C      1  0.3582240000000  0.4273920000000  0.4999150000000 1.0
C      1  0.4668010000000  0.6244230000000  0.5271060000000 1.0
C      1  0.4600200000000  0.3871280000000  0.4732510000000 1.0
C      1  0.5348400000000  0.6211400000000  0.4719770000000 1.0
C      1  0.4636970000000  0.4783330000000  0.3804460000000 1.0
C      1  0.4527030000000  0.5419180000000  0.6100140000000 1.0
C      1  0.5223670000000  0.4794920000000  0.6159060000000 1.0
C      1  0.4727730000000  0.5712530000000  0.4258670000000 1.0
C      1  0.4184770000000  0.4684120000000  0.5630140000000 1.0
C      1  0.5531260000000  0.4174950000000  0.4641650000000 1.0
C      1  0.5348590000000  0.4469540000000  0.4137790000000 1.0
C      1  0.5281810000000  0.5610600000000  0.5750690000000 1.0
C      1  0.4569530000000  0.4418460000000  0.5837420000000 1.0
C      1  0.5845500000000  0.5416150000000  0.5602900000000 1.0
C      1  0.5884870000000  0.4632770000000  0.4401580000000 1.0
C      1  0.4356840000000  0.5395330000000  0.4439770000000 1.0
C      1  0.4441930000000  0.5827870000000  0.4678170000000 1.0
C      1  0.4331710000000  0.4213290000000  0.5420750000000 1.0
C      1  0.5558820000000  0.5777590000000  0.5312110000000 1.0
C      1  0.5186970000000  0.5167490000000  0.4642630000000 1.0
C      1  0.4519690000000  0.5005260000000  0.4977550000000 1.0
C      1  0.4989860000000  0.4560850000000  0.4744970000000 1.0
C      1  0.5365540000000  0.5037400000000  0.4472840000000 1.0
C      1  0.5308490000000  0.4915180000000  0.5647490000000 1.0
C      1  0.5224030000000  0.4707060000000  0.5470530000000 1.0
C      1  0.5502660000000  0.4926850000000  0.5141630000000 1.0
C      1  0.5612680000000  0.4715690000000  0.4984000000000 1.0
C      1  0.4405480000000  0.4915430000000  0.4726980000000 1.0
C      1  0.4819320000000  0.5356810000000  0.5027930000000 1.0
C      1  0.4772160000000  0.4609390000000  0.4913800000000 1.0
C      1  0.5061190000000  0.5392880000000  0.5185260000000 1.0
C      1  0.5086370000000  0.4651830000000  0.3969270000000 1.0
C      1  0.3856150000000  0.4501230000000  0.4676220000000 1.0
C      1  0.4378030000000  0.4074330000000  0.5146920000000 1.0
C      1  0.5002400000000  0.5650170000000  0.4147370000000 1.0
C      1  0.4831270000000  0.4536050000000  0.5916770000000 1.0
C      1  0.4977940000000  0.5480820000000  0.5886290000000 1.0
C      1  0.6063470000000  0.4933090000000  0.4506440000000 1.0
C      1  0.6060360000000  0.5140180000000  0.5521380000000 1.0
C      1  0.4100210000000  0.4944220000000  0.5510270000000 1.0
C      1  0.5486940000000  0.5863000000000  0.5041540000000 1.0
C      1  0.5360950000000  0.4032490000000  0.4924590000000 1.0
C      1  0.4470950000000  0.5921770000000  0.4953670000000 1.0
C      1  0.4738960000000  0.4982800000000  0.5805200000000 1.0
C      1  0.4933520000000  0.5176830000000  0.4125750000000 1.0
C      1  0.4967250000000  0.5825330000000  0.5020990000000 1.0
C      1  0.5992710000000  0.5173780000000  0.5023250000000 1.0
C      1  0.4849160000000  0.4166230000000  0.5152400000000 1.0
C      1  0.4021840000000  0.4714090000000  0.5091940000000 1.0
C      1  0.4985520000000  0.4917050000000  0.5136210000000 1.0
C      1  0.4719270000000  0.5193100000000  0.4601820000000 1.0
C      1  0.5419700000000  0.4608370000000  0.4608250000000 1.0
C      1  0.5455070000000  0.5288040000000  0.5409340000000 1.0
END
