TITL C-74084-3399-426 -1.37290506601944e-06 125000 -839.994682411335 0 0 134 (C1) n - 1
REM
REM in /home/nfs/bkarasulu/CARBON/AIRSS/Generating-Clusters/LCBOP/Higher-Symm/SD-CG/FIRE-CG
REM
REM
REM
REM
REM
REM ./C.cell (b20cbc046b6831c77cfcea5457e17084)
REM AIRSS Version 0.9.1 bugfix July 2018 build 013d7b7c2542+ Fri, 06 Jul 2018 19:26:36 +0100
REM compiler GCC version 9.2.1 20190827 (Red Hat 9.2.1-1)
REM options -cpp -mtune=generic -march=x86-64 -g -O0 -fpre-include=/usr/include/finclude/math-vector-fortran.h
REM seed -97307456 2043170888 1843100832 -515266067 1660354493 -619982130 -1760501128 53326978 1148277252 1165505748 1573212375 1670009426 -774711078 2037586225 -1346058067 -1101030167 -1187641543 -453281489 -864724915 -365411581 -1071789133 -688295525 650599359 -1940414556 1747441931 1125539393 1664331151 -68185420 -1262740901 630107302 354517074 604180351 1346686152
REM
CELL 1.54180   50.00000   50.00000   50.00000   90.00000   90.00000   90.00000
LATT -1
SFAC C  
C      1  0.4400420000000  0.4180340000000  0.4576800000000 1.0
C      1  0.5594620000000  0.4170390000000  0.4548430000000 1.0
C      1  0.4862950000000  0.4515310000000  0.3948740000000 1.0
C      1  0.5133270000000  0.4517940000000  0.3946430000000 1.0
C      1  0.4193640000000  0.5559030000000  0.4904320000000 1.0
C      1  0.5824940000000  0.5545430000000  0.4876990000000 1.0
C      1  0.5101500000000  0.5403980000000  0.4963450000000 1.0
C      1  0.4828000000000  0.5403590000000  0.4953710000000 1.0
C      1  0.4862800000000  0.4945960000000  0.4469190000000 1.0
C      1  0.5150650000000  0.4954510000000  0.4469730000000 1.0
C      1  0.5169540000000  0.4977230000000  0.6082770000000 1.0
C      1  0.4684310000000  0.4977500000000  0.6039930000000 1.0
C      1  0.4710870000000  0.5193290000000  0.4553100000000 1.0
C      1  0.5292240000000  0.5200720000000  0.4568460000000 1.0
C      1  0.5726250000000  0.4869670000000  0.5322420000000 1.0
C      1  0.4343860000000  0.4932020000000  0.5393130000000 1.0
C      1  0.4725140000000  0.5209900000000  0.5523520000000 1.0
C      1  0.5209320000000  0.5208510000000  0.5598970000000 1.0
C      1  0.4255080000000  0.5387800000000  0.5341700000000 1.0
C      1  0.5733400000000  0.5324400000000  0.5259080000000 1.0
C      1  0.4022130000000  0.5270590000000  0.5479250000000 1.0
C      1  0.5957760000000  0.5238210000000  0.5435120000000 1.0
C      1  0.4723100000000  0.4439530000000  0.5500200000000 1.0
C      1  0.5310890000000  0.4421430000000  0.5474440000000 1.0
C      1  0.5705870000000  0.5585160000000  0.5148590000000 1.0
C      1  0.4287670000000  0.5620270000000  0.5181900000000 1.0
C      1  0.5726580000000  0.4386830000000  0.5227960000000 1.0
C      1  0.4315020000000  0.4427430000000  0.5253950000000 1.0
C      1  0.5095970000000  0.5072970000000  0.5819240000000 1.0
C      1  0.4797790000000  0.5071700000000  0.5788620000000 1.0
C      1  0.5594710000000  0.5083840000000  0.5205390000000 1.0
C      1  0.4453990000000  0.5191770000000  0.5402120000000 1.0
C      1  0.4831160000000  0.4186990000000  0.5538080000000 1.0
C      1  0.5190180000000  0.4169160000000  0.5484880000000 1.0
C      1  0.4154510000000  0.4905990000000  0.3764330000000 1.0
C      1  0.5840970000000  0.4913650000000  0.3748880000000 1.0
C      1  0.5150870000000  0.4138930000000  0.4744570000000 1.0
C      1  0.4852140000000  0.4137090000000  0.4750820000000 1.0
C      1  0.4352150000000  0.4765530000000  0.5627720000000 1.0
C      1  0.5672100000000  0.4746060000000  0.5570790000000 1.0
C      1  0.5532630000000  0.5761120000000  0.5330000000000 1.0
C      1  0.4478120000000  0.5793260000000  0.5352790000000 1.0
C      1  0.4728100000000  0.5904030000000  0.4954900000000 1.0
C      1  0.5273970000000  0.5899310000000  0.4959900000000 1.0
C      1  0.4155330000000  0.5229490000000  0.5750310000000 1.0
C      1  0.5809960000000  0.5214420000000  0.5690700000000 1.0
C      1  0.6163500000000  0.5194880000000  0.4993470000000 1.0
C      1  0.3866970000000  0.5205240000000  0.5017050000000 1.0
C      1  0.5761000000000  0.5708770000000  0.4656880000000 1.0
C      1  0.4255360000000  0.5717950000000  0.4678300000000 1.0
C      1  0.4168760000000  0.4586270000000  0.4820830000000 1.0
C      1  0.5864690000000  0.4555940000000  0.4791110000000 1.0
C      1  0.4887760000000  0.6111090000000  0.5362760000000 1.0
C      1  0.5159420000000  0.6118020000000  0.5367150000000 1.0
C      1  0.4354300000000  0.5477680000000  0.5773350000000 1.0
C      1  0.5630450000000  0.5447950000000  0.5723510000000 1.0
C      1  0.5384170000000  0.5044520000000  0.3833140000000 1.0
C      1  0.4611620000000  0.5040760000000  0.3840240000000 1.0
C      1  0.5160510000000  0.4033720000000  0.5228240000000 1.0
C      1  0.4863460000000  0.4027860000000  0.5228430000000 1.0
C      1  0.5166450000000  0.4647930000000  0.4828430000000 1.0
C      1  0.4879210000000  0.4625280000000  0.4825210000000 1.0
C      1  0.5047800000000  0.5153060000000  0.6283670000000 1.0
C      1  0.4769570000000  0.5154270000000  0.6257820000000 1.0
C      1  0.5843760000000  0.4782230000000  0.4601940000000 1.0
C      1  0.4173890000000  0.4797010000000  0.4619640000000 1.0
C      1  0.4773600000000  0.4688430000000  0.4568510000000 1.0
C      1  0.5257340000000  0.4703970000000  0.4567040000000 1.0
C      1  0.4387770000000  0.4883440000000  0.3905010000000 1.0
C      1  0.5610030000000  0.4888030000000  0.3892810000000 1.0
C      1  0.4679190000000  0.4220070000000  0.4529520000000 1.0
C      1  0.5315980000000  0.4226000000000  0.4518140000000 1.0
C      1  0.4563530000000  0.5645700000000  0.5606640000000 1.0
C      1  0.5430350000000  0.5614470000000  0.5574840000000 1.0
C      1  0.5771190000000  0.4711200000000  0.4329110000000 1.0
C      1  0.4238390000000  0.4715570000000  0.4348400000000 1.0
C      1  0.5740720000000  0.4938030000000  0.5779750000000 1.0
C      1  0.4214640000000  0.4941430000000  0.5828040000000 1.0
C      1  0.5251440000000  0.5185760000000  0.4874140000000 1.0
C      1  0.4716130000000  0.5163290000000  0.4866330000000 1.0
C      1  0.4076980000000  0.5289550000000  0.4841990000000 1.0
C      1  0.5952530000000  0.5278250000000  0.4818640000000 1.0
C      1  0.5584140000000  0.5184430000000  0.4521230000000 1.0
C      1  0.4416780000000  0.5194050000000  0.4501880000000 1.0
C      1  0.5284240000000  0.4480370000000  0.4395720000000 1.0
C      1  0.4721210000000  0.4468700000000  0.4399660000000 1.0
C      1  0.5278780000000  0.5726930000000  0.4508290000000 1.0
C      1  0.4731870000000  0.5728040000000  0.4505010000000 1.0
C      1  0.5558540000000  0.5754040000000  0.4486910000000 1.0
C      1  0.4449750000000  0.5754830000000  0.4495670000000 1.0
C      1  0.4296650000000  0.4319610000000  0.4798460000000 1.0
C      1  0.5715530000000  0.4299840000000  0.4766860000000 1.0
C      1  0.4112420000000  0.4870480000000  0.5239170000000 1.0
C      1  0.5985980000000  0.4808180000000  0.5213870000000 1.0
C      1  0.4200780000000  0.5091230000000  0.4660370000000 1.0
C      1  0.5814520000000  0.5076550000000  0.4652840000000 1.0
C      1  0.4650560000000  0.4537040000000  0.4134640000000 1.0
C      1  0.5348900000000  0.4543990000000  0.4127710000000 1.0
C      1  0.4864270000000  0.5118780000000  0.3811080000000 1.0
C      1  0.5130320000000  0.5120230000000  0.3808740000000 1.0
C      1  0.4441750000000  0.4250350000000  0.5049390000000 1.0
C      1  0.5580290000000  0.4230630000000  0.5021700000000 1.0
C      1  0.5926920000000  0.4564590000000  0.5079500000000 1.0
C      1  0.4144120000000  0.4624790000000  0.5108460000000 1.0
C      1  0.4122440000000  0.4840540000000  0.6065950000000 1.0
C      1  0.5758280000000  0.4865610000000  0.6043180000000 1.0
C      1  0.5155660000000  0.5094110000000  0.5345170000000 1.0
C      1  0.4879050000000  0.5084700000000  0.5303130000000 1.0
C      1  0.4784280000000  0.4707270000000  0.6095980000000 1.0
C      1  0.5062540000000  0.4707030000000  0.6119800000000 1.0
C      1  0.5159920000000  0.4599530000000  0.5310230000000 1.0
C      1  0.4873160000000  0.4589530000000  0.5308060000000 1.0
C      1  0.4831620000000  0.5505780000000  0.5580680000000 1.0
C      1  0.5149580000000  0.5502510000000  0.5595750000000 1.0
C      1  0.5591480000000  0.4477340000000  0.5478610000000 1.0
C      1  0.4443430000000  0.4506430000000  0.5509140000000 1.0
C      1  0.4706090000000  0.4120180000000  0.5012420000000 1.0
C      1  0.5308520000000  0.4113810000000  0.4998800000000 1.0
C      1  0.5271010000000  0.4729190000000  0.5077060000000 1.0
C      1  0.4762610000000  0.4702640000000  0.5066910000000 1.0
C      1  0.5242830000000  0.5624350000000  0.5015940000000 1.0
C      1  0.4676630000000  0.5624970000000  0.4973360000000 1.0
C      1  0.3923700000000  0.5085330000000  0.5268430000000 1.0
C      1  0.6117690000000  0.5066250000000  0.5245130000000 1.0
C      1  0.4411380000000  0.4697670000000  0.4119730000000 1.0
C      1  0.5590690000000  0.4699860000000  0.4105740000000 1.0
C      1  0.4856810000000  0.5461910000000  0.4469380000000 1.0
C      1  0.5152090000000  0.5463860000000  0.4472570000000 1.0
C      1  0.4671610000000  0.5984550000000  0.5227900000000 1.0
C      1  0.5366130000000  0.5987510000000  0.5220910000000 1.0
C      1  0.4863150000000  0.5917010000000  0.4694590000000 1.0
C      1  0.5151490000000  0.5916030000000  0.4695870000000 1.0
C      1  0.4739040000000  0.4979740000000  0.5078580000000 1.0
C      1  0.5329880000000  0.5021230000000  0.5107430000000 1.0
END
