TITL C-74084-3399-104 9922.68338113508 125000 -1089.3118252007 0 0 187 (C1) n - 1
REM
REM in /home/nfs/bkarasulu/CARBON/AIRSS/Generating-Clusters/LCBOP/Higher-Symm/SD-CG/FIRE-CG
REM
REM
REM
REM
REM
REM ./C.cell (b20cbc046b6831c77cfcea5457e17084)
REM AIRSS Version 0.9.1 bugfix July 2018 build 013d7b7c2542+ Fri, 06 Jul 2018 19:26:36 +0100
REM compiler GCC version 9.2.1 20190827 (Red Hat 9.2.1-1)
REM options -cpp -mtune=generic -march=x86-64 -g -O0 -fpre-include=/usr/include/finclude/math-vector-fortran.h
REM seed 477531697 1101227034 -1738767743 966388845 2047954621 1031206455 -1786306102 -1605705223 838918727 355032051 1377639665 1198617838 -87964698 -1308711684 1278171799 -1564201157 -456339624 -1693391638 -1233435145 -508425031 -1442517304 134545846 -1488391738 -585772932 766950521 1388821527 1582101357 -762115053 -1730650634 -777124110 -1206706452 822184557 1378568611
REM
CELL 1.54180   50.00000   50.00000   50.00000   90.00000   90.00000   90.00000
LATT -1
SFAC C  
C      1  0.4952650000000  0.4877780000000  0.5397330000000 1.0
C      1  0.4864990000000  0.5364500000000  0.4897060000000 1.0
C      1  0.5356570000000  0.4929460000000  0.4872600000000 1.0
C      1  0.5212270000000  0.5215400000000  0.5599960000000 1.0
C      1  0.4912170000000  0.5132620000000  0.4633360000000 1.0
C      1  0.5080540000000  0.4912730000000  0.4642940000000 1.0
C      1  0.5095600000000  0.4694220000000  0.4940440000000 1.0
C      1  0.4885210000000  0.4750460000000  0.5132170000000 1.0
C      1  0.5086070000000  0.5356230000000  0.5067610000000 1.0
C      1  0.4606970000000  0.5096450000000  0.4833310000000 1.0
C      1  0.5323560000000  0.5094170000000  0.5087910000000 1.0
C      1  0.4668510000000  0.4927310000000  0.5048450000000 1.0
C      1  0.5282780000000  0.5733740000000  0.5613140000000 1.0
C      1  0.5784370000000  0.5565760000000  0.5290110000000 1.0
C      1  0.5653180000000  0.5261570000000  0.5799500000000 1.0
C      1  0.4709140000000  0.4272970000000  0.5580200000000 1.0
C      1  0.5271800000000  0.4256130000000  0.4421520000000 1.0
C      1  0.4726740000000  0.5769350000000  0.4392040000000 1.0
C      1  0.4201920000000  0.4447480000000  0.5286120000000 1.0
C      1  0.5779350000000  0.4417710000000  0.4688470000000 1.0
C      1  0.4222810000000  0.5623660000000  0.4714300000000 1.0
C      1  0.4253720000000  0.4764530000000  0.5801770000000 1.0
C      1  0.5601310000000  0.4713450000000  0.4211850000000 1.0
C      1  0.4383090000000  0.5287260000000  0.4227670000000 1.0
C      1  0.5225690000000  0.5017610000000  0.3937560000000 1.0
C      1  0.5014720000000  0.3929610000000  0.5247350000000 1.0
C      1  0.3851590000000  0.5283830000000  0.4939550000000 1.0
C      1  0.4757630000000  0.4983310000000  0.3938070000000 1.0
C      1  0.5232760000000  0.4971780000000  0.6102230000000 1.0
C      1  0.4729050000000  0.4989360000000  0.6096520000000 1.0
C      1  0.4992290000000  0.6042250000000  0.5246600000000 1.0
C      1  0.5018920000000  0.6056620000000  0.4775350000000 1.0
C      1  0.5048780000000  0.3887100000000  0.4764950000000 1.0
C      1  0.6144660000000  0.4742510000000  0.4931700000000 1.0
C      1  0.3898390000000  0.4794220000000  0.4932980000000 1.0
C      1  0.6114780000000  0.5228510000000  0.4971100000000 1.0
C      1  0.4158660000000  0.4332030000000  0.4413610000000 1.0
C      1  0.4387120000000  0.4381060000000  0.4144090000000 1.0
C      1  0.4444040000000  0.4113100000000  0.4394080000000 1.0
C      1  0.5880740000000  0.5648570000000  0.4412390000000 1.0
C      1  0.4113720000000  0.5616910000000  0.5576760000000 1.0
C      1  0.5884710000000  0.4375650000000  0.5546640000000 1.0
C      1  0.5636760000000  0.5601580000000  0.4135830000000 1.0
C      1  0.4337780000000  0.5588720000000  0.5877820000000 1.0
C      1  0.5671560000000  0.4416230000000  0.5851700000000 1.0
C      1  0.5603890000000  0.5869920000000  0.4371950000000 1.0
C      1  0.4385560000000  0.5845450000000  0.5631650000000 1.0
C      1  0.5613660000000  0.4148990000000  0.5622470000000 1.0
C      1  0.4622920000000  0.4739080000000  0.3897600000000 1.0
C      1  0.4801750000000  0.3863280000000  0.4630170000000 1.0
C      1  0.3883850000000  0.4608150000000  0.4720010000000 1.0
C      1  0.5372910000000  0.5255340000000  0.3896390000000 1.0
C      1  0.4597090000000  0.5240400000000  0.6138110000000 1.0
C      1  0.5391550000000  0.4735690000000  0.6118150000000 1.0
C      1  0.5262320000000  0.6104190000000  0.4640690000000 1.0
C      1  0.4753010000000  0.6085200000000  0.5392730000000 1.0
C      1  0.5228040000000  0.3897630000000  0.5431230000000 1.0
C      1  0.6143810000000  0.5417270000000  0.4762240000000 1.0
C      1  0.3850690000000  0.5406180000000  0.5197160000000 1.0
C      1  0.6147870000000  0.4594850000000  0.5175160000000 1.0
C      1  0.5864180000000  0.4648980000000  0.4287010000000 1.0
C      1  0.4589760000000  0.4396450000000  0.5799740000000 1.0
C      1  0.4342620000000  0.5871060000000  0.4655170000000 1.0
C      1  0.4132670000000  0.5376670000000  0.4318440000000 1.0
C      1  0.5902280000000  0.5328430000000  0.5685530000000 1.0
C      1  0.4025300000000  0.4666460000000  0.5666730000000 1.0
C      1  0.5366290000000  0.5639330000000  0.5867120000000 1.0
C      1  0.4654340000000  0.5668190000000  0.4137980000000 1.0
C      1  0.5306660000000  0.4347280000000  0.4155330000000 1.0
C      1  0.5681810000000  0.4159640000000  0.4637680000000 1.0
C      1  0.4311320000000  0.4190330000000  0.5335450000000 1.0
C      1  0.5675260000000  0.5816870000000  0.5356580000000 1.0
C      1  0.4354650000000  0.6541370000000  0.5777810000000 1.0
C      1  0.6558410000000  0.5871610000000  0.4394010000000 1.0
C      1  0.5876860000000  0.4415460000000  0.6535340000000 1.0
C      1  0.5642520000000  0.3465580000000  0.5824590000000 1.0
C      1  0.4415300000000  0.3423130000000  0.4217320000000 1.0
C      1  0.5649500000000  0.6576210000000  0.4266140000000 1.0
C      1  0.3489640000000  0.4083180000000  0.4431830000000 1.0
C      1  0.6562080000000  0.4160370000000  0.5563590000000 1.0
C      1  0.3417080000000  0.5735450000000  0.5658820000000 1.0
C      1  0.4284350000000  0.5711480000000  0.6578000000000 1.0
C      1  0.5782840000000  0.5624710000000  0.3438100000000 1.0
C      1  0.4275430000000  0.4307640000000  0.3442440000000 1.0
C      1  0.4665570000000  0.4432270000000  0.4866460000000 1.0
C      1  0.4376240000000  0.4769390000000  0.4647790000000 1.0
C      1  0.4779920000000  0.4642690000000  0.4422020000000 1.0
C      1  0.5363100000000  0.5599920000000  0.4808680000000 1.0
C      1  0.4635450000000  0.5602400000000  0.5203370000000 1.0
C      1  0.5360780000000  0.4409240000000  0.5178300000000 1.0
C      1  0.5636390000000  0.5196530000000  0.4643620000000 1.0
C      1  0.4401900000000  0.5177410000000  0.5324480000000 1.0
C      1  0.5619070000000  0.4828690000000  0.5314690000000 1.0
C      1  0.5230050000000  0.5351230000000  0.4401180000000 1.0
C      1  0.4739540000000  0.5346610000000  0.5632890000000 1.0
C      1  0.5263880000000  0.4636110000000  0.5614330000000 1.0
C      1  0.5462530000000  0.5089910000000  0.5670600000000 1.0
C      1  0.5083830000000  0.5635530000000  0.5442510000000 1.0
C      1  0.5673770000000  0.5375550000000  0.5108600000000 1.0
C      1  0.4335480000000  0.5033250000000  0.5762380000000 1.0
C      1  0.5415410000000  0.4893540000000  0.4336050000000 1.0
C      1  0.4572010000000  0.5099530000000  0.4338690000000 1.0
C      1  0.4906100000000  0.4372070000000  0.5397380000000 1.0
C      1  0.5104650000000  0.4359750000000  0.4628460000000 1.0
C      1  0.4916960000000  0.5660910000000  0.4563900000000 1.0
C      1  0.4327780000000  0.4646600000000  0.5125130000000 1.0
C      1  0.5678810000000  0.4612910000000  0.4867260000000 1.0
C      1  0.4306010000000  0.5424180000000  0.4901480000000 1.0
C      1  0.4524810000000  0.6075110000000  0.5561890000000 1.0
C      1  0.6117540000000  0.5596950000000  0.4545190000000 1.0
C      1  0.5598090000000  0.4541620000000  0.6088670000000 1.0
C      1  0.5467430000000  0.3916890000000  0.5582560000000 1.0
C      1  0.4578570000000  0.3880040000000  0.4456910000000 1.0
C      1  0.5479170000000  0.6100430000000  0.4459220000000 1.0
C      1  0.3919060000000  0.4395270000000  0.4536480000000 1.0
C      1  0.6118080000000  0.4426100000000  0.5403380000000 1.0
C      1  0.3878250000000  0.5551410000000  0.5442060000000 1.0
C      1  0.4431980000000  0.5473510000000  0.6114430000000 1.0
C      1  0.5557930000000  0.5470110000000  0.3905350000000 1.0
C      1  0.4461380000000  0.4507060000000  0.3909700000000 1.0
C      1  0.5296820000000  0.3837550000000  0.4632900000000 1.0
C      1  0.3825770000000  0.4713270000000  0.5200310000000 1.0
C      1  0.4661590000000  0.5243970000000  0.3853480000000 1.0
C      1  0.4763260000000  0.6143080000000  0.4672380000000 1.0
C      1  0.5258000000000  0.6111540000000  0.5340370000000 1.0
C      1  0.4736770000000  0.3890470000000  0.5314980000000 1.0
C      1  0.6165550000000  0.5299100000000  0.5246240000000 1.0
C      1  0.3798840000000  0.5424530000000  0.4695150000000 1.0
C      1  0.6196740000000  0.4624790000000  0.4675010000000 1.0
C      1  0.5310270000000  0.4754050000000  0.3850090000000 1.0
C      1  0.4594440000000  0.4744000000000  0.6132830000000 1.0
C      1  0.5346800000000  0.5231470000000  0.6161100000000 1.0
C      1  0.5204130000000  0.5627370000000  0.5079320000000 1.0
C      1  0.5589880000000  0.5112500000000  0.5208650000000 1.0
C      1  0.4973360000000  0.5242390000000  0.5769460000000 1.0
C      1  0.4782190000000  0.4464370000000  0.5147630000000 1.0
C      1  0.5182750000000  0.4388810000000  0.4925780000000 1.0
C      1  0.4775880000000  0.5646940000000  0.4928070000000 1.0
C      1  0.4430080000000  0.4906490000000  0.5213370000000 1.0
C      1  0.5655370000000  0.4918800000000  0.4794940000000 1.0
C      1  0.4312070000000  0.5132100000000  0.4805780000000 1.0
C      1  0.5015450000000  0.4781010000000  0.5674510000000 1.0
C      1  0.5115320000000  0.4811350000000  0.4365890000000 1.0
C      1  0.4870650000000  0.5199280000000  0.4352150000000 1.0
C      1  0.4490810000000  0.3641070000000  0.4338660000000 1.0
C      1  0.3694490000000  0.4237280000000  0.4478870000000 1.0
C      1  0.4370020000000  0.4401100000000  0.3666590000000 1.0
C      1  0.5570520000000  0.6347150000000  0.4362140000000 1.0
C      1  0.4435720000000  0.6319180000000  0.5668340000000 1.0
C      1  0.5560600000000  0.3680920000000  0.5702770000000 1.0
C      1  0.6348460000000  0.5733460000000  0.4463010000000 1.0
C      1  0.3637950000000  0.5640400000000  0.5558310000000 1.0
C      1  0.6351100000000  0.4294500000000  0.5489960000000 1.0
C      1  0.5669690000000  0.5552440000000  0.3661470000000 1.0
C      1  0.4357650000000  0.5597300000000  0.6355490000000 1.0
C      1  0.5740290000000  0.4473660000000  0.6321140000000 1.0
C      1  0.3974380000000  0.4577120000000  0.5403600000000 1.0
C      1  0.4537950000000  0.5432900000000  0.4029790000000 1.0
C      1  0.5446050000000  0.4053640000000  0.4527570000000 1.0
C      1  0.5991270000000  0.5425890000000  0.5434350000000 1.0
C      1  0.4021390000000  0.5513150000000  0.4540160000000 1.0
C      1  0.5979080000000  0.4532340000000  0.4517280000000 1.0
C      1  0.5434300000000  0.4565790000000  0.4026720000000 1.0
C      1  0.4454350000000  0.4604520000000  0.5930420000000 1.0
C      1  0.5488330000000  0.5410940000000  0.5987170000000 1.0
C      1  0.4580140000000  0.5969280000000  0.4538550000000 1.0
C      1  0.5437790000000  0.5926630000000  0.5464900000000 1.0
C      1  0.4555100000000  0.4078040000000  0.5430640000000 1.0
C      1  0.5490070000000  0.4820340000000  0.5572510000000 1.0
C      1  0.4808920000000  0.5557110000000  0.5441310000000 1.0
C      1  0.5595830000000  0.5424640000000  0.4833020000000 1.0
C      1  0.4490640000000  0.5197830000000  0.5594590000000 1.0
C      1  0.5452370000000  0.5169970000000  0.4420830000000 1.0
C      1  0.4553090000000  0.4822320000000  0.4435800000000 1.0
C      1  0.5197870000000  0.4427000000000  0.5423170000000 1.0
C      1  0.4827010000000  0.4443300000000  0.4615280000000 1.0
C      1  0.5183080000000  0.5567930000000  0.4571490000000 1.0
C      1  0.4414660000000  0.4580410000000  0.4856900000000 1.0
C      1  0.5587140000000  0.4587800000000  0.5142720000000 1.0
C      1  0.4409380000000  0.5426780000000  0.5169390000000 1.0
C      1  0.4979320000000  0.4977590000000  0.5927460000000 1.0
C      1  0.4992450000000  0.5004080000000  0.4141600000000 1.0
C      1  0.5992130000000  0.4981040000000  0.4913750000000 1.0
C      1  0.4997000000000  0.5850290000000  0.5003370000000 1.0
C      1  0.4023190000000  0.5051030000000  0.4891960000000 1.0
C      1  0.5071150000000  0.4046530000000  0.4997750000000 1.0
C      1  0.5097550000000  0.5123010000000  0.5353000000000 1.0
END
