TITL C-74085-4933-103 -1.35585913356761e-06 125000 -901.014782948736 0 0 144 (C1) n - 1
REM
REM in /home/nfs/bkarasulu/CARBON/AIRSS/Generating-Clusters/LCBOP/Higher-Symm/SD-CG/FIRE-CG
REM
REM
REM
REM
REM
REM ./C.cell (b20cbc046b6831c77cfcea5457e17084)
REM AIRSS Version 0.9.1 bugfix July 2018 build 013d7b7c2542+ Fri, 06 Jul 2018 19:26:36 +0100
REM compiler GCC version 9.2.1 20190827 (Red Hat 9.2.1-1)
REM options -cpp -mtune=generic -march=x86-64 -g -O0 -fpre-include=/usr/include/finclude/math-vector-fortran.h
REM seed 59262078 -1755818768 1393291763 731329141 1167127551 -746727188 1472216092 -951472861 768122837 2113210687 1877929352 809004047 -1053500292 1100540595 -900034819 -1651872185 -735194728 -2081792600 2075064050 1635520682 -1721821112 -1942140935 1494591901 -1387446416 -476491271 1895338545 1875912097 2076105990 886267304 1785269592 -167132109 -914527114 -648436100
REM
CELL 1.54180   50.00000   50.00000   50.00000   90.00000   90.00000   90.00000
LATT -1
SFAC C  
C      1  0.5334780000000  0.3929860000000  0.5425300000000 1.0
C      1  0.3859740000000  0.5258860000000  0.5481540000000 1.0
C      1  0.5820430000000  0.5827890000000  0.5437160000000 1.0
C      1  0.5348430000000  0.3891610000000  0.4510500000000 1.0
C      1  0.3911350000000  0.5268370000000  0.4574380000000 1.0
C      1  0.5786520000000  0.5848670000000  0.4557770000000 1.0
C      1  0.4419970000000  0.5797390000000  0.4508620000000 1.0
C      1  0.5805090000000  0.5099920000000  0.4662770000000 1.0
C      1  0.4629950000000  0.4112390000000  0.4439750000000 1.0
C      1  0.4412710000000  0.5767340000000  0.5578590000000 1.0
C      1  0.5805320000000  0.5091230000000  0.5290220000000 1.0
C      1  0.4632480000000  0.4142560000000  0.5494500000000 1.0
C      1  0.5604510000000  0.4023130000000  0.4480870000000 1.0
C      1  0.3915870000000  0.4984080000000  0.4541640000000 1.0
C      1  0.5529590000000  0.5979910000000  0.4542710000000 1.0
C      1  0.5590400000000  0.4056750000000  0.5460860000000 1.0
C      1  0.3857010000000  0.4971600000000  0.5505460000000 1.0
C      1  0.5564910000000  0.5952450000000  0.5482250000000 1.0
C      1  0.4997300000000  0.3963820000000  0.5093460000000 1.0
C      1  0.4073930000000  0.5550620000000  0.5177030000000 1.0
C      1  0.6021810000000  0.5546130000000  0.5114270000000 1.0
C      1  0.4998930000000  0.3948480000000  0.4824880000000 1.0
C      1  0.4090980000000  0.5550390000000  0.4908640000000 1.0
C      1  0.6014140000000  0.5552540000000  0.4848000000000 1.0
C      1  0.5242190000000  0.5394580000000  0.4735130000000 1.0
C      1  0.5347750000000  0.4499860000000  0.4689600000000 1.0
C      1  0.4851460000000  0.4817510000000  0.4817740000000 1.0
C      1  0.4875070000000  0.5414140000000  0.5215610000000 1.0
C      1  0.5273450000000  0.4835950000000  0.5210000000000 1.0
C      1  0.4421530000000  0.4961130000000  0.5280710000000 1.0
C      1  0.4406880000000  0.5403580000000  0.4230570000000 1.0
C      1  0.5669770000000  0.5287560000000  0.4233180000000 1.0
C      1  0.4969050000000  0.4202230000000  0.4104600000000 1.0
C      1  0.4291240000000  0.5425940000000  0.5901400000000 1.0
C      1  0.5677820000000  0.5286460000000  0.5727400000000 1.0
C      1  0.4981570000000  0.4351100000000  0.5750110000000 1.0
C      1  0.4767530000000  0.5035830000000  0.6378360000000 1.0
C      1  0.5261050000000  0.5017210000000  0.6318190000000 1.0
C      1  0.5005700000000  0.4890900000000  0.6317820000000 1.0
C      1  0.4788370000000  0.5025950000000  0.3670260000000 1.0
C      1  0.5271560000000  0.4975900000000  0.3647320000000 1.0
C      1  0.5014680000000  0.4853170000000  0.3652150000000 1.0
C      1  0.5476870000000  0.5155810000000  0.4072560000000 1.0
C      1  0.4981520000000  0.4460550000000  0.3990050000000 1.0
C      1  0.4600660000000  0.5254040000000  0.4092640000000 1.0
C      1  0.5463790000000  0.5230870000000  0.5903350000000 1.0
C      1  0.4960860000000  0.4593680000000  0.5893270000000 1.0
C      1  0.4506920000000  0.5298480000000  0.6033100000000 1.0
C      1  0.5225570000000  0.4769010000000  0.4287920000000 1.0
C      1  0.4757880000000  0.4825010000000  0.4240530000000 1.0
C      1  0.5043260000000  0.5194700000000  0.4336800000000 1.0
C      1  0.5146060000000  0.4982550000000  0.5635350000000 1.0
C      1  0.4698390000000  0.4999900000000  0.5701000000000 1.0
C      1  0.4976000000000  0.5360320000000  0.5860580000000 1.0
C      1  0.5277620000000  0.6192870000000  0.5173350000000 1.0
C      1  0.5916620000000  0.4151820000000  0.5115770000000 1.0
C      1  0.3816270000000  0.4635760000000  0.5154920000000 1.0
C      1  0.5269220000000  0.6203260000000  0.4889690000000 1.0
C      1  0.5915530000000  0.4146360000000  0.4832470000000 1.0
C      1  0.3836730000000  0.4638410000000  0.4872000000000 1.0
C      1  0.5248780000000  0.5944780000000  0.4498580000000 1.0
C      1  0.5724730000000  0.4278780000000  0.4427560000000 1.0
C      1  0.4092860000000  0.4764270000000  0.4501550000000 1.0
C      1  0.5289290000000  0.5906120000000  0.5542750000000 1.0
C      1  0.5710040000000  0.4313270000000  0.5503180000000 1.0
C      1  0.4017640000000  0.4742000000000  0.5564590000000 1.0
C      1  0.5161280000000  0.3607190000000  0.5112560000000 1.0
C      1  0.3682400000000  0.5563960000000  0.5152450000000 1.0
C      1  0.6180120000000  0.5903940000000  0.5120290000000 1.0
C      1  0.5166770000000  0.3594270000000  0.4845640000000 1.0
C      1  0.3698710000000  0.5566380000000  0.4885740000000 1.0
C      1  0.6169910000000  0.5910200000000  0.4851210000000 1.0
C      1  0.3669220000000  0.5338480000000  0.4729220000000 1.0
C      1  0.5962210000000  0.6033950000000  0.4713920000000 1.0
C      1  0.5390970000000  0.3660770000000  0.4694340000000 1.0
C      1  0.3636590000000  0.5331430000000  0.5298340000000 1.0
C      1  0.5985280000000  0.6020100000000  0.5280940000000 1.0
C      1  0.5380000000000  0.3684400000000  0.5265270000000 1.0
C      1  0.5118620000000  0.5011040000000  0.5354940000000 1.0
C      1  0.4642600000000  0.5042780000000  0.5426480000000 1.0
C      1  0.4873480000000  0.5146470000000  0.5289780000000 1.0
C      1  0.5251720000000  0.4728340000000  0.4566720000000 1.0
C      1  0.5090340000000  0.4916740000000  0.4714180000000 1.0
C      1  0.5103960000000  0.5186160000000  0.4616840000000 1.0
C      1  0.5882230000000  0.4886290000000  0.4827800000000 1.0
C      1  0.4405900000000  0.4177690000000  0.4567880000000 1.0
C      1  0.4579610000000  0.5982880000000  0.4609850000000 1.0
C      1  0.5890970000000  0.4887950000000  0.5115590000000 1.0
C      1  0.4382230000000  0.4179860000000  0.5415890000000 1.0
C      1  0.4601840000000  0.5931090000000  0.5486740000000 1.0
C      1  0.5225300000000  0.5578830000000  0.4925880000000 1.0
C      1  0.5384220000000  0.4431360000000  0.4944850000000 1.0
C      1  0.4592080000000  0.4786440000000  0.4862140000000 1.0
C      1  0.5037460000000  0.5598310000000  0.5114230000000 1.0
C      1  0.5354450000000  0.4589020000000  0.5157340000000 1.0
C      1  0.4402680000000  0.4850730000000  0.5038250000000 1.0
C      1  0.4000620000000  0.4538240000000  0.5358170000000 1.0
C      1  0.5107290000000  0.6053950000000  0.5368780000000 1.0
C      1  0.5897090000000  0.4383180000000  0.5293170000000 1.0
C      1  0.4049940000000  0.4547720000000  0.4691680000000 1.0
C      1  0.5087260000000  0.6081380000000  0.4698020000000 1.0
C      1  0.5893990000000  0.4371370000000  0.4645770000000 1.0
C      1  0.5776430000000  0.5326780000000  0.4493650000000 1.0
C      1  0.4900970000000  0.4096330000000  0.4360840000000 1.0
C      1  0.4314940000000  0.5542310000000  0.4459140000000 1.0
C      1  0.5785840000000  0.5312390000000  0.5466560000000 1.0
C      1  0.4907910000000  0.4180680000000  0.5535910000000 1.0
C      1  0.4251110000000  0.5544570000000  0.5644400000000 1.0
C      1  0.5081850000000  0.4049370000000  0.5351720000000 1.0
C      1  0.4081630000000  0.5440580000000  0.5438990000000 1.0
C      1  0.5876450000000  0.5557980000000  0.5355590000000 1.0
C      1  0.5084860000000  0.4003260000000  0.4559110000000 1.0
C      1  0.4129280000000  0.5441360000000  0.4649640000000 1.0
C      1  0.5855220000000  0.5573650000000  0.4614520000000 1.0
C      1  0.5635890000000  0.3714780000000  0.5125550000000 1.0
C      1  0.3561480000000  0.5091960000000  0.5147070000000 1.0
C      1  0.5801290000000  0.6208430000000  0.5152820000000 1.0
C      1  0.5640530000000  0.3705860000000  0.4840740000000 1.0
C      1  0.3577880000000  0.5094110000000  0.4862950000000 1.0
C      1  0.5791440000000  0.6215160000000  0.4868110000000 1.0
C      1  0.4831640000000  0.6038000000000  0.5403670000000 1.0
C      1  0.5967530000000  0.4644570000000  0.5235540000000 1.0
C      1  0.4159900000000  0.4312380000000  0.5358520000000 1.0
C      1  0.4811230000000  0.6083170000000  0.4690500000000 1.0
C      1  0.5941230000000  0.4639500000000  0.4702450000000 1.0
C      1  0.4204350000000  0.4317590000000  0.4671920000000 1.0
C      1  0.5454810000000  0.5136440000000  0.6170740000000 1.0
C      1  0.4983590000000  0.4646240000000  0.6170820000000 1.0
C      1  0.4560730000000  0.5188100000000  0.6288920000000 1.0
C      1  0.5458330000000  0.5104760000000  0.3795010000000 1.0
C      1  0.4992850000000  0.4576600000000  0.3730280000000 1.0
C      1  0.4632730000000  0.5191740000000  0.3817360000000 1.0
C      1  0.4981880000000  0.4661570000000  0.4186220000000 1.0
C      1  0.4783190000000  0.5109390000000  0.4252910000000 1.0
C      1  0.5259810000000  0.5045240000000  0.4212240000000 1.0
C      1  0.4926990000000  0.4827950000000  0.5743240000000 1.0
C      1  0.4718270000000  0.5240500000000  0.5856390000000 1.0
C      1  0.5208570000000  0.5217560000000  0.5782960000000 1.0
C      1  0.5769840000000  0.3936950000000  0.5249610000000 1.0
C      1  0.3687740000000  0.4869870000000  0.5277400000000 1.0
C      1  0.5548230000000  0.6180610000000  0.5286350000000 1.0
C      1  0.5776320000000  0.3921410000000  0.4707700000000 1.0
C      1  0.3720140000000  0.4874700000000  0.4742100000000 1.0
C      1  0.5529790000000  0.6195080000000  0.4754040000000 1.0
END
