TITL C-74085-4933-61 1.94851450034755e-07 125000 -236.639758817747 0 0 38 (C2v) n - 1
REM
REM in /home/nfs/bkarasulu/CARBON/AIRSS/Generating-Clusters/LCBOP/Higher-Symm/SD-CG/FIRE-CG
REM
REM
REM
REM
REM
REM ./C.cell (b20cbc046b6831c77cfcea5457e17084)
REM AIRSS Version 0.9.1 bugfix July 2018 build 013d7b7c2542+ Fri, 06 Jul 2018 19:26:36 +0100
REM compiler GCC version 9.2.1 20190827 (Red Hat 9.2.1-1)
REM options -cpp -mtune=generic -march=x86-64 -g -O0 -fpre-include=/usr/include/finclude/math-vector-fortran.h
REM seed -839564335 122966162 -378741331 -1500689237 -1139641151 -1393137367 -234478385 -271670119 -394308876 -1297319533 -1538621165 -790578086 514843903 -1224950811 -1226960453 1701124660 2034866485 1082020395 -853863792 1239600506 1620105869 1614509478 1740637998 1854938530 551647693 554568819 -352477354 -21171013 -1796222809 1701779287 -1312751873 -1308205980 1807787736
REM
CELL 1.54180   50.00000   50.00000   50.00000   90.00000   90.00000   90.00000
LATT -1
SFAC C  
C      1  0.5443520000000  0.4639400000000  0.4958730000000 1.0
C      1  0.4556510000000  0.5360630000000  0.4958620000000 1.0
C      1  0.5443530000000  0.5360580000000  0.4958730000000 1.0
C      1  0.4556500000000  0.4639390000000  0.4958620000000 1.0
C      1  0.5605390000000  0.4866570000000  0.4946820000000 1.0
C      1  0.4394660000000  0.5133430000000  0.4946780000000 1.0
C      1  0.5605400000000  0.5133410000000  0.4946820000000 1.0
C      1  0.4394650000000  0.4866590000000  0.4946780000000 1.0
C      1  0.5353150000000  0.5472940000000  0.5209310000000 1.0
C      1  0.4646960000000  0.4527080000000  0.5209160000000 1.0
C      1  0.5353140000000  0.4527050000000  0.5209310000000 1.0
C      1  0.4646980000000  0.5472930000000  0.5209160000000 1.0
C      1  0.4866820000000  0.4358800000000  0.5183340000000 1.0
C      1  0.5133360000000  0.5641290000000  0.5183380000000 1.0
C      1  0.4866840000000  0.5641200000000  0.5183340000000 1.0
C      1  0.5133340000000  0.4358700000000  0.5183380000000 1.0
C      1  0.4564920000000  0.4641740000000  0.5450220000000 1.0
C      1  0.5435160000000  0.5358270000000  0.5450370000000 1.0
C      1  0.4564930000000  0.5358280000000  0.5450230000000 1.0
C      1  0.5435150000000  0.4641710000000  0.5450370000000 1.0
C      1  0.4718290000000  0.5445740000000  0.4736720000000 1.0
C      1  0.5281560000000  0.4554260000000  0.4736930000000 1.0
C      1  0.4718270000000  0.4554270000000  0.4736710000000 1.0
C      1  0.5281580000000  0.5445730000000  0.4736930000000 1.0
C      1  0.4865440000000  0.5677050000000  0.4793500000000 1.0
C      1  0.5134260000000  0.4323100000000  0.4794170000000 1.0
C      1  0.4865420000000  0.4322960000000  0.4793500000000 1.0
C      1  0.5134290000000  0.5676890000000  0.4794170000000 1.0
C      1  0.4853370000000  0.4748570000000  0.4575610000000 1.0
C      1  0.5146570000000  0.5251450000000  0.4575720000000 1.0
C      1  0.4853380000000  0.5251440000000  0.4575610000000 1.0
C      1  0.5146560000000  0.4748550000000  0.4575720000000 1.0
C      1  0.4523750000000  0.5133260000000  0.5586990000000 1.0
C      1  0.5476320000000  0.4866740000000  0.5587130000000 1.0
C      1  0.4523740000000  0.4866750000000  0.5586990000000 1.0
C      1  0.5476320000000  0.5133240000000  0.5587130000000 1.0
C      1  0.4740300000000  0.5000010000000  0.4509030000000 1.0
C      1  0.5259680000000  0.5000000000000  0.4509220000000 1.0
END
