TITL C-74084-3399-291 4.31485247731988e-07 125000 -729.72377765748 0 0 120 (C1) n - 1
REM
REM in /home/nfs/bkarasulu/CARBON/AIRSS/Generating-Clusters/LCBOP/Higher-Symm/SD-CG/FIRE-CG
REM
REM
REM
REM
REM
REM ./C.cell (b20cbc046b6831c77cfcea5457e17084)
REM AIRSS Version 0.9.1 bugfix July 2018 build 013d7b7c2542+ Fri, 06 Jul 2018 19:26:36 +0100
REM compiler GCC version 9.2.1 20190827 (Red Hat 9.2.1-1)
REM options -cpp -mtune=generic -march=x86-64 -g -O0 -fpre-include=/usr/include/finclude/math-vector-fortran.h
REM seed -219326494 638755630 32228441 598961707 657620134 -1128736775 -1536973747 1003933129 -1958143122 891088378 649095325 -609786704 1008477760 342407876 -980206635 -1098090616 -589958122 1036636893 256018231 -1405081984 1501342789 2100719281 -676390523 -445970132 416831767 -2124199997 594292470 -312240754 886157076 408612425 -658023160 -1659879234 2087569099
REM
CELL 1.54180   50.00000   50.00000   50.00000   90.00000   90.00000   90.00000
LATT -1
SFAC C  
C      1  0.5415740000000  0.5675620000000  0.4625540000000 1.0
C      1  0.4468910000000  0.5587190000000  0.4632900000000 1.0
C      1  0.4282670000000  0.4691080000000  0.4617090000000 1.0
C      1  0.5070580000000  0.4223260000000  0.4636730000000 1.0
C      1  0.5763790000000  0.4804260000000  0.4636750000000 1.0
C      1  0.4792540000000  0.4839920000000  0.5777610000000 1.0
C      1  0.5099640000000  0.4753210000000  0.5788270000000 1.0
C      1  0.5281370000000  0.5020400000000  0.5788020000000 1.0
C      1  0.5083920000000  0.5276820000000  0.5788090000000 1.0
C      1  0.4779510000000  0.5171710000000  0.5797390000000 1.0
C      1  0.5413140000000  0.5284640000000  0.5285890000000 1.0
C      1  0.4856890000000  0.5481710000000  0.5293120000000 1.0
C      1  0.4519060000000  0.5083190000000  0.5387710000000 1.0
C      1  0.4847540000000  0.4523310000000  0.5273770000000 1.0
C      1  0.5399890000000  0.4693590000000  0.5310090000000 1.0
C      1  0.4807960000000  0.4880110000000  0.4532670000000 1.0
C      1  0.5091710000000  0.4885260000000  0.4485690000000 1.0
C      1  0.5148410000000  0.5173120000000  0.4474530000000 1.0
C      1  0.4946870000000  0.5293200000000  0.4636830000000 1.0
C      1  0.4717610000000  0.5156610000000  0.4528450000000 1.0
C      1  0.5649200000000  0.5713900000000  0.5529460000000 1.0
C      1  0.4523540000000  0.5864570000000  0.5541680000000 1.0
C      1  0.4225990000000  0.4782760000000  0.5338120000000 1.0
C      1  0.4903830000000  0.4048750000000  0.5559750000000 1.0
C      1  0.5885050000000  0.4616230000000  0.5544120000000 1.0
C      1  0.5757000000000  0.5714030000000  0.5265760000000 1.0
C      1  0.4549060000000  0.5940770000000  0.5269180000000 1.0
C      1  0.3956990000000  0.4824260000000  0.5238470000000 1.0
C      1  0.4830830000000  0.3971370000000  0.5294850000000 1.0
C      1  0.5921150000000  0.4504070000000  0.5284270000000 1.0
C      1  0.5643100000000  0.5195290000000  0.5435600000000 1.0
C      1  0.5014590000000  0.5672260000000  0.5439180000000 1.0
C      1  0.4346890000000  0.5273650000000  0.5498630000000 1.0
C      1  0.4614460000000  0.4453300000000  0.5428650000000 1.0
C      1  0.5382400000000  0.4451150000000  0.5462290000000 1.0
C      1  0.4929410000000  0.4013190000000  0.4808690000000 1.0
C      1  0.5892230000000  0.4573910000000  0.4789900000000 1.0
C      1  0.5671030000000  0.5729610000000  0.4777930000000 1.0
C      1  0.4499710000000  0.5852070000000  0.4785300000000 1.0
C      1  0.4039010000000  0.4776060000000  0.4769770000000 1.0
C      1  0.5227780000000  0.4877500000000  0.4063340000000 1.0
C      1  0.5207250000000  0.5184970000000  0.4046340000000 1.0
C      1  0.4902940000000  0.5249480000000  0.4061150000000 1.0
C      1  0.4748860000000  0.4989490000000  0.4064540000000 1.0
C      1  0.4947490000000  0.4761490000000  0.4069640000000 1.0
C      1  0.4309370000000  0.4741620000000  0.5603490000000 1.0
C      1  0.5025120000000  0.4239350000000  0.5710470000000 1.0
C      1  0.5748160000000  0.4797320000000  0.5693270000000 1.0
C      1  0.5435400000000  0.5646520000000  0.5682060000000 1.0
C      1  0.4533300000000  0.5659830000000  0.5718810000000 1.0
C      1  0.5070420000000  0.5902820000000  0.5266770000000 1.0
C      1  0.4141520000000  0.5345470000000  0.5290130000000 1.0
C      1  0.4418530000000  0.4276840000000  0.5278200000000 1.0
C      1  0.5492230000000  0.4222240000000  0.5314040000000 1.0
C      1  0.5883250000000  0.5209830000000  0.5269170000000 1.0
C      1  0.4531800000000  0.5496740000000  0.4344420000000 1.0
C      1  0.4406110000000  0.4726440000000  0.4346100000000 1.0
C      1  0.5083000000000  0.4361910000000  0.4368940000000 1.0
C      1  0.5637820000000  0.4885410000000  0.4375350000000 1.0
C      1  0.5321480000000  0.5584550000000  0.4356460000000 1.0
C      1  0.4348210000000  0.5099440000000  0.4915500000000 1.0
C      1  0.4646260000000  0.4383440000000  0.4865570000000 1.0
C      1  0.5431780000000  0.4477750000000  0.4889820000000 1.0
C      1  0.5612380000000  0.5262550000000  0.4853360000000 1.0
C      1  0.4929010000000  0.5662460000000  0.4857540000000 1.0
C      1  0.3970200000000  0.4608830000000  0.5020330000000 1.0
C      1  0.5049530000000  0.3959150000000  0.5091350000000 1.0
C      1  0.6000010000000  0.4686480000000  0.5064500000000 1.0
C      1  0.5601100000000  0.5852230000000  0.5055320000000 1.0
C      1  0.4367240000000  0.5825380000000  0.5064630000000 1.0
C      1  0.5195960000000  0.4865410000000  0.5364730000000 1.0
C      1  0.5194470000000  0.5141940000000  0.5364770000000 1.0
C      1  0.4935080000000  0.5227660000000  0.5352260000000 1.0
C      1  0.4761140000000  0.5004500000000  0.5270010000000 1.0
C      1  0.4934320000000  0.4775330000000  0.5337430000000 1.0
C      1  0.5044370000000  0.5655870000000  0.4285860000000 1.0
C      1  0.4381370000000  0.5254630000000  0.4254230000000 1.0
C      1  0.4587890000000  0.4508500000000  0.4272740000000 1.0
C      1  0.5347130000000  0.4463250000000  0.4294320000000 1.0
C      1  0.5632360000000  0.5167720000000  0.4294520000000 1.0
C      1  0.5165070000000  0.5549770000000  0.5666150000000 1.0
C      1  0.4520950000000  0.5376410000000  0.5715380000000 1.0
C      1  0.4577690000000  0.4651010000000  0.5654070000000 1.0
C      1  0.5188050000000  0.4474700000000  0.5685700000000 1.0
C      1  0.5570340000000  0.5022750000000  0.5669010000000 1.0
C      1  0.5422700000000  0.5345280000000  0.4193040000000 1.0
C      1  0.4812800000000  0.5497780000000  0.4208520000000 1.0
C      1  0.4477320000000  0.4983440000000  0.4196730000000 1.0
C      1  0.4870280000000  0.4512470000000  0.4218100000000 1.0
C      1  0.5435090000000  0.4728210000000  0.4220970000000 1.0
C      1  0.4727150000000  0.4808930000000  0.4787560000000 1.0
C      1  0.5246570000000  0.4818170000000  0.4706270000000 1.0
C      1  0.5223920000000  0.5009410000000  0.4896230000000 1.0
C      1  0.4996490000000  0.5171200000000  0.4891020000000 1.0
C      1  0.4787210000000  0.5005220000000  0.4979930000000 1.0
C      1  0.4782340000000  0.5916190000000  0.4856350000000 1.0
C      1  0.4054490000000  0.5071090000000  0.4863540000000 1.0
C      1  0.4645000000000  0.4093900000000  0.4878250000000 1.0
C      1  0.5700840000000  0.4358120000000  0.4881790000000 1.0
C      1  0.5812170000000  0.5479390000000  0.4855770000000 1.0
C      1  0.5493320000000  0.4714040000000  0.5048880000000 1.0
C      1  0.5397810000000  0.5378800000000  0.5016440000000 1.0
C      1  0.4755360000000  0.5497390000000  0.5028730000000 1.0
C      1  0.4385210000000  0.4818770000000  0.5076180000000 1.0
C      1  0.4906530000000  0.4446580000000  0.5007720000000 1.0
C      1  0.5918840000000  0.4972390000000  0.5093090000000 1.0
C      1  0.5304400000000  0.5857700000000  0.5087680000000 1.0
C      1  0.4263560000000  0.5546110000000  0.5098150000000 1.0
C      1  0.4158890000000  0.4376290000000  0.5135170000000 1.0
C      1  0.5310880000000  0.4030600000000  0.5193720000000 1.0
C      1  0.5901730000000  0.5480390000000  0.5145260000000 1.0
C      1  0.4814880000000  0.6004130000000  0.5144920000000 1.0
C      1  0.3961220000000  0.5115200000000  0.5149210000000 1.0
C      1  0.4575750000000  0.4048260000000  0.5164970000000 1.0
C      1  0.5744220000000  0.4291350000000  0.5175340000000 1.0
C      1  0.5680960000000  0.4972630000000  0.4888100000000 1.0
C      1  0.5228550000000  0.5630890000000  0.4878170000000 1.0
C      1  0.4462900000000  0.5390700000000  0.4897570000000 1.0
C      1  0.4496200000000  0.4638040000000  0.4841560000000 1.0
C      1  0.5157450000000  0.4404550000000  0.4854520000000 1.0
END
