TITL C-74082-2733-54 5.25426941629094 125000 -1063.46259794539 0 0 172 (C1) n - 1
REM
REM in /home/nfs/bkarasulu/CARBON/AIRSS/Generating-Clusters/LCBOP/Higher-Symm/SD-CG/FIRE-CG
REM
REM
REM
REM
REM
REM ./C.cell (b20cbc046b6831c77cfcea5457e17084)
REM AIRSS Version 0.9.1 bugfix July 2018 build 013d7b7c2542+ Fri, 06 Jul 2018 19:26:36 +0100
REM compiler GCC version 9.2.1 20190827 (Red Hat 9.2.1-1)
REM options -cpp -mtune=generic -march=x86-64 -g -O0 -fpre-include=/usr/include/finclude/math-vector-fortran.h
REM seed 655484837 531779546 587004686 300519959 702110984 83543003 449466271 580231381 -1868819606 -1120972729 -608204942 -1562519020 1639510655 1325289386 -629501294 2030386077 1027982213 1688224502 -1483014069 1208443585 -317707414 1772441173 742355700 760209975 -101998962 -738733244 84168862 884210530 -236074078 1082202943 2019324625 -1877423811 1119292793
REM
CELL 1.54180   50.00000   50.00000   50.00000   90.00000   90.00000   90.00000
LATT -1
SFAC C  
C      1  0.3950320000000  0.5621260000000  0.4762070000000 1.0
C      1  0.5328580000000  0.5615460000000  0.5964640000000 1.0
C      1  0.5704920000000  0.5642660000000  0.4172290000000 1.0
C      1  0.5229030000000  0.3875970000000  0.4639470000000 1.0
C      1  0.4415550000000  0.4016790000000  0.4876900000000 1.0
C      1  0.5149390000000  0.3822060000000  0.5404370000000 1.0
C      1  0.5162530000000  0.5667200000000  0.4904240000000 1.0
C      1  0.4747230000000  0.5659920000000  0.5086160000000 1.0
C      1  0.5014160000000  0.5625140000000  0.5128060000000 1.0
C      1  0.4461460000000  0.4963740000000  0.5011560000000 1.0
C      1  0.5337740000000  0.5059030000000  0.5518730000000 1.0
C      1  0.5259470000000  0.5018470000000  0.4562460000000 1.0
C      1  0.6294350000000  0.4849730000000  0.4527500000000 1.0
C      1  0.3946040000000  0.4921600000000  0.4048910000000 1.0
C      1  0.4961030000000  0.4865590000000  0.6342380000000 1.0
C      1  0.4957930000000  0.4318440000000  0.5421420000000 1.0
C      1  0.5256750000000  0.4373860000000  0.4885930000000 1.0
C      1  0.4729210000000  0.4357100000000  0.4740110000000 1.0
C      1  0.5430700000000  0.5243620000000  0.5067150000000 1.0
C      1  0.4857310000000  0.5247990000000  0.4626380000000 1.0
C      1  0.4711590000000  0.5188210000000  0.5334090000000 1.0
C      1  0.5073210000000  0.4489460000000  0.4466800000000 1.0
C      1  0.4468060000000  0.4430890000000  0.5139030000000 1.0
C      1  0.5420770000000  0.4508970000000  0.5446930000000 1.0
C      1  0.3959450000000  0.4848290000000  0.5530830000000 1.0
C      1  0.6415840000000  0.5183300000000  0.5717330000000 1.0
C      1  0.5062560000000  0.4813900000000  0.3890670000000 1.0
C      1  0.5721700000000  0.5816800000000  0.4593300000000 1.0
C      1  0.4316760000000  0.5793880000000  0.4539340000000 1.0
C      1  0.4958570000000  0.5810280000000  0.5767690000000 1.0
C      1  0.4181630000000  0.5769130000000  0.5247910000000 1.0
C      1  0.5631700000000  0.5768310000000  0.5485720000000 1.0
C      1  0.5162230000000  0.5759580000000  0.4153080000000 1.0
C      1  0.4027480000000  0.4938630000000  0.5063570000000 1.0
C      1  0.6275860000000  0.5493610000000  0.6042290000000 1.0
C      1  0.5429010000000  0.4954690000000  0.4168430000000 1.0
C      1  0.4377140000000  0.4512310000000  0.4409960000000 1.0
C      1  0.4727960000000  0.4430490000000  0.5812910000000 1.0
C      1  0.5708630000000  0.4530610000000  0.4781450000000 1.0
C      1  0.5624300000000  0.4159940000000  0.4493710000000 1.0
C      1  0.4121070000000  0.4131230000000  0.4520740000000 1.0
C      1  0.4953830000000  0.3988700000000  0.5857810000000 1.0
C      1  0.4767330000000  0.5489950000000  0.4140870000000 1.0
C      1  0.4351770000000  0.5506710000000  0.5616900000000 1.0
C      1  0.5864690000000  0.5462930000000  0.5165190000000 1.0
C      1  0.4534670000000  0.4271260000000  0.4918010000000 1.0
C      1  0.5196580000000  0.4379790000000  0.5555690000000 1.0
C      1  0.5023510000000  0.4365780000000  0.4736530000000 1.0
C      1  0.4551710000000  0.5381550000000  0.6037640000000 1.0
C      1  0.6091240000000  0.5307070000000  0.4765120000000 1.0
C      1  0.4320950000000  0.5314600000000  0.4159380000000 1.0
C      1  0.4709370000000  0.5844310000000  0.5631470000000 1.0
C      1  0.5727560000000  0.5850100000000  0.4877910000000 1.0
C      1  0.4562230000000  0.5852860000000  0.4401490000000 1.0
C      1  0.5849930000000  0.5581280000000  0.5425110000000 1.0
C      1  0.5039460000000  0.5523820000000  0.4047580000000 1.0
C      1  0.4144390000000  0.5540310000000  0.5415880000000 1.0
C      1  0.3678090000000  0.5057910000000  0.4831740000000 1.0
C      1  0.5213470000000  0.4177590000000  0.6635030000000 1.0
C      1  0.5777240000000  0.5027310000000  0.3918960000000 1.0
C      1  0.4792480000000  0.4926060000000  0.5728980000000 1.0
C      1  0.5808910000000  0.4960810000000  0.4984440000000 1.0
C      1  0.4484990000000  0.4964790000000  0.4496470000000 1.0
C      1  0.6224260000000  0.5265540000000  0.5524010000000 1.0
C      1  0.4980390000000  0.5080140000000  0.3836800000000 1.0
C      1  0.3960150000000  0.5122640000000  0.5603160000000 1.0
C      1  0.5173340000000  0.5755150000000  0.5556430000000 1.0
C      1  0.5422560000000  0.5766820000000  0.4522760000000 1.0
C      1  0.4376470000000  0.5768800000000  0.4837800000000 1.0
C      1  0.5090290000000  0.3880510000000  0.4386610000000 1.0
C      1  0.4358320000000  0.3873520000000  0.5116110000000 1.0
C      1  0.5433700000000  0.3873920000000  0.5428120000000 1.0
C      1  0.4866490000000  0.4334920000000  0.4314920000000 1.0
C      1  0.4490300000000  0.4275970000000  0.5383010000000 1.0
C      1  0.5556870000000  0.4343260000000  0.5244160000000 1.0
C      1  0.5524730000000  0.5402040000000  0.4835410000000 1.0
C      1  0.4693870000000  0.5466400000000  0.4634200000000 1.0
C      1  0.4843280000000  0.5380180000000  0.5518770000000 1.0
C      1  0.5557950000000  0.4046240000000  0.5228320000000 1.0
C      1  0.4851500000000  0.4036130000000  0.4342280000000 1.0
C      1  0.4474110000000  0.3982780000000  0.5356540000000 1.0
C      1  0.4919560000000  0.4817870000000  0.4764320000000 1.0
C      1  0.4810650000000  0.4753370000000  0.5227190000000 1.0
C      1  0.5295950000000  0.4821080000000  0.5117130000000 1.0
C      1  0.4926110000000  0.5200440000000  0.5779380000000 1.0
C      1  0.5676720000000  0.5220510000000  0.4559990000000 1.0
C      1  0.4264130000000  0.5124110000000  0.4611040000000 1.0
C      1  0.5256280000000  0.4753990000000  0.4070600000000 1.0
C      1  0.4018390000000  0.4760860000000  0.5281420000000 1.0
C      1  0.6441540000000  0.5291450000000  0.5965750000000 1.0
C      1  0.4508050000000  0.6023130000000  0.4948510000000 1.0
C      1  0.5207550000000  0.6000230000000  0.5377480000000 1.0
C      1  0.5253920000000  0.6013530000000  0.4584290000000 1.0
C      1  0.5715390000000  0.5585140000000  0.4967940000000 1.0
C      1  0.4685180000000  0.5600510000000  0.4384290000000 1.0
C      1  0.4618100000000  0.5582230000000  0.5573440000000 1.0
C      1  0.4841510000000  0.5393790000000  0.6000330000000 1.0
C      1  0.5916620000000  0.5366570000000  0.4540030000000 1.0
C      1  0.4191390000000  0.5334570000000  0.4421610000000 1.0
C      1  0.4202430000000  0.3649580000000  0.5119690000000 1.0
C      1  0.5581980000000  0.3763950000000  0.5630190000000 1.0
C      1  0.5187950000000  0.3728720000000  0.4179530000000 1.0
C      1  0.3950030000000  0.5311540000000  0.5372690000000 1.0
C      1  0.6045540000000  0.5484650000000  0.5606720000000 1.0
C      1  0.5177980000000  0.5288630000000  0.3914580000000 1.0
C      1  0.5031600000000  0.5990820000000  0.4400160000000 1.0
C      1  0.4457700000000  0.5999240000000  0.5235850000000 1.0
C      1  0.5490260000000  0.5968450000000  0.5291410000000 1.0
C      1  0.5026710000000  0.5623940000000  0.5986840000000 1.0
C      1  0.5867160000000  0.5625790000000  0.4417440000000 1.0
C      1  0.4103060000000  0.5590110000000  0.4514110000000 1.0
C      1  0.5364620000000  0.4789110000000  0.5400760000000 1.0
C      1  0.5118890000000  0.4766670000000  0.4555390000000 1.0
C      1  0.4549080000000  0.4704280000000  0.5114310000000 1.0
C      1  0.4586250000000  0.3934930000000  0.4424390000000 1.0
C      1  0.4665020000000  0.3829440000000  0.5506210000000 1.0
C      1  0.5597180000000  0.3950040000000  0.4954510000000 1.0
C      1  0.5050160000000  0.3901200000000  0.5141520000000 1.0
C      1  0.5093700000000  0.3807510000000  0.4881140000000 1.0
C      1  0.4961120000000  0.4166540000000  0.5185540000000 1.0
C      1  0.5216680000000  0.5119430000000  0.5767560000000 1.0
C      1  0.5502930000000  0.5042980000000  0.4430500000000 1.0
C      1  0.4222860000000  0.4997600000000  0.4869940000000 1.0
C      1  0.5438130000000  0.5699370000000  0.5703630000000 1.0
C      1  0.5433470000000  0.5723910000000  0.4223260000000 1.0
C      1  0.4109480000000  0.5728030000000  0.4976730000000 1.0
C      1  0.4628190000000  0.4413260000000  0.4470920000000 1.0
C      1  0.4705690000000  0.4361360000000  0.5545160000000 1.0
C      1  0.5519580000000  0.4434250000000  0.4970450000000 1.0
C      1  0.5134690000000  0.5273290000000  0.4607680000000 1.0
C      1  0.4571840000000  0.5210770000000  0.5093820000000 1.0
C      1  0.5310750000000  0.5285640000000  0.5327380000000 1.0
C      1  0.5865690000000  0.4808210000000  0.4084290000000 1.0
C      1  0.3750590000000  0.4841720000000  0.4657240000000 1.0
C      1  0.5092990000000  0.4278690000000  0.6427240000000 1.0
C      1  0.6001460000000  0.5204350000000  0.5050680000000 1.0
C      1  0.4574870000000  0.5314660000000  0.4023920000000 1.0
C      1  0.4317780000000  0.5366030000000  0.5864790000000 1.0
C      1  0.5718520000000  0.4430570000000  0.4499950000000 1.0
C      1  0.4110320000000  0.4415660000000  0.4497700000000 1.0
C      1  0.4871200000000  0.4233030000000  0.5979280000000 1.0
C      1  0.4686280000000  0.6031640000000  0.5414280000000 1.0
C      1  0.5545230000000  0.6027660000000  0.5011130000000 1.0
C      1  0.4758520000000  0.6042950000000  0.4494040000000 1.0
C      1  0.5887760000000  0.4754060000000  0.4806220000000 1.0
C      1  0.4354370000000  0.4780790000000  0.4323030000000 1.0
C      1  0.4781720000000  0.4702840000000  0.5903440000000 1.0
C      1  0.3928110000000  0.4668980000000  0.4488960000000 1.0
C      1  0.4966430000000  0.4385600000000  0.6205340000000 1.0
C      1  0.5874400000000  0.4647940000000  0.4337370000000 1.0
C      1  0.6086730000000  0.5585130000000  0.5869350000000 1.0
C      1  0.5503330000000  0.5135180000000  0.3962640000000 1.0
C      1  0.3829740000000  0.5141540000000  0.5074320000000 1.0
C      1  0.4735030000000  0.4992620000000  0.4630540000000 1.0
C      1  0.4767810000000  0.4926820000000  0.5441620000000 1.0
C      1  0.5521290000000  0.4978430000000  0.5026980000000 1.0
C      1  0.5347480000000  0.6138090000000  0.4826650000000 1.0
C      1  0.4685210000000  0.6144240000000  0.4756320000000 1.0
C      1  0.4951930000000  0.6128380000000  0.5333150000000 1.0
C      1  0.4089190000000  0.5200210000000  0.5847270000000 1.0
C      1  0.6199530000000  0.5148800000000  0.5267470000000 1.0
C      1  0.4700940000000  0.5140140000000  0.3841170000000 1.0
C      1  0.6034470000000  0.4773690000000  0.4556950000000 1.0
C      1  0.4067460000000  0.4819930000000  0.4269420000000 1.0
C      1  0.4909210000000  0.4667610000000  0.6163160000000 1.0
C      1  0.5500710000000  0.3974920000000  0.4679640000000 1.0
C      1  0.4354240000000  0.3976300000000  0.4598630000000 1.0
C      1  0.4935420000000  0.3842760000000  0.5610190000000 1.0
C      1  0.4568110000000  0.5524370000000  0.4903090000000 1.0
C      1  0.5097580000000  0.5503460000000  0.5386450000000 1.0
C      1  0.5300180000000  0.5526660000000  0.4685000000000 1.0
C      1  0.5018230000000  0.4793820000000  0.5035380000000 1.0
END
