TITL C-74079-2735-163 18.9863407204299 125000 -1049.5260849549 0 0 171 (C1) n - 1
REM
REM in /home/nfs/bkarasulu/CARBON/AIRSS/Generating-Clusters/LCBOP/Higher-Symm/SD-CG/FIRE-CG
REM
REM
REM
REM
REM
REM ./C.cell (b20cbc046b6831c77cfcea5457e17084)
REM AIRSS Version 0.9.1 bugfix July 2018 build 013d7b7c2542+ Fri, 06 Jul 2018 19:26:36 +0100
REM compiler GCC version 9.2.1 20190827 (Red Hat 9.2.1-1)
REM options -cpp -mtune=generic -march=x86-64 -g -O0 -fpre-include=/usr/include/finclude/math-vector-fortran.h
REM seed 2144104980 1686449985 -2039290992 1731500359 1573804808 -861776700 203109291 -1172320418 839096782 -1271347544 -730030241 289006269 -858982609 -1733732642 -1396169441 162120692 -1981353423 -653968302 1712781147 -47835843 -2134508476 -9692085 1898565929 1340790798 -679094279 -1501312222 958991315 -1556251859 -413077960 -1796763171 828284168 -1967721450 478152175
REM
CELL 1.54180   50.00000   50.00000   50.00000   90.00000   90.00000   90.00000
LATT -1
SFAC C  
C      1  0.5629260000000  0.5858440000000  0.5472750000000 1.0
C      1  0.3624770000000  0.5888100000000  0.4585700000000 1.0
C      1  0.5656780000000  0.3972750000000  0.5483880000000 1.0
C      1  0.4224440000000  0.4055980000000  0.4521860000000 1.0
C      1  0.4367220000000  0.4631800000000  0.4237700000000 1.0
C      1  0.6237410000000  0.4502170000000  0.6333650000000 1.0
C      1  0.4050350000000  0.5468960000000  0.4303410000000 1.0
C      1  0.6226160000000  0.5507460000000  0.5769600000000 1.0
C      1  0.4750380000000  0.3994390000000  0.4579900000000 1.0
C      1  0.5172840000000  0.3946630000000  0.5298560000000 1.0
C      1  0.4820470000000  0.6032710000000  0.4613400000000 1.0
C      1  0.5129480000000  0.5973260000000  0.5357350000000 1.0
C      1  0.4944750000000  0.4877570000000  0.3981530000000 1.0
C      1  0.5107330000000  0.4827550000000  0.5801800000000 1.0
C      1  0.4871110000000  0.5156070000000  0.3964160000000 1.0
C      1  0.5111760000000  0.5110810000000  0.5767750000000 1.0
C      1  0.4470740000000  0.5862660000000  0.4971800000000 1.0
C      1  0.5356470000000  0.5814380000000  0.4949790000000 1.0
C      1  0.4615940000000  0.4202930000000  0.4997690000000 1.0
C      1  0.5404310000000  0.4079850000000  0.4898610000000 1.0
C      1  0.4944090000000  0.5399140000000  0.3830500000000 1.0
C      1  0.4972290000000  0.5291830000000  0.5929890000000 1.0
C      1  0.4929710000000  0.4633510000000  0.3835040000000 1.0
C      1  0.4903730000000  0.4660630000000  0.5902140000000 1.0
C      1  0.4109700000000  0.4962550000000  0.3963220000000 1.0
C      1  0.6461650000000  0.4913130000000  0.6186990000000 1.0
C      1  0.3891730000000  0.5170520000000  0.3965870000000 1.0
C      1  0.6461510000000  0.5164980000000  0.6055430000000 1.0
C      1  0.6117730000000  0.5077580000000  0.4598070000000 1.0
C      1  0.3922670000000  0.5141850000000  0.5441650000000 1.0
C      1  0.6153850000000  0.4758330000000  0.4593620000000 1.0
C      1  0.4020880000000  0.4872860000000  0.5392570000000 1.0
C      1  0.4845930000000  0.4644690000000  0.4397480000000 1.0
C      1  0.5316650000000  0.4603600000000  0.5389680000000 1.0
C      1  0.4951480000000  0.5347290000000  0.4399120000000 1.0
C      1  0.5179070000000  0.5339970000000  0.5315140000000 1.0
C      1  0.5548780000000  0.4749900000000  0.4706940000000 1.0
C      1  0.4511400000000  0.4829760000000  0.4964530000000 1.0
C      1  0.5571510000000  0.5384120000000  0.4633920000000 1.0
C      1  0.4313340000000  0.5261310000000  0.4977120000000 1.0
C      1  0.5670410000000  0.5358670000000  0.4171530000000 1.0
C      1  0.4211900000000  0.5436040000000  0.6073400000000 1.0
C      1  0.5641670000000  0.4780640000000  0.4210910000000 1.0
C      1  0.4299310000000  0.4518450000000  0.6005170000000 1.0
C      1  0.4301160000000  0.4549890000000  0.3761820000000 1.0
C      1  0.6692190000000  0.4558590000000  0.6440650000000 1.0
C      1  0.3992120000000  0.5628300000000  0.3847800000000 1.0
C      1  0.6687680000000  0.5574040000000  0.5916750000000 1.0
C      1  0.3900170000000  0.5079640000000  0.5987060000000 1.0
C      1  0.6062190000000  0.5128410000000  0.3972400000000 1.0
C      1  0.3931130000000  0.4816090000000  0.5946840000000 1.0
C      1  0.6055430000000  0.4858730000000  0.3974880000000 1.0
C      1  0.5301210000000  0.4680540000000  0.5657910000000 1.0
C      1  0.5013450000000  0.4815940000000  0.4255030000000 1.0
C      1  0.5272940000000  0.5218710000000  0.5553950000000 1.0
C      1  0.4755090000000  0.5250080000000  0.4220290000000 1.0
C      1  0.3593770000000  0.5263810000000  0.4344910000000 1.0
C      1  0.5995070000000  0.5097450000000  0.5943890000000 1.0
C      1  0.3875610000000  0.4683200000000  0.4306640000000 1.0
C      1  0.5992760000000  0.4859740000000  0.6071870000000 1.0
C      1  0.5609490000000  0.4962550000000  0.5342740000000 1.0
C      1  0.4354100000000  0.5129240000000  0.4011630000000 1.0
C      1  0.5541370000000  0.5136970000000  0.5535510000000 1.0
C      1  0.4475400000000  0.5254680000000  0.4233350000000 1.0
C      1  0.3844300000000  0.5371860000000  0.4959070000000 1.0
C      1  0.5956370000000  0.5260010000000  0.5097160000000 1.0
C      1  0.3975980000000  0.4661800000000  0.4908920000000 1.0
C      1  0.6007820000000  0.4545380000000  0.5112720000000 1.0
C      1  0.3799150000000  0.5292590000000  0.5232410000000 1.0
C      1  0.5937650000000  0.5116440000000  0.4839260000000 1.0
C      1  0.4079910000000  0.4828240000000  0.5121050000000 1.0
C      1  0.6014640000000  0.4671340000000  0.4850040000000 1.0
C      1  0.3927030000000  0.5659020000000  0.4898080000000 1.0
C      1  0.5831160000000  0.5537930000000  0.5158120000000 1.0
C      1  0.4098800000000  0.4390730000000  0.4851570000000 1.0
C      1  0.5856840000000  0.4291000000000  0.5176500000000 1.0
C      1  0.5366580000000  0.4784740000000  0.4940380000000 1.0
C      1  0.4516200000000  0.4770660000000  0.4692850000000 1.0
C      1  0.5477490000000  0.5232850000000  0.4860110000000 1.0
C      1  0.4324580000000  0.5338650000000  0.4702450000000 1.0
C      1  0.6686830000000  0.5336570000000  0.6047430000000 1.0
C      1  0.3902270000000  0.5380670000000  0.3770010000000 1.0
C      1  0.6689500000000  0.4799750000000  0.6314350000000 1.0
C      1  0.4147920000000  0.4775320000000  0.3733040000000 1.0
C      1  0.5589090000000  0.4452670000000  0.4644380000000 1.0
C      1  0.4592690000000  0.4657720000000  0.5175940000000 1.0
C      1  0.5759770000000  0.5591520000000  0.4692840000000 1.0
C      1  0.4368420000000  0.5441260000000  0.5192010000000 1.0
C      1  0.4742170000000  0.4442280000000  0.5083550000000 1.0
C      1  0.5364180000000  0.4300920000000  0.4724860000000 1.0
C      1  0.4551920000000  0.5636260000000  0.5116830000000 1.0
C      1  0.5218040000000  0.5578170000000  0.4910740000000 1.0
C      1  0.5397350000000  0.5992500000000  0.5452090000000 1.0
C      1  0.3530210000000  0.5962160000000  0.4354380000000 1.0
C      1  0.5420310000000  0.3861640000000  0.5412830000000 1.0
C      1  0.4473950000000  0.3954240000000  0.4519200000000 1.0
C      1  0.6218420000000  0.4750410000000  0.6198560000000 1.0
C      1  0.4113890000000  0.4772230000000  0.4210070000000 1.0
C      1  0.6222380000000  0.5262520000000  0.5918500000000 1.0
C      1  0.3840570000000  0.5280200000000  0.4230180000000 1.0
C      1  0.5670130000000  0.4133210000000  0.5012960000000 1.0
C      1  0.4329890000000  0.4255330000000  0.4977110000000 1.0
C      1  0.5694360000000  0.5699270000000  0.4947550000000 1.0
C      1  0.4188110000000  0.5814040000000  0.4896220000000 1.0
C      1  0.6012250000000  0.5553960000000  0.4568200000000 1.0
C      1  0.4287030000000  0.5430880000000  0.5460570000000 1.0
C      1  0.5835910000000  0.4393160000000  0.4509380000000 1.0
C      1  0.4453730000000  0.4662880000000  0.5427050000000 1.0
C      1  0.5308300000000  0.5345990000000  0.5055460000000 1.0
C      1  0.4292510000000  0.5367750000000  0.4424080000000 1.0
C      1  0.5443190000000  0.4779150000000  0.5212630000000 1.0
C      1  0.4567990000000  0.4686890000000  0.4433490000000 1.0
C      1  0.6466650000000  0.5657540000000  0.5783910000000 1.0
C      1  0.4066800000000  0.5678690000000  0.4107150000000 1.0
C      1  0.6464880000000  0.4408740000000  0.6450460000000 1.0
C      1  0.4413680000000  0.4478810000000  0.4000420000000 1.0
C      1  0.4137310000000  0.4663130000000  0.5828360000000 1.0
C      1  0.5912240000000  0.4711260000000  0.4165150000000 1.0
C      1  0.4051780000000  0.5297850000000  0.5890380000000 1.0
C      1  0.5949460000000  0.5291800000000  0.4171210000000 1.0
C      1  0.5145030000000  0.3964510000000  0.5006160000000 1.0
C      1  0.4818870000000  0.4016050000000  0.4868330000000 1.0
C      1  0.5089580000000  0.6007530000000  0.5072050000000 1.0
C      1  0.4787050000000  0.6019220000000  0.4894350000000 1.0
C      1  0.3811100000000  0.5140500000000  0.4783530000000 1.0
C      1  0.6062160000000  0.5051270000000  0.5281090000000 1.0
C      1  0.3825160000000  0.4864650000000  0.4758080000000 1.0
C      1  0.6071410000000  0.4772840000000  0.5293670000000 1.0
C      1  0.6030420000000  0.4248100000000  0.5638350000000 1.0
C      1  0.3759040000000  0.4200280000000  0.4547960000000 1.0
C      1  0.6011900000000  0.5590370000000  0.5612950000000 1.0
C      1  0.3559620000000  0.5933710000000  0.5060130000000 1.0
C      1  0.4898230000000  0.5748760000000  0.5749840000000 1.0
C      1  0.4896650000000  0.5812140000000  0.4147310000000 1.0
C      1  0.4922790000000  0.4214280000000  0.5661160000000 1.0
C      1  0.4910840000000  0.4187890000000  0.4114870000000 1.0
C      1  0.4374860000000  0.5401680000000  0.6281920000000 1.0
C      1  0.5469480000000  0.5358620000000  0.4373250000000 1.0
C      1  0.4430900000000  0.4544350000000  0.6236230000000 1.0
C      1  0.5472640000000  0.4842980000000  0.4429970000000 1.0
C      1  0.6082160000000  0.5311470000000  0.4426690000000 1.0
C      1  0.4086990000000  0.5305030000000  0.5610460000000 1.0
C      1  0.6023710000000  0.4584470000000  0.4393620000000 1.0
C      1  0.4205560000000  0.4724110000000  0.5559690000000 1.0
C      1  0.4962690000000  0.5525300000000  0.5324950000000 1.0
C      1  0.4896670000000  0.5567330000000  0.4563030000000 1.0
C      1  0.5150640000000  0.4412740000000  0.5280020000000 1.0
C      1  0.4953230000000  0.4420580000000  0.4526170000000 1.0
C      1  0.3699100000000  0.5829780000000  0.4848540000000 1.0
C      1  0.5824320000000  0.5659910000000  0.5418740000000 1.0
C      1  0.4019130000000  0.4223560000000  0.4627870000000 1.0
C      1  0.5855510000000  0.4174130000000  0.5442410000000 1.0
C      1  0.4894420000000  0.5548070000000  0.5927820000000 1.0
C      1  0.4937440000000  0.5653920000000  0.3930170000000 1.0
C      1  0.4851610000000  0.4403190000000  0.5838460000000 1.0
C      1  0.4930070000000  0.4371530000000  0.3914230000000 1.0
C      1  0.4525890000000  0.4715370000000  0.6417570000000 1.0
C      1  0.5224860000000  0.4956750000000  0.4369500000000 1.0
C      1  0.4499800000000  0.5226150000000  0.6439060000000 1.0
C      1  0.5212810000000  0.5238990000000  0.4368850000000 1.0
C      1  0.4947980000000  0.5556650000000  0.4838710000000 1.0
C      1  0.4808700000000  0.5545650000000  0.5086710000000 1.0
C      1  0.5109420000000  0.4421470000000  0.4759830000000 1.0
C      1  0.5016190000000  0.4456390000000  0.5032780000000 1.0
C      1  0.5070210000000  0.4179840000000  0.5425640000000 1.0
C      1  0.4890020000000  0.4171390000000  0.4399540000000 1.0
C      1  0.4977440000000  0.5764840000000  0.5482130000000 1.0
C      1  0.4864480000000  0.5820660000000  0.4430210000000 1.0
C      1  0.4295850000000  0.4989970000000  0.5033120000000 1.0
C      1  0.5795130000000  0.4863290000000  0.4832570000000 1.0
C      1  0.4553850000000  0.4970240000000  0.6490700000000 1.0
END
