TITL C-74084-3399-151 -4537.11316249565 125000 -1164.58587909558 0 0 197 (C1) n - 1
REM
REM in /home/nfs/bkarasulu/CARBON/AIRSS/Generating-Clusters/LCBOP/Higher-Symm/SD-CG/FIRE-CG
REM
REM
REM
REM
REM
REM ./C.cell (b20cbc046b6831c77cfcea5457e17084)
REM AIRSS Version 0.9.1 bugfix July 2018 build 013d7b7c2542+ Fri, 06 Jul 2018 19:26:36 +0100
REM compiler GCC version 9.2.1 20190827 (Red Hat 9.2.1-1)
REM options -cpp -mtune=generic -march=x86-64 -g -O0 -fpre-include=/usr/include/finclude/math-vector-fortran.h
REM seed 1043980003 -1943675947 -1177340057 -65088337 1859901240 1993951589 1446435294 -157140419 -697227800 677675112 837477221 -161039985 -1796088299 1547372588 1856260448 -2068512615 -260545482 226278403 -1915603507 2021804953 -1660462275 -849541563 1025706874 -1137419468 169204852 611429097 747422019 562061216 -1292472435 -365826985 1505049581 -198452504 -1095503437
REM
CELL 1.54180   50.00000   50.00000   50.00000   90.00000   90.00000   90.00000
LATT -1
SFAC C  
C      1  0.5210850000000  0.6153080000000  0.4466210000000 1.0
C      1  0.5205470000000  0.4875840000000  0.6214650000000 1.0
C      1  0.5209560000000  0.3983580000000  0.4303640000000 1.0
C      1  0.6356970000000  0.4347970000000  0.5129100000000 1.0
C      1  0.6365590000000  0.5213720000000  0.4366220000000 1.0
C      1  0.6370370000000  0.5454180000000  0.5485990000000 1.0
C      1  0.5224860000000  0.4171120000000  0.5978090000000 1.0
C      1  0.5250070000000  0.4562780000000  0.3794680000000 1.0
C      1  0.5235220000000  0.6267780000000  0.5236580000000 1.0
C      1  0.5805250000000  0.4313280000000  0.5482020000000 1.0
C      1  0.5827640000000  0.4916550000000  0.4133330000000 1.0
C      1  0.5821630000000  0.5797320000000  0.5361930000000 1.0
C      1  0.4645350000000  0.5433100000000  0.5502070000000 1.0
C      1  0.4556100000000  0.4356620000000  0.5142430000000 1.0
C      1  0.4659090000000  0.5214670000000  0.4368780000000 1.0
C      1  0.6006120000000  0.4811220000000  0.5518700000000 1.0
C      1  0.6006120000000  0.4640330000000  0.4555310000000 1.0
C      1  0.6007890000000  0.5581220000000  0.4894740000000 1.0
C      1  0.3869200000000  0.5047510000000  0.4629030000000 1.0
C      1  0.4030330000000  0.5225430000000  0.5277670000000 1.0
C      1  0.3828100000000  0.4576660000000  0.5176490000000 1.0
C      1  0.5373000000000  0.6118710000000  0.5448490000000 1.0
C      1  0.5354400000000  0.4092110000000  0.5727460000000 1.0
C      1  0.5387490000000  0.4821510000000  0.3811240000000 1.0
C      1  0.3931890000000  0.4740850000000  0.5396140000000 1.0
C      1  0.3872110000000  0.4761140000000  0.4671370000000 1.0
C      1  0.3964180000000  0.5365470000000  0.5027070000000 1.0
C      1  0.4529160000000  0.5644160000000  0.5029910000000 1.0
C      1  0.4466300000000  0.4679700000000  0.5554240000000 1.0
C      1  0.4528870000000  0.4707290000000  0.4449980000000 1.0
C      1  0.4410610000000  0.4892340000000  0.4646090000000 1.0
C      1  0.4449310000000  0.5360590000000  0.5055060000000 1.0
C      1  0.4373020000000  0.4799390000000  0.5295230000000 1.0
C      1  0.5062730000000  0.5482050000000  0.3818200000000 1.0
C      1  0.5048860000000  0.5772840000000  0.6011930000000 1.0
C      1  0.5021990000000  0.3764600000000  0.5179290000000 1.0
C      1  0.5090740000000  0.4857280000000  0.4431610000000 1.0
C      1  0.5059550000000  0.5569960000000  0.5127150000000 1.0
C      1  0.5000280000000  0.4629680000000  0.5343110000000 1.0
C      1  0.4517110000000  0.5203390000000  0.6038190000000 1.0
C      1  0.4505160000000  0.4012300000000  0.4678600000000 1.0
C      1  0.4536840000000  0.5780350000000  0.4307960000000 1.0
C      1  0.4043830000000  0.4525330000000  0.4581330000000 1.0
C      1  0.4084350000000  0.5576920000000  0.4844360000000 1.0
C      1  0.3998960000000  0.4793740000000  0.5686230000000 1.0
C      1  0.5385050000000  0.5970230000000  0.4616340000000 1.0
C      1  0.5359280000000  0.4839900000000  0.5968200000000 1.0
C      1  0.5384090000000  0.4200810000000  0.4393800000000 1.0
C      1  0.5870750000000  0.5798120000000  0.4759180000000 1.0
C      1  0.5858380000000  0.4822530000000  0.5767520000000 1.0
C      1  0.5870180000000  0.4413100000000  0.4439800000000 1.0
C      1  0.4531300000000  0.5155260000000  0.4640220000000 1.0
C      1  0.4519510000000  0.5233250000000  0.5308900000000 1.0
C      1  0.4382920000000  0.4589980000000  0.5071120000000 1.0
C      1  0.5531220000000  0.5491880000000  0.5123960000000 1.0
C      1  0.5497870000000  0.4664810000000  0.5332710000000 1.0
C      1  0.5548300000000  0.4880650000000  0.4543840000000 1.0
C      1  0.4477850000000  0.5126680000000  0.3921550000000 1.0
C      1  0.4459530000000  0.5856960000000  0.5658010000000 1.0
C      1  0.4436160000000  0.3991390000000  0.5450820000000 1.0
C      1  0.4676240000000  0.6194010000000  0.5228680000000 1.0
C      1  0.4667940000000  0.4202640000000  0.5929300000000 1.0
C      1  0.4694500000000  0.4597380000000  0.3861880000000 1.0
C      1  0.4417390000000  0.4197570000000  0.4499580000000 1.0
C      1  0.4426720000000  0.5832450000000  0.4538830000000 1.0
C      1  0.4397570000000  0.4978890000000  0.5984120000000 1.0
C      1  0.4654550000000  0.5456640000000  0.5996420000000 1.0
C      1  0.4615880000000  0.3910570000000  0.4926210000000 1.0
C      1  0.4664430000000  0.5625440000000  0.4095920000000 1.0
C      1  0.5988850000000  0.4542240000000  0.5373540000000 1.0
C      1  0.5995460000000  0.4903360000000  0.4396210000000 1.0
C      1  0.5996780000000  0.5583730000000  0.5205930000000 1.0
C      1  0.5002130000000  0.4063810000000  0.4118740000000 1.0
C      1  0.4994610000000  0.6275650000000  0.4618230000000 1.0
C      1  0.4991370000000  0.4686140000000  0.6256480000000 1.0
C      1  0.4941320000000  0.4979980000000  0.3914760000000 1.0
C      1  0.4926730000000  0.5943690000000  0.5526560000000 1.0
C      1  0.4897030000000  0.4122730000000  0.5541450000000 1.0
C      1  0.5684420000000  0.5882320000000  0.6346160000000 1.0
C      1  0.5656710000000  0.3420220000000  0.5111930000000 1.0
C      1  0.5701270000000  0.5716760000000  0.3562680000000 1.0
C      1  0.3983780000000  0.5311710000000  0.5551220000000 1.0
C      1  0.3935010000000  0.4318640000000  0.5088060000000 1.0
C      1  0.3985140000000  0.5231080000000  0.4440950000000 1.0
C      1  0.4199660000000  0.5094330000000  0.3969130000000 1.0
C      1  0.4177790000000  0.5809200000000  0.5626680000000 1.0
C      1  0.4152610000000  0.4008080000000  0.5463450000000 1.0
C      1  0.5341210000000  0.4223650000000  0.5096970000000 1.0
C      1  0.5412070000000  0.5314610000000  0.4239150000000 1.0
C      1  0.5385420000000  0.5505170000000  0.5646980000000 1.0
C      1  0.5313580000000  0.4696860000000  0.4572990000000 1.0
C      1  0.5298790000000  0.5558550000000  0.4950170000000 1.0
C      1  0.5247800000000  0.4770790000000  0.5448590000000 1.0
C      1  0.5186670000000  0.4799070000000  0.5743080000000 1.0
C      1  0.5228600000000  0.4421960000000  0.4485010000000 1.0
C      1  0.5225940000000  0.5787730000000  0.4765710000000 1.0
C      1  0.5473060000000  0.5757500000000  0.5750130000000 1.0
C      1  0.5440130000000  0.4010670000000  0.5263290000000 1.0
C      1  0.5490470000000  0.5265750000000  0.3968380000000 1.0
C      1  0.4889150000000  0.4396960000000  0.5463500000000 1.0
C      1  0.4957750000000  0.4891850000000  0.4188000000000 1.0
C      1  0.4943030000000  0.5750210000000  0.5311900000000 1.0
C      1  0.4944270000000  0.5359240000000  0.4433870000000 1.0
C      1  0.4920670000000  0.5308200000000  0.5555690000000 1.0
C      1  0.4828280000000  0.4343890000000  0.4993660000000 1.0
C      1  0.5254700000000  0.5275460000000  0.4828220000000 1.0
C      1  0.5228180000000  0.5025380000000  0.5285100000000 1.0
C      1  0.5247160000000  0.4755550000000  0.4877440000000 1.0
C      1  0.4663430000000  0.5667700000000  0.5296420000000 1.0
C      1  0.4601890000000  0.4436940000000  0.5438460000000 1.0
C      1  0.4679310000000  0.4912960000000  0.4278850000000 1.0
C      1  0.4950440000000  0.4161090000000  0.6035410000000 1.0
C      1  0.4974620000000  0.4517570000000  0.3770370000000 1.0
C      1  0.4959500000000  0.6310560000000  0.5211150000000 1.0
C      1  0.5148510000000  0.6077030000000  0.5628030000000 1.0
C      1  0.5125670000000  0.3976230000000  0.5593470000000 1.0
C      1  0.5163890000000  0.4996400000000  0.3749050000000 1.0
C      1  0.4359630000000  0.5819510000000  0.4880180000000 1.0
C      1  0.4323970000000  0.4687550000000  0.5810130000000 1.0
C      1  0.4351880000000  0.4468050000000  0.4380590000000 1.0
C      1  0.5138270000000  0.5388390000000  0.5713860000000 1.0
C      1  0.5081510000000  0.4249530000000  0.4988410000000 1.0
C      1  0.5165910000000  0.5444390000000  0.4286660000000 1.0
C      1  0.4576640000000  0.5594450000000  0.5750760000000 1.0
C      1  0.4516720000000  0.4048950000000  0.5170190000000 1.0
C      1  0.4587220000000  0.5342220000000  0.4098150000000 1.0
C      1  0.4585430000000  0.6115100000000  0.4955380000000 1.0
C      1  0.4574690000000  0.4477990000000  0.5986420000000 1.0
C      1  0.4607030000000  0.4420160000000  0.4081870000000 1.0
C      1  0.4767150000000  0.5652290000000  0.4841110000000 1.0
C      1  0.4706040000000  0.4850000000000  0.5634400000000 1.0
C      1  0.4756890000000  0.4553410000000  0.4573420000000 1.0
C      1  0.5052620000000  0.3660190000000  0.4724190000000 1.0
C      1  0.5095130000000  0.5927180000000  0.3975930000000 1.0
C      1  0.5091210000000  0.5407140000000  0.6306440000000 1.0
C      1  0.4943430000000  0.4400400000000  0.4435160000000 1.0
C      1  0.4941100000000  0.5846150000000  0.4765150000000 1.0
C      1  0.4906820000000  0.4780840000000  0.5810160000000 1.0
C      1  0.5478860000000  0.4457020000000  0.5148650000000 1.0
C      1  0.5514940000000  0.5131370000000  0.4420740000000 1.0
C      1  0.5489480000000  0.5453940000000  0.5397050000000 1.0
C      1  0.5124810000000  0.3783980000000  0.4483350000000 1.0
C      1  0.5141440000000  0.6088890000000  0.4200200000000 1.0
C      1  0.5150020000000  0.5133730000000  0.6311210000000 1.0
C      1  0.4832270000000  0.4275970000000  0.4199190000000 1.0
C      1  0.4818800000000  0.6108400000000  0.4768950000000 1.0
C      1  0.4807600000000  0.4646110000000  0.6044930000000 1.0
C      1  0.4613070000000  0.4964810000000  0.5239430000000 1.0
C      1  0.4308990000000  0.4744320000000  0.4853130000000 1.0
C      1  0.4641230000000  0.5246020000000  0.4883530000000 1.0
C      1  0.4663930000000  0.4904670000000  0.3842800000000 1.0
C      1  0.4645680000000  0.6044660000000  0.5502660000000 1.0
C      1  0.4635370000000  0.4057360000000  0.5662660000000 1.0
C      1  0.4038140000000  0.5159120000000  0.4174860000000 1.0
C      1  0.4024670000000  0.5584940000000  0.5614710000000 1.0
C      1  0.3984900000000  0.4121780000000  0.5283660000000 1.0
C      1  0.5311420000000  0.3759410000000  0.5208820000000 1.0
C      1  0.5353170000000  0.5449570000000  0.3789190000000 1.0
C      1  0.5338500000000  0.5817000000000  0.5999950000000 1.0
C      1  0.4005810000000  0.4320830000000  0.4801290000000 1.0
C      1  0.4052700000000  0.5485000000000  0.4567490000000 1.0
C      1  0.3950810000000  0.5082460000000  0.5732090000000 1.0
C      1  0.5663190000000  0.4246400000000  0.4391750000000 1.0
C      1  0.5664480000000  0.5934390000000  0.4648900000000 1.0
C      1  0.5637740000000  0.4838870000000  0.5921410000000 1.0
C      1  0.4872100000000  0.3767130000000  0.4931740000000 1.0
C      1  0.4915910000000  0.5694660000000  0.3956570000000 1.0
C      1  0.4907330000000  0.5542030000000  0.6121810000000 1.0
C      1  0.5718550000000  0.4886380000000  0.4767440000000 1.0
C      1  0.5707490000000  0.5299510000000  0.5021240000000 1.0
C      1  0.5679970000000  0.4862600000000  0.5256180000000 1.0
C      1  0.5567860000000  0.4125550000000  0.5517860000000 1.0
C      1  0.5599280000000  0.4983800000000  0.3944050000000 1.0
C      1  0.5588980000000  0.5923630000000  0.5520410000000 1.0
C      1  0.5258390000000  0.3488100000000  0.4829970000000 1.0
C      1  0.5312670000000  0.5919000000000  0.3787410000000 1.0
C      1  0.5302220000000  0.5577100000000  0.6403280000000 1.0
C      1  0.4937970000000  0.4966730000000  0.4660130000000 1.0
C      1  0.4917730000000  0.5315990000000  0.5088780000000 1.0
C      1  0.4842430000000  0.4799220000000  0.5152240000000 1.0
C      1  0.4111100000000  0.4944730000000  0.5275600000000 1.0
C      1  0.3739320000000  0.4703370000000  0.4930160000000 1.0
C      1  0.3792000000000  0.5195880000000  0.4865550000000 1.0
C      1  0.6081280000000  0.5078790000000  0.5408110000000 1.0
C      1  0.6074690000000  0.4608600000000  0.4842970000000 1.0
C      1  0.6068480000000  0.5342790000000  0.4720690000000 1.0
C      1  0.6129470000000  0.4507220000000  0.5112550000000 1.0
C      1  0.6130240000000  0.5151420000000  0.4502910000000 1.0
C      1  0.6137160000000  0.5365510000000  0.5360960000000 1.0
C      1  0.4958120000000  0.4808760000000  0.4893530000000 1.0
C      1  0.5030510000000  0.5232900000000  0.4667380000000 1.0
C      1  0.5002880000000  0.5178550000000  0.5318660000000 1.0
C      1  0.5456310000000  0.5765620000000  0.6255480000000 1.0
C      1  0.5424090000000  0.3548020000000  0.5053830000000 1.0
C      1  0.5470360000000  0.5696720000000  0.3704700000000 1.0
C      1  0.5649860000000  0.5017860000000  0.5015000000000 1.0
C      1  0.5348510000000  0.5024130000000  0.4999010000000 1.0
END
