TITL C-74080-5790-46 -5.78142908207899e-07 125000 -1156.31793498917 0 0 183 (C1) n - 1
REM
REM in /home/nfs/bkarasulu/CARBON/AIRSS/Generating-Clusters/LCBOP/Higher-Symm/SD-CG/FIRE-CG
REM
REM
REM
REM
REM
REM ./C.cell (b20cbc046b6831c77cfcea5457e17084)
REM AIRSS Version 0.9.1 bugfix July 2018 build 013d7b7c2542+ Fri, 06 Jul 2018 19:26:36 +0100
REM compiler GCC version 9.2.1 20190827 (Red Hat 9.2.1-1)
REM options -cpp -mtune=generic -march=x86-64 -g -O0 -fpre-include=/usr/include/finclude/math-vector-fortran.h
REM seed -1507181133 -480464643 1019086377 1187614674 -1835080862 890920858 -1998041992 -39332498 -488456680 1649574372 -141655502 1480174437 -1806140482 -282971791 -350707053 -969123261 -112423906 -301790330 61233592 1213719523 -1518773530 2098744823 -475703361 -612427433 692244191 1318447245 1690241182 -1552727740 -1450880632 667392967 1075657837 -1087886844 -102265906
REM
CELL 1.54180   50.00000   50.00000   50.00000   90.00000   90.00000   90.00000
LATT -1
SFAC C  
C      1  0.5277980000000  0.4259660000000  0.4169040000000 1.0
C      1  0.4721930000000  0.5743730000000  0.4164270000000 1.0
C      1  0.5277380000000  0.4260010000000  0.5839280000000 1.0
C      1  0.4717980000000  0.5734910000000  0.5850460000000 1.0
C      1  0.5275720000000  0.5744840000000  0.4146750000000 1.0
C      1  0.4726570000000  0.4257230000000  0.4151460000000 1.0
C      1  0.5271160000000  0.5747500000000  0.5841370000000 1.0
C      1  0.4720810000000  0.4253910000000  0.5845320000000 1.0
C      1  0.4808100000000  0.5613910000000  0.5560500000000 1.0
C      1  0.5165780000000  0.4379960000000  0.5543840000000 1.0
C      1  0.4831240000000  0.5646150000000  0.4456660000000 1.0
C      1  0.5167390000000  0.4365500000000  0.4458180000000 1.0
C      1  0.4810210000000  0.4367480000000  0.5562320000000 1.0
C      1  0.5150760000000  0.5648780000000  0.5560080000000 1.0
C      1  0.4827230000000  0.4351520000000  0.4450260000000 1.0
C      1  0.5171750000000  0.5642520000000  0.4438050000000 1.0
C      1  0.5292090000000  0.6080930000000  0.5303800000000 1.0
C      1  0.4666030000000  0.3929530000000  0.5314930000000 1.0
C      1  0.5325670000000  0.6073650000000  0.4671560000000 1.0
C      1  0.4673790000000  0.3894600000000  0.4662200000000 1.0
C      1  0.5291110000000  0.3954740000000  0.5307500000000 1.0
C      1  0.4638270000000  0.6031640000000  0.5330770000000 1.0
C      1  0.5313060000000  0.3943010000000  0.4699560000000 1.0
C      1  0.4686570000000  0.6065890000000  0.4714920000000 1.0
C      1  0.4489960000000  0.5594980000000  0.5149160000000 1.0
C      1  0.5500030000000  0.4374150000000  0.5150560000000 1.0
C      1  0.4481820000000  0.5634450000000  0.4860610000000 1.0
C      1  0.5500010000000  0.4374780000000  0.4864120000000 1.0
C      1  0.4631990000000  0.4350810000000  0.5070720000000 1.0
C      1  0.5356560000000  0.5623570000000  0.5108990000000 1.0
C      1  0.4482970000000  0.4313010000000  0.4830410000000 1.0
C      1  0.5478050000000  0.5636870000000  0.4850730000000 1.0
C      1  0.4847500000000  0.5519780000000  0.3980190000000 1.0
C      1  0.5154200000000  0.4480230000000  0.3982340000000 1.0
C      1  0.4852530000000  0.5522100000000  0.6038350000000 1.0
C      1  0.5152810000000  0.4475820000000  0.6031030000000 1.0
C      1  0.4855110000000  0.4483290000000  0.3980460000000 1.0
C      1  0.5148680000000  0.5521650000000  0.3966740000000 1.0
C      1  0.4849940000000  0.4469450000000  0.6036700000000 1.0
C      1  0.5154130000000  0.5526060000000  0.6030580000000 1.0
C      1  0.5326060000000  0.6270980000000  0.4852230000000 1.0
C      1  0.4668310000000  0.3718300000000  0.4864370000000 1.0
C      1  0.5313760000000  0.6274210000000  0.5120070000000 1.0
C      1  0.4659990000000  0.3733420000000  0.5132150000000 1.0
C      1  0.5307680000000  0.3739750000000  0.4873250000000 1.0
C      1  0.4672190000000  0.6258230000000  0.4900210000000 1.0
C      1  0.5297240000000  0.3745460000000  0.5141300000000 1.0
C      1  0.4649090000000  0.6242470000000  0.5166900000000 1.0
C      1  0.4390650000000  0.4862050000000  0.5232680000000 1.0
C      1  0.5632060000000  0.5173890000000  0.5243150000000 1.0
C      1  0.4322590000000  0.4542040000000  0.4738700000000 1.0
C      1  0.5659910000000  0.5431130000000  0.4741450000000 1.0
C      1  0.4364740000000  0.5324230000000  0.5231420000000 1.0
C      1  0.5680360000000  0.4561730000000  0.5279750000000 1.0
C      1  0.4317820000000  0.5434300000000  0.4728240000000 1.0
C      1  0.5664800000000  0.4580030000000  0.4742450000000 1.0
C      1  0.4070470000000  0.5405500000000  0.4241520000000 1.0
C      1  0.5932750000000  0.4587930000000  0.4251200000000 1.0
C      1  0.4066760000000  0.5421110000000  0.5764270000000 1.0
C      1  0.5947540000000  0.4571360000000  0.5774900000000 1.0
C      1  0.4070810000000  0.4579750000000  0.4242980000000 1.0
C      1  0.5937930000000  0.5420200000000  0.4238620000000 1.0
C      1  0.4091480000000  0.4595180000000  0.5724650000000 1.0
C      1  0.5932290000000  0.5414290000000  0.5729440000000 1.0
C      1  0.4453430000000  0.5149050000000  0.6002870000000 1.0
C      1  0.5554550000000  0.4852630000000  0.5978340000000 1.0
C      1  0.4457890000000  0.5139730000000  0.4046360000000 1.0
C      1  0.5549200000000  0.4855620000000  0.4038950000000 1.0
C      1  0.4452860000000  0.4856810000000  0.5993030000000 1.0
C      1  0.5552560000000  0.5145030000000  0.5968730000000 1.0
C      1  0.4459280000000  0.4850710000000  0.4048750000000 1.0
C      1  0.5550560000000  0.5146860000000  0.4029920000000 1.0
C      1  0.5264140000000  0.5342160000000  0.4468340000000 1.0
C      1  0.4744260000000  0.4656790000000  0.4513380000000 1.0
C      1  0.5255230000000  0.5352860000000  0.5501880000000 1.0
C      1  0.4724640000000  0.4667350000000  0.5537200000000 1.0
C      1  0.5253930000000  0.4669550000000  0.4498200000000 1.0
C      1  0.4750510000000  0.5342330000000  0.4508570000000 1.0
C      1  0.5286980000000  0.4713530000000  0.5513400000000 1.0
C      1  0.4730400000000  0.5303060000000  0.5531430000000 1.0
C      1  0.4875290000000  0.5266850000000  0.4781020000000 1.0
C      1  0.5146370000000  0.4774270000000  0.4756850000000 1.0
C      1  0.4801350000000  0.5185700000000  0.5267520000000 1.0
C      1  0.5238310000000  0.4901120000000  0.5289590000000 1.0
C      1  0.4843160000000  0.4746090000000  0.4789840000000 1.0
C      1  0.5155560000000  0.5219210000000  0.4704640000000 1.0
C      1  0.4830340000000  0.4716370000000  0.5270830000000 1.0
C      1  0.5219210000000  0.5360520000000  0.5176140000000 1.0
C      1  0.5157100000000  0.5162940000000  0.4255830000000 1.0
C      1  0.4842590000000  0.4835820000000  0.4291620000000 1.0
C      1  0.5158610000000  0.5173580000000  0.5732070000000 1.0
C      1  0.4852180000000  0.4834220000000  0.5757910000000 1.0
C      1  0.5159050000000  0.4842730000000  0.4271770000000 1.0
C      1  0.4847340000000  0.5165610000000  0.4281800000000 1.0
C      1  0.5162820000000  0.4840170000000  0.5746750000000 1.0
C      1  0.4841980000000  0.5151580000000  0.5757430000000 1.0
C      1  0.3893770000000  0.4693740000000  0.5542680000000 1.0
C      1  0.6122630000000  0.5296810000000  0.5547900000000 1.0
C      1  0.3879460000000  0.4685610000000  0.4426790000000 1.0
C      1  0.6121590000000  0.5306880000000  0.4427580000000 1.0
C      1  0.3878930000000  0.5320460000000  0.5572050000000 1.0
C      1  0.6138370000000  0.4672380000000  0.5586270000000 1.0
C      1  0.3872540000000  0.5288150000000  0.4410540000000 1.0
C      1  0.6124040000000  0.4695930000000  0.4433440000000 1.0
C      1  0.3940530000000  0.4845880000000  0.4662410000000 1.0
C      1  0.6057510000000  0.5146220000000  0.4662170000000 1.0
C      1  0.3925360000000  0.4871440000000  0.5318820000000 1.0
C      1  0.6086890000000  0.5114920000000  0.5322770000000 1.0
C      1  0.3930190000000  0.5140370000000  0.4654530000000 1.0
C      1  0.6063300000000  0.4852240000000  0.4671070000000 1.0
C      1  0.3911150000000  0.5165070000000  0.5330210000000 1.0
C      1  0.6091100000000  0.4821070000000  0.5341430000000 1.0
C      1  0.4306390000000  0.4776590000000  0.5754660000000 1.0
C      1  0.5697120000000  0.5252860000000  0.5744930000000 1.0
C      1  0.4313020000000  0.4730610000000  0.4264120000000 1.0
C      1  0.5696050000000  0.5268100000000  0.4246610000000 1.0
C      1  0.4297030000000  0.5254640000000  0.5780690000000 1.0
C      1  0.5709190000000  0.4730190000000  0.5767460000000 1.0
C      1  0.4313760000000  0.5256950000000  0.4261830000000 1.0
C      1  0.5692070000000  0.4742330000000  0.4260840000000 1.0
C      1  0.4670260000000  0.5786780000000  0.4688870000000 1.0
C      1  0.5321240000000  0.4223640000000  0.4687660000000 1.0
C      1  0.4644720000000  0.5750710000000  0.5338230000000 1.0
C      1  0.5309260000000  0.4235160000000  0.5318200000000 1.0
C      1  0.4649560000000  0.4173000000000  0.4634440000000 1.0
C      1  0.5327010000000  0.5793500000000  0.4655390000000 1.0
C      1  0.4688570000000  0.4209730000000  0.5319430000000 1.0
C      1  0.5272930000000  0.5803400000000  0.5322430000000 1.0
C      1  0.4083640000000  0.5299360000000  0.4843200000000 1.0
C      1  0.5897160000000  0.4705210000000  0.4863970000000 1.0
C      1  0.4083520000000  0.5287910000000  0.5130300000000 1.0
C      1  0.5911420000000  0.4683850000000  0.5152080000000 1.0
C      1  0.4111500000000  0.4704940000000  0.4858150000000 1.0
C      1  0.5887310000000  0.5283530000000  0.4856080000000 1.0
C      1  0.4132930000000  0.4786650000000  0.5130900000000 1.0
C      1  0.5887200000000  0.5206320000000  0.5131880000000 1.0
C      1  0.4863940000000  0.3996110000000  0.5894010000000 1.0
C      1  0.5129940000000  0.6004760000000  0.5901600000000 1.0
C      1  0.4868150000000  0.3999580000000  0.4093210000000 1.0
C      1  0.5133720000000  0.6003000000000  0.4089220000000 1.0
C      1  0.4856840000000  0.5997560000000  0.5897990000000 1.0
C      1  0.5136850000000  0.3999760000000  0.5886610000000 1.0
C      1  0.4860500000000  0.6002690000000  0.4099210000000 1.0
C      1  0.5140980000000  0.4000070000000  0.4105900000000 1.0
C      1  0.4161170000000  0.5667880000000  0.4164730000000 1.0
C      1  0.5839630000000  0.4326370000000  0.4175910000000 1.0
C      1  0.4158330000000  0.5682200000000  0.5835870000000 1.0
C      1  0.5843180000000  0.4310620000000  0.5842650000000 1.0
C      1  0.4164370000000  0.4322830000000  0.4152410000000 1.0
C      1  0.5840690000000  0.5680590000000  0.4157830000000 1.0
C      1  0.4174110000000  0.4334550000000  0.5800890000000 1.0
C      1  0.5832160000000  0.5677130000000  0.5796970000000 1.0
C      1  0.4715080000000  0.4726660000000  0.6009640000000 1.0
C      1  0.5290420000000  0.5271640000000  0.5989790000000 1.0
C      1  0.4723480000000  0.4735330000000  0.4030580000000 1.0
C      1  0.5285600000000  0.5266230000000  0.4000730000000 1.0
C      1  0.4720390000000  0.5264790000000  0.6012310000000 1.0
C      1  0.5289730000000  0.4731950000000  0.5999560000000 1.0
C      1  0.4718450000000  0.5263350000000  0.4023690000000 1.0
C      1  0.5285990000000  0.4735280000000  0.4017710000000 1.0
C      1  0.5581400000000  0.5766650000000  0.4128850000000 1.0
C      1  0.4422530000000  0.4235360000000  0.4126010000000 1.0
C      1  0.5576150000000  0.5766320000000  0.5838400000000 1.0
C      1  0.4419780000000  0.4234260000000  0.5858970000000 1.0
C      1  0.5582000000000  0.4237450000000  0.4154010000000 1.0
C      1  0.4417420000000  0.5762400000000  0.4146200000000 1.0
C      1  0.5580990000000  0.4232210000000  0.5856460000000 1.0
C      1  0.4416100000000  0.5762560000000  0.5872450000000 1.0
C      1  0.4455100000000  0.4820420000000  0.5510880000000 1.0
C      1  0.5552690000000  0.5272030000000  0.5501770000000 1.0
C      1  0.4444940000000  0.4668100000000  0.4509990000000 1.0
C      1  0.5558900000000  0.5326860000000  0.4489570000000 1.0
C      1  0.4428980000000  0.5244560000000  0.5529450000000 1.0
C      1  0.5576890000000  0.4677700000000  0.5519610000000 1.0
C      1  0.4450230000000  0.5316050000000  0.4506000000000 1.0
C      1  0.5552280000000  0.4689070000000  0.4504780000000 1.0
C      1  0.4546110000000  0.5092910000000  0.5108860000000 1.0
C      1  0.4697790000000  0.5020410000000  0.4851170000000 1.0
C      1  0.5378830000000  0.5094140000000  0.5111350000000 1.0
C      1  0.5279160000000  0.5011350000000  0.4845080000000 1.0
C      1  0.4936220000000  0.5362080000000  0.5069720000000 1.0
C      1  0.4786430000000  0.4582740000000  0.5035540000000 1.0
C      1  0.4967730000000  0.4948140000000  0.5268560000000 1.0
END
