TITL C-74085-4933-18 -6.84896652707656e-07 125000 -790.669150205327 0 0 128 (C3i) n - 1
REM
REM in /home/nfs/bkarasulu/CARBON/AIRSS/Generating-Clusters/LCBOP/Higher-Symm/SD-CG/FIRE-CG
REM
REM
REM
REM
REM
REM ./C.cell (b20cbc046b6831c77cfcea5457e17084)
REM AIRSS Version 0.9.1 bugfix July 2018 build 013d7b7c2542+ Fri, 06 Jul 2018 19:26:36 +0100
REM compiler GCC version 9.2.1 20190827 (Red Hat 9.2.1-1)
REM options -cpp -mtune=generic -march=x86-64 -g -O0 -fpre-include=/usr/include/finclude/math-vector-fortran.h
REM seed -875124789 -551535884 -69540228 -96779711 -34174105 -876521102 517249923 77697644 -1574794489 -939045884 1627539672 2040508994 -1519953241 -1691084087 1301166267 -53865915 -1898014922 484677141 -1655947393 -634879420 605619843 -376683684 1614762918 -98583710 -1965802756 -1344333208 -1235365638 -348904672 -256318299 789314807 1105285140 1183044513 1370928619
REM
CELL 1.54180   50.00000   50.00000   50.00000   90.00000   90.00000   90.00000
LATT -1
SFAC C  
C      1  0.5382450000000  0.5500420000000  0.5413390000000 1.0
C      1  0.5620390000000  0.4921840000000  0.4586610000000 1.0
C      1  0.5238270000000  0.4426450000000  0.5413360000000 1.0
C      1  0.4618210000000  0.4509720000000  0.4586610000000 1.0
C      1  0.4380280000000  0.5088300000000  0.5413390000000 1.0
C      1  0.4762390000000  0.5583690000000  0.4586640000000 1.0
C      1  0.5375360000000  0.5558260000000  0.4142190000000 1.0
C      1  0.5666910000000  0.4956830000000  0.5857820000000 1.0
C      1  0.5291860000000  0.4403730000000  0.4142150000000 1.0
C      1  0.4625300000000  0.4451880000000  0.5857810000000 1.0
C      1  0.4333750000000  0.5053310000000  0.4142180000000 1.0
C      1  0.4708810000000  0.5606420000000  0.5857850000000 1.0
C      1  0.4869110000000  0.5267020000000  0.5441390000000 1.0
C      1  0.5161580000000  0.5249720000000  0.4558630000000 1.0
C      1  0.5292820000000  0.4987720000000  0.5441380000000 1.0
C      1  0.5131560000000  0.4743120000000  0.4558610000000 1.0
C      1  0.4839080000000  0.4760430000000  0.5441370000000 1.0
C      1  0.4707840000000  0.5022420000000  0.4558620000000 1.0
C      1  0.4474850000000  0.4964760000000  0.5652220000000 1.0
C      1  0.4702690000000  0.5440030000000  0.4347800000000 1.0
C      1  0.5228190000000  0.5480280000000  0.5652240000000 1.0
C      1  0.5525810000000  0.5045390000000  0.4347780000000 1.0
C      1  0.5297970000000  0.4570110000000  0.5652200000000 1.0
C      1  0.4772480000000  0.4529870000000  0.4347760000000 1.0
C      1  0.5959750000000  0.4267310000000  0.5336770000000 1.0
C      1  0.4841120000000  0.3805330000000  0.4663160000000 1.0
C      1  0.3881710000000  0.4543060000000  0.5336790000000 1.0
C      1  0.4040910000000  0.5742840000000  0.4663230000000 1.0
C      1  0.5159540000000  0.6204820000000  0.5336840000000 1.0
C      1  0.6118950000000  0.5467080000000  0.4663210000000 1.0
C      1  0.4731960000000  0.5028530000000  0.5036520000000 1.0
C      1  0.4886460000000  0.5249220000000  0.4963490000000 1.0
C      1  0.5154830000000  0.5225760000000  0.5036520000000 1.0
C      1  0.5268700000000  0.4981620000000  0.4963480000000 1.0
C      1  0.5114200000000  0.4760930000000  0.5036510000000 1.0
C      1  0.4845830000000  0.4784390000000  0.4963480000000 1.0
C      1  0.4385500000000  0.4260840000000  0.5054760000000 1.0
C      1  0.4048390000000  0.5165420000000  0.4945230000000 1.0
C      1  0.4663220000000  0.5909640000000  0.5054820000000 1.0
C      1  0.5615160000000  0.5749310000000  0.4945240000000 1.0
C      1  0.5952270000000  0.4844730000000  0.5054770000000 1.0
C      1  0.5337440000000  0.4100500000000  0.4945180000000 1.0
C      1  0.5814530000000  0.4723090000000  0.4531140000000 1.0
C      1  0.5163220000000  0.4158940000000  0.5468810000000 1.0
C      1  0.4349010000000  0.4440970000000  0.4531150000000 1.0
C      1  0.4186130000000  0.5287060000000  0.5468860000000 1.0
C      1  0.4837450000000  0.5851210000000  0.4531190000000 1.0
C      1  0.5651660000000  0.5569180000000  0.5468850000000 1.0
C      1  0.4371580000000  0.5876250000000  0.5001480000000 1.0
C      1  0.5440420000000  0.5985180000000  0.4998580000000 1.0
C      1  0.6069170000000  0.5114000000000  0.5001440000000 1.0
C      1  0.5629080000000  0.4133900000000  0.4998520000000 1.0
C      1  0.4560250000000  0.4024970000000  0.5001420000000 1.0
C      1  0.3931490000000  0.4896150000000  0.4998560000000 1.0
C      1  0.5484340000000  0.5594220000000  0.4397870000000 1.0
C      1  0.5752540000000  0.4880450000000  0.5602130000000 1.0
C      1  0.5268520000000  0.4291370000000  0.4397830000000 1.0
C      1  0.4516320000000  0.4415930000000  0.5602130000000 1.0
C      1  0.4248130000000  0.5129700000000  0.4397870000000 1.0
C      1  0.4732150000000  0.5718780000000  0.5602170000000 1.0
C      1  0.4426380000000  0.5075510000000  0.4619410000000 1.0
C      1  0.4774350000000  0.5537320000000  0.5380610000000 1.0
C      1  0.5348290000000  0.5466930000000  0.4619420000000 1.0
C      1  0.5574280000000  0.4934640000000  0.5380590000000 1.0
C      1  0.5226320000000  0.4472820000000  0.4619390000000 1.0
C      1  0.4652380000000  0.4543220000000  0.5380580000000 1.0
C      1  0.5968750000000  0.4555730000000  0.4672090000000 1.0
C      1  0.5095390000000  0.3941710000000  0.5327850000000 1.0
C      1  0.4126970000000  0.4391080000000  0.4672100000000 1.0
C      1  0.4031920000000  0.5454410000000  0.5327910000000 1.0
C      1  0.4905270000000  0.6068430000000  0.4672150000000 1.0
C      1  0.5873690000000  0.5619060000000  0.5327900000000 1.0
C      1  0.5259200000000  0.4369480000000  0.4887030000000 1.0
C      1  0.4579320000000  0.4463080000000  0.5112930000000 1.0
C      1  0.4320450000000  0.5098690000000  0.4887070000000 1.0
C      1  0.4741460000000  0.5640670000000  0.5112970000000 1.0
C      1  0.5421340000000  0.5547070000000  0.4887070000000 1.0
C      1  0.5680210000000  0.4911460000000  0.5112930000000 1.0
C      1  0.5863930000000  0.5613750000000  0.5045140000000 1.0
C      1  0.5959260000000  0.4561520000000  0.4954850000000 1.0
C      1  0.5095660000000  0.3952840000000  0.5045100000000 1.0
C      1  0.4136740000000  0.4396400000000  0.4954860000000 1.0
C      1  0.4041410000000  0.5448630000000  0.5045150000000 1.0
C      1  0.4905000000000  0.6057310000000  0.4954900000000 1.0
C      1  0.4871260000000  0.4637110000000  0.4102490000000 1.0
C      1  0.4617120000000  0.4932820000000  0.5897500000000 1.0
C      1  0.4746160000000  0.5300870000000  0.4102520000000 1.0
C      1  0.5129400000000  0.5373030000000  0.5897510000000 1.0
C      1  0.5383540000000  0.5077330000000  0.4102500000000 1.0
C      1  0.5254500000000  0.4709280000000  0.5897480000000 1.0
C      1  0.3998980000000  0.4405680000000  0.5534330000000 1.0
C      1  0.3980580000000  0.5572600000000  0.4465690000000 1.0
C      1  0.4981940000000  0.6171940000000  0.5534380000000 1.0
C      1  0.6001680000000  0.5604460000000  0.4465670000000 1.0
C      1  0.6020090000000  0.4437540000000  0.5534310000000 1.0
C      1  0.5018720000000  0.3838210000000  0.4465620000000 1.0
C      1  0.5148440000000  0.4617610000000  0.4033490000000 1.0
C      1  0.4738810000000  0.4683010000000  0.5966480000000 1.0
C      1  0.4590680000000  0.5070580000000  0.4033510000000 1.0
C      1  0.4852220000000  0.5392540000000  0.5966510000000 1.0
C      1  0.5261850000000  0.5327130000000  0.4033520000000 1.0
C      1  0.5409980000000  0.4939570000000  0.5966490000000 1.0
C      1  0.5011010000000  0.4671580000000  0.6031750000000 1.0
C      1  0.4716880000000  0.4829140000000  0.3968230000000 1.0
C      1  0.4706220000000  0.5162530000000  0.6031770000000 1.0
C      1  0.4989650000000  0.5338560000000  0.3968250000000 1.0
C      1  0.5283790000000  0.5181010000000  0.6031770000000 1.0
C      1  0.5294440000000  0.4847620000000  0.3968230000000 1.0
C      1  0.5218780000000  0.4519500000000  0.5132470000000 1.0
C      1  0.4689040000000  0.4573120000000  0.4867500000000 1.0
C      1  0.4470600000000  0.5058670000000  0.5132490000000 1.0
C      1  0.4781890000000  0.5490640000000  0.4867530000000 1.0
C      1  0.5311620000000  0.5437030000000  0.5132500000000 1.0
C      1  0.5530060000000  0.4951470000000  0.4867510000000 1.0
C      1  0.4826870000000  0.3925520000000  0.4919270000000 1.0
C      1  0.3978670000000  0.4615510000000  0.5080690000000 1.0
C      1  0.4152140000000  0.5695080000000  0.4919340000000 1.0
C      1  0.5173790000000  0.6084630000000  0.5080730000000 1.0
C      1  0.6021990000000  0.5394630000000  0.4919310000000 1.0
C      1  0.5848530000000  0.4315070000000  0.5080660000000 1.0
C      1  0.4043950000000  0.5320550000000  0.4406410000000 1.0
C      1  0.4795340000000  0.5991020000000  0.5593640000000 1.0
C      1  0.5751700000000  0.5675610000000  0.4406410000000 1.0
C      1  0.5956710000000  0.4689600000000  0.5593590000000 1.0
C      1  0.5205320000000  0.4019120000000  0.4406360000000 1.0
C      1  0.4248960000000  0.4334540000000  0.5593590000000 1.0
C      1  0.5000330000000  0.5005060000000  0.5458490000000 1.0
C      1  0.5000330000000  0.5005090000000  0.4541510000000 1.0
END
