TITL C-74084-3399-176 -4.41828145621378e-07 125000 -547.485854798006 0 0 92 (C1) n - 1
REM
REM in /home/nfs/bkarasulu/CARBON/AIRSS/Generating-Clusters/LCBOP/Higher-Symm/SD-CG/FIRE-CG
REM
REM
REM
REM
REM
REM ./C.cell (b20cbc046b6831c77cfcea5457e17084)
REM AIRSS Version 0.9.1 bugfix July 2018 build 013d7b7c2542+ Fri, 06 Jul 2018 19:26:36 +0100
REM compiler GCC version 9.2.1 20190827 (Red Hat 9.2.1-1)
REM options -cpp -mtune=generic -march=x86-64 -g -O0 -fpre-include=/usr/include/finclude/math-vector-fortran.h
REM seed -1628802549 -1372608328 -1024907034 1127487700 -787656355 -2009314028 1996429023 1685609954 -655642180 -923294778 1041745514 874667924 -1058803671 -867510906 -2018644025 -551605710 1991685643 278838402 872722494 -1095547729 1666173517 1156117649 805314798 1052961953 354850430 309878549 666605530 -969526481 -1324440798 -1485481632 -1147026992 562970251 -249518215
REM
CELL 1.54180   50.00000   50.00000   50.00000   90.00000   90.00000   90.00000
LATT -1
SFAC C  
C      1  0.4857470000000  0.5259410000000  0.5844830000000 1.0
C      1  0.5847290000000  0.4817630000000  0.5261160000000 1.0
C      1  0.5291220000000  0.5851280000000  0.4873420000000 1.0
C      1  0.5143030000000  0.4721530000000  0.5827930000000 1.0
C      1  0.5162170000000  0.5262410000000  0.4150860000000 1.0
C      1  0.4844110000000  0.4747600000000  0.4101930000000 1.0
C      1  0.4124900000000  0.5183720000000  0.5286250000000 1.0
C      1  0.4166280000000  0.4895630000000  0.4748000000000 1.0
C      1  0.5863020000000  0.5126510000000  0.4737730000000 1.0
C      1  0.4724060000000  0.4173360000000  0.4838820000000 1.0
C      1  0.4762820000000  0.5871750000000  0.5164720000000 1.0
C      1  0.5249890000000  0.4110470000000  0.5134840000000 1.0
C      1  0.4867930000000  0.5273490000000  0.4146240000000 1.0
C      1  0.5836440000000  0.4832270000000  0.4733830000000 1.0
C      1  0.5289700000000  0.5859840000000  0.5170780000000 1.0
C      1  0.5141740000000  0.4735560000000  0.4114380000000 1.0
C      1  0.5150830000000  0.5250170000000  0.5827290000000 1.0
C      1  0.4847560000000  0.4729330000000  0.5846750000000 1.0
C      1  0.4161130000000  0.5190120000000  0.4755860000000 1.0
C      1  0.4143950000000  0.4884430000000  0.5275580000000 1.0
C      1  0.5857870000000  0.5115650000000  0.5266140000000 1.0
C      1  0.4720920000000  0.4161260000000  0.5132860000000 1.0
C      1  0.4770230000000  0.5879870000000  0.4865750000000 1.0
C      1  0.5248110000000  0.4122750000000  0.4836230000000 1.0
C      1  0.4654260000000  0.4576650000000  0.4240260000000 1.0
C      1  0.4289590000000  0.4719110000000  0.4559550000000 1.0
C      1  0.4555570000000  0.4316230000000  0.4658760000000 1.0
C      1  0.5344530000000  0.5436130000000  0.4286820000000 1.0
C      1  0.5323420000000  0.4528520000000  0.5714860000000 1.0
C      1  0.4673940000000  0.5453480000000  0.5735820000000 1.0
C      1  0.5742680000000  0.5318300000000  0.4561160000000 1.0
C      1  0.5720970000000  0.4629940000000  0.5437480000000 1.0
C      1  0.4243820000000  0.5373220000000  0.5476580000000 1.0
C      1  0.5461860000000  0.5713160000000  0.4687660000000 1.0
C      1  0.5438120000000  0.4225160000000  0.5325580000000 1.0
C      1  0.4602010000000  0.5660030000000  0.5287900000000 1.0
C      1  0.4654900000000  0.4554230000000  0.5726890000000 1.0
C      1  0.4269480000000  0.4693650000000  0.5448330000000 1.0
C      1  0.4541840000000  0.4291780000000  0.5316320000000 1.0
C      1  0.5335060000000  0.5432730000000  0.5714070000000 1.0
C      1  0.5307720000000  0.4548150000000  0.4257400000000 1.0
C      1  0.4697420000000  0.5452450000000  0.4291620000000 1.0
C      1  0.5728170000000  0.5303400000000  0.5441290000000 1.0
C      1  0.5687920000000  0.4666730000000  0.4555730000000 1.0
C      1  0.4298440000000  0.5368480000000  0.4580610000000 1.0
C      1  0.5474120000000  0.5734720000000  0.5353120000000 1.0
C      1  0.5424610000000  0.4257800000000  0.4653460000000 1.0
C      1  0.4595130000000  0.5749530000000  0.4681240000000 1.0
C      1  0.4710820000000  0.5128040000000  0.4716140000000 1.0
C      1  0.4862710000000  0.4950440000000  0.5408450000000 1.0
C      1  0.5475230000000  0.4977620000000  0.5020020000000 1.0
C      1  0.5183980000000  0.4559470000000  0.4912950000000 1.0
C      1  0.4917360000000  0.5412090000000  0.5027320000000 1.0
C      1  0.5022650000000  0.4522840000000  0.5338610000000 1.0
C      1  0.5118170000000  0.5338330000000  0.5217790000000 1.0
C      1  0.5202100000000  0.4947490000000  0.4551410000000 1.0
C      1  0.4744100000000  0.4949540000000  0.4507800000000 1.0
C      1  0.4611930000000  0.4997330000000  0.4949800000000 1.0
C      1  0.4817830000000  0.4702610000000  0.5277190000000 1.0
C      1  0.5361640000000  0.5401480000000  0.5086360000000 1.0
C      1  0.4654290000000  0.5435420000000  0.5118300000000 1.0
C      1  0.4968300000000  0.4788560000000  0.4563120000000 1.0
C      1  0.5310530000000  0.4882740000000  0.5225410000000 1.0
C      1  0.5239200000000  0.4612870000000  0.5181560000000 1.0
C      1  0.4942970000000  0.5290490000000  0.4772820000000 1.0
C      1  0.4940540000000  0.4648840000000  0.4805550000000 1.0
C      1  0.5202420000000  0.5187020000000  0.4698020000000 1.0
C      1  0.5111260000000  0.5070650000000  0.5330920000000 1.0
C      1  0.4621990000000  0.5086320000000  0.5415290000000 1.0
C      1  0.4550170000000  0.5179100000000  0.5160620000000 1.0
C      1  0.4743500000000  0.4742920000000  0.5001490000000 1.0
C      1  0.5411050000000  0.5213810000000  0.4885870000000 1.0
C      1  0.4753560000000  0.4996790000000  0.5915860000000 1.0
C      1  0.5256830000000  0.4999900000000  0.4068660000000 1.0
C      1  0.5900940000000  0.4718740000000  0.4992810000000 1.0
C      1  0.5035730000000  0.5932890000000  0.4768570000000 1.0
C      1  0.4076900000000  0.5288130000000  0.5016730000000 1.0
C      1  0.4098340000000  0.4787030000000  0.5006190000000 1.0
C      1  0.5935630000000  0.5219190000000  0.5004310000000 1.0
C      1  0.4978720000000  0.4084010000000  0.4734910000000 1.0
C      1  0.5025230000000  0.5926850000000  0.5274430000000 1.0
C      1  0.4977580000000  0.4064410000000  0.5233310000000 1.0
C      1  0.5252440000000  0.4984180000000  0.5874730000000 1.0
C      1  0.4756470000000  0.5022130000000  0.4047800000000 1.0
C      1  0.5510660000000  0.4443630000000  0.5508900000000 1.0
C      1  0.5529310000000  0.5504270000000  0.4498280000000 1.0
C      1  0.4485240000000  0.5538570000000  0.5530540000000 1.0
C      1  0.4520590000000  0.5535260000000  0.4504840000000 1.0
C      1  0.4472230000000  0.4497390000000  0.5509510000000 1.0
C      1  0.5482380000000  0.4480740000000  0.4478490000000 1.0
C      1  0.4487080000000  0.4525950000000  0.4473990000000 1.0
C      1  0.5530630000000  0.5501840000000  0.5516610000000 1.0
END
