TITL C-74080-5790-113 84.4178417946887 125000 -985.720766005754 0 0 159 (C1) n - 1
REM
REM in /home/nfs/bkarasulu/CARBON/AIRSS/Generating-Clusters/LCBOP/Higher-Symm/SD-CG/FIRE-CG
REM
REM
REM
REM
REM
REM ./C.cell (b20cbc046b6831c77cfcea5457e17084)
REM AIRSS Version 0.9.1 bugfix July 2018 build 013d7b7c2542+ Fri, 06 Jul 2018 19:26:36 +0100
REM compiler GCC version 9.2.1 20190827 (Red Hat 9.2.1-1)
REM options -cpp -mtune=generic -march=x86-64 -g -O0 -fpre-include=/usr/include/finclude/math-vector-fortran.h
REM seed -15428307 -571002280 527758643 -838312340 -1907662049 -1528324096 -2026406303 603795266 -1894259879 -28166502 1322627189 -1639147121 -134707104 732504714 -2137789280 503571930 694503844 -1257054751 -627018381 1365310806 -2047087469 606017172 1804977034 1334478037 1683514914 -714109077 650031330 -111550966 447652075 1611347851 -1833388133 -1316286738 673155982
REM
CELL 1.54180   50.00000   50.00000   50.00000   90.00000   90.00000   90.00000
LATT -1
SFAC C  
C      1  0.4206680000000  0.5449680000000  0.5477160000000 1.0
C      1  0.6114550000000  0.5395910000000  0.4539640000000 1.0
C      1  0.4280790000000  0.4661570000000  0.5592280000000 1.0
C      1  0.5358190000000  0.4401340000000  0.4423020000000 1.0
C      1  0.4783220000000  0.4526680000000  0.4713290000000 1.0
C      1  0.5058630000000  0.4445840000000  0.5403040000000 1.0
C      1  0.5122480000000  0.4875550000000  0.3410880000000 1.0
C      1  0.5108180000000  0.4537420000000  0.6124170000000 1.0
C      1  0.5708010000000  0.5967140000000  0.4972810000000 1.0
C      1  0.4281640000000  0.6037540000000  0.5033360000000 1.0
C      1  0.4422400000000  0.5063390000000  0.6313260000000 1.0
C      1  0.5823500000000  0.5029710000000  0.3852230000000 1.0
C      1  0.5072540000000  0.4160570000000  0.5775700000000 1.0
C      1  0.4899710000000  0.4125370000000  0.4370600000000 1.0
C      1  0.4114760000000  0.5443110000000  0.5218970000000 1.0
C      1  0.6211130000000  0.5305370000000  0.4777360000000 1.0
C      1  0.4464280000000  0.4412560000000  0.5023640000000 1.0
C      1  0.5278240000000  0.4281580000000  0.5020830000000 1.0
C      1  0.4080980000000  0.5341760000000  0.4944930000000 1.0
C      1  0.6131760000000  0.5172900000000  0.5017450000000 1.0
C      1  0.5041860000000  0.5642360000000  0.4959100000000 1.0
C      1  0.5538550000000  0.5195440000000  0.4918650000000 1.0
C      1  0.5791720000000  0.5504380000000  0.5151310000000 1.0
C      1  0.4445380000000  0.5652930000000  0.4776250000000 1.0
C      1  0.5353030000000  0.4946920000000  0.6092540000000 1.0
C      1  0.4942110000000  0.5223970000000  0.3663460000000 1.0
C      1  0.4535670000000  0.5341330000000  0.4302240000000 1.0
C      1  0.5671280000000  0.5254810000000  0.5635170000000 1.0
C      1  0.5205790000000  0.4519290000000  0.4913470000000 1.0
C      1  0.4616780000000  0.4493560000000  0.5242260000000 1.0
C      1  0.4302540000000  0.7205620000000  0.5157430000000 1.0
C      1  0.3961870000000  0.6476610000000  0.5068850000000 1.0
C      1  0.4592450000000  0.4347600000000  0.4795080000000 1.0
C      1  0.5246560000000  0.4272080000000  0.5290200000000 1.0
C      1  0.4942950000000  0.5108730000000  0.5561150000000 1.0
C      1  0.5172000000000  0.5105000000000  0.4488530000000 1.0
C      1  0.5331550000000  0.5230680000000  0.6040750000000 1.0
C      1  0.4910590000000  0.5377890000000  0.3894200000000 1.0
C      1  0.5160720000000  0.5561420000000  0.4265100000000 1.0
C      1  0.5123850000000  0.5561380000000  0.5756360000000 1.0
C      1  0.4948890000000  0.4608360000000  0.4923640000000 1.0
C      1  0.4791200000000  0.4344550000000  0.5405100000000 1.0
C      1  0.4713420000000  0.4824260000000  0.5956380000000 1.0
C      1  0.5376380000000  0.4840040000000  0.4076160000000 1.0
C      1  0.4867370000000  0.4935820000000  0.6171660000000 1.0
C      1  0.5346790000000  0.5019120000000  0.3859530000000 1.0
C      1  0.4190210000000  0.6967300000000  0.5128480000000 1.0
C      1  0.4078140000000  0.6729040000000  0.5099520000000 1.0
C      1  0.4432790000000  0.5804240000000  0.5017530000000 1.0
C      1  0.5780740000000  0.5696150000000  0.4934580000000 1.0
C      1  0.4838450000000  0.4097210000000  0.5569660000000 1.0
C      1  0.5008410000000  0.3896970000000  0.4514250000000 1.0
C      1  0.4000920000000  0.5053700000000  0.4944460000000 1.0
C      1  0.6004300000000  0.4916280000000  0.4972050000000 1.0
C      1  0.3932050000000  0.4404030000000  0.5761730000000 1.0
C      1  0.5814190000000  0.4227610000000  0.4323610000000 1.0
C      1  0.5113480000000  0.3837640000000  0.5261520000000 1.0
C      1  0.4689460000000  0.3891670000000  0.4883200000000 1.0
C      1  0.4035850000000  0.4722250000000  0.6161320000000 1.0
C      1  0.6038760000000  0.4580970000000  0.4030340000000 1.0
C      1  0.4697860000000  0.5658610000000  0.4638720000000 1.0
C      1  0.5544030000000  0.5346360000000  0.5169290000000 1.0
C      1  0.4059270000000  0.4860070000000  0.4725670000000 1.0
C      1  0.5998160000000  0.4701190000000  0.5185390000000 1.0
C      1  0.4126770000000  0.6251580000000  0.5050290000000 1.0
C      1  0.5514510000000  0.6127770000000  0.4875520000000 1.0
C      1  0.4172010000000  0.4414050000000  0.4519390000000 1.0
C      1  0.5770140000000  0.4315320000000  0.5444020000000 1.0
C      1  0.5708900000000  0.5595890000000  0.4670230000000 1.0
C      1  0.4582770000000  0.5710590000000  0.5235910000000 1.0
C      1  0.5599290000000  0.4521030000000  0.5862210000000 1.0
C      1  0.4912520000000  0.4985670000000  0.3265570000000 1.0
C      1  0.5177980000000  0.5323670000000  0.5575350000000 1.0
C      1  0.5006660000000  0.5353080000000  0.4380820000000 1.0
C      1  0.4796910000000  0.5266230000000  0.5341110000000 1.0
C      1  0.5312380000000  0.5273480000000  0.4735890000000 1.0
C      1  0.4352650000000  0.5455440000000  0.5708770000000 1.0
C      1  0.5870590000000  0.5510290000000  0.4449020000000 1.0
C      1  0.5417640000000  0.4671810000000  0.4525530000000 1.0
C      1  0.4504050000000  0.4829590000000  0.5539440000000 1.0
C      1  0.5580160000000  0.5187720000000  0.3851570000000 1.0
C      1  0.4696130000000  0.5154570000000  0.6255610000000 1.0
C      1  0.5570650000000  0.4769810000000  0.5001630000000 1.0
C      1  0.4439020000000  0.4910440000000  0.5082460000000 1.0
C      1  0.5088310000000  0.5363640000000  0.4934490000000 1.0
C      1  0.4911600000000  0.5211180000000  0.5087230000000 1.0
C      1  0.4110450000000  0.4433210000000  0.5540840000000 1.0
C      1  0.5583820000000  0.4221520000000  0.4488330000000 1.0
C      1  0.5588480000000  0.4294990000000  0.5680280000000 1.0
C      1  0.4358620000000  0.4285770000000  0.4359770000000 1.0
C      1  0.5076150000000  0.4440950000000  0.5862850000000 1.0
C      1  0.5063990000000  0.4375380000000  0.4369650000000 1.0
C      1  0.5372630000000  0.4944490000000  0.5412450000000 1.0
C      1  0.4754460000000  0.4997580000000  0.4709360000000 1.0
C      1  0.4579530000000  0.4082720000000  0.4702050000000 1.0
C      1  0.5296680000000  0.4012000000000  0.5408470000000 1.0
C      1  0.6000470000000  0.4361320000000  0.4183720000000 1.0
C      1  0.3915970000000  0.4544400000000  0.5994670000000 1.0
C      1  0.5293580000000  0.6122640000000  0.4721050000000 1.0
C      1  0.4926470000000  0.5794540000000  0.4749940000000 1.0
C      1  0.5891100000000  0.4410890000000  0.5186100000000 1.0
C      1  0.4087140000000  0.4557810000000  0.4765300000000 1.0
C      1  0.4901060000000  0.5683650000000  0.5605970000000 1.0
C      1  0.5281340000000  0.5716160000000  0.4461080000000 1.0
C      1  0.4836090000000  0.3884930000000  0.5359800000000 1.0
C      1  0.4957440000000  0.3817950000000  0.4789080000000 1.0
C      1  0.5118600000000  0.4814480000000  0.6192030000000 1.0
C      1  0.5154510000000  0.5018980000000  0.3660580000000 1.0
C      1  0.4413030000000  0.7440030000000  0.5185890000000 1.0
C      1  0.3689880000000  0.6450100000000  0.5057140000000 1.0
C      1  0.4340700000000  0.4026970000000  0.5266550000000 1.0
C      1  0.5374720000000  0.4044180000000  0.4896700000000 1.0
C      1  0.4140740000000  0.4271800000000  0.5290090000000 1.0
C      1  0.5617730000000  0.4132030000000  0.4765480000000 1.0
C      1  0.4802340000000  0.5195390000000  0.3411210000000 1.0
C      1  0.5544550000000  0.4761750000000  0.5978740000000 1.0
C      1  0.5577220000000  0.4653590000000  0.4002760000000 1.0
C      1  0.4492310000000  0.4679230000000  0.6052830000000 1.0
C      1  0.5892650000000  0.5134750000000  0.5470570000000 1.0
C      1  0.4314930000000  0.5258450000000  0.4488210000000 1.0
C      1  0.5526630000000  0.5433290000000  0.3989620000000 1.0
C      1  0.4763710000000  0.5375720000000  0.6078930000000 1.0
C      1  0.5134520000000  0.4872340000000  0.5544080000000 1.0
C      1  0.4939660000000  0.4904830000000  0.4522900000000 1.0
C      1  0.5405480000000  0.4670530000000  0.4807900000000 1.0
C      1  0.4585240000000  0.4773120000000  0.5277890000000 1.0
C      1  0.4751570000000  0.5443830000000  0.4458560000000 1.0
C      1  0.5430590000000  0.5239700000000  0.5432280000000 1.0
C      1  0.4600700000000  0.4130460000000  0.4410330000000 1.0
C      1  0.5355130000000  0.4095300000000  0.5679220000000 1.0
C      1  0.5414270000000  0.5636030000000  0.5821990000000 1.0
C      1  0.4417000000000  0.5409590000000  0.3835900000000 1.0
C      1  0.5570790000000  0.4796410000000  0.5289970000000 1.0
C      1  0.4503090000000  0.4957480000000  0.4808710000000 1.0
C      1  0.4165150000000  0.4949280000000  0.5156390000000 1.0
C      1  0.5727310000000  0.4979460000000  0.4893660000000 1.0
C      1  0.5176330000000  0.3838500000000  0.4972060000000 1.0
C      1  0.4606660000000  0.3903370000000  0.5170400000000 1.0
C      1  0.5100660000000  0.4610280000000  0.5626550000000 1.0
C      1  0.4911540000000  0.4613460000000  0.4468110000000 1.0
C      1  0.5365200000000  0.4903550000000  0.4356670000000 1.0
C      1  0.4700420000000  0.4949980000000  0.5703520000000 1.0
C      1  0.5435220000000  0.5544510000000  0.4627670000000 1.0
C      1  0.4746800000000  0.5552200000000  0.5400030000000 1.0
C      1  0.4249710000000  0.5445080000000  0.4720040000000 1.0
C      1  0.5997900000000  0.5311370000000  0.5242520000000 1.0
C      1  0.5549460000000  0.5375070000000  0.5876930000000 1.0
C      1  0.4623000000000  0.5371530000000  0.4017640000000 1.0
C      1  0.4546750000000  0.5458070000000  0.5902040000000 1.0
C      1  0.5731410000000  0.5504420000000  0.4190820000000 1.0
C      1  0.4295790000000  0.4990490000000  0.4606990000000 1.0
C      1  0.5842800000000  0.4850920000000  0.5391870000000 1.0
C      1  0.5837840000000  0.4754940000000  0.3938930000000 1.0
C      1  0.4296530000000  0.4824010000000  0.6203140000000 1.0
C      1  0.5815290000000  0.4258780000000  0.4945940000000 1.0
C      1  0.4176550000000  0.4422510000000  0.5028850000000 1.0
C      1  0.5055150000000  0.5397420000000  0.6015540000000 1.0
C      1  0.5233660000000  0.5499390000000  0.4007890000000 1.0
C      1  0.5137210000000  0.5920270000000  0.4600800000000 1.0
END
