TITL C-74085-4933-439 -2.69115227117123e-07 125000 -179.25309396367 0 0 30 (C1) n - 1
REM
REM in /home/nfs/bkarasulu/CARBON/AIRSS/Generating-Clusters/LCBOP/Higher-Symm/SD-CG/FIRE-CG
REM
REM
REM
REM
REM
REM ./C.cell (b20cbc046b6831c77cfcea5457e17084)
REM AIRSS Version 0.9.1 bugfix July 2018 build 013d7b7c2542+ Fri, 06 Jul 2018 19:26:36 +0100
REM compiler GCC version 9.2.1 20190827 (Red Hat 9.2.1-1)
REM options -cpp -mtune=generic -march=x86-64 -g -O0 -fpre-include=/usr/include/finclude/math-vector-fortran.h
REM seed -504994148 -340747580 2058884066 -1660637152 -1633553238 -338377981 746292627 -1449793271 -1095379069 -1719024430 -1314720669 977995711 970989285 1568982150 -652353834 402689617 -304896041 1261933334 797166548 99555619 -1495825668 896742099 -1377573282 1302990837 -919945337 -1530179497 -676478432 234809440 -2054026231 1680693742 -697587602 206156914 -1757119917
REM
CELL 1.54180   50.00000   50.00000   50.00000   90.00000   90.00000   90.00000
LATT -1
SFAC C  
C      1  0.5002670000000  0.4975160000000  0.5439590000000 1.0
C      1  0.5349990000000  0.5072600000000  0.5076620000000 1.0
C      1  0.4789280000000  0.5149380000000  0.4867350000000 1.0
C      1  0.5666200000000  0.5429580000000  0.5200500000000 1.0
C      1  0.4618570000000  0.5312350000000  0.4391430000000 1.0
C      1  0.4671070000000  0.5263580000000  0.5680040000000 1.0
C      1  0.5162550000000  0.4731130000000  0.4503190000000 1.0
C      1  0.4525610000000  0.4587520000000  0.5132570000000 1.0
C      1  0.5374990000000  0.4406700000000  0.5286320000000 1.0
C      1  0.4846370000000  0.4868580000000  0.4867830000000 1.0
C      1  0.4978070000000  0.4722790000000  0.5302610000000 1.0
C      1  0.5297320000000  0.4806390000000  0.4982930000000 1.0
C      1  0.4675140000000  0.5244800000000  0.4139700000000 1.0
C      1  0.4607140000000  0.5446670000000  0.5491830000000 1.0
C      1  0.5494340000000  0.5529930000000  0.5385440000000 1.0
C      1  0.5230320000000  0.4624790000000  0.5198990000000 1.0
C      1  0.5107420000000  0.4793780000000  0.4767660000000 1.0
C      1  0.4768210000000  0.4717870000000  0.5102630000000 1.0
C      1  0.5593180000000  0.5214740000000  0.5051540000000 1.0
C      1  0.4664210000000  0.5271940000000  0.4650350000000 1.0
C      1  0.4845810000000  0.5058800000000  0.5658400000000 1.0
C      1  0.4701790000000  0.5464960000000  0.5239500000000 1.0
C      1  0.5247650000000  0.5420870000000  0.5417870000000 1.0
C      1  0.4828170000000  0.5077720000000  0.3998050000000 1.0
C      1  0.5124900000000  0.5196330000000  0.5257610000000 1.0
C      1  0.5009020000000  0.4885740000000  0.4041080000000 1.0
C      1  0.4880420000000  0.5296500000000  0.5096030000000 1.0
C      1  0.4295260000000  0.4469540000000  0.5163060000000 1.0
C      1  0.5511800000000  0.4200890000000  0.5369000000000 1.0
C      1  0.5132530000000  0.4758370000000  0.4240260000000 1.0
END
