TITL C-74085-4933-3 13952.9644702001 125000 -530.687891992884 0 0 88 (C1) n - 1
REM
REM in /home/nfs/bkarasulu/CARBON/AIRSS/Generating-Clusters/LCBOP/Higher-Symm/SD-CG/FIRE-CG
REM
REM
REM
REM
REM
REM ./C.cell (b20cbc046b6831c77cfcea5457e17084)
REM AIRSS Version 0.9.1 bugfix July 2018 build 013d7b7c2542+ Fri, 06 Jul 2018 19:26:36 +0100
REM compiler GCC version 9.2.1 20190827 (Red Hat 9.2.1-1)
REM options -cpp -mtune=generic -march=x86-64 -g -O0 -fpre-include=/usr/include/finclude/math-vector-fortran.h
REM seed 190600149 -1368211654 1865200428 -1479831662 702785824 -889751121 -1342902954 827728594 -311530658 1899243987 275964764 -695893823 -2095500145 1941404025 -1039987481 -253562200 1478881130 -1097536925 -2008508762 -788436940 -358176219 -1619695566 625854607 986761111 -180822581 1138968906 -805497344 1662206171 -296682548 -2012087033 239940235 1369311781 35039115
REM
CELL 1.54180   50.00000   50.00000   50.00000   90.00000   90.00000   90.00000
LATT -1
SFAC C  
C      1  0.5065090000000  0.5058350000000  0.4534980000000 1.0
C      1  0.5372810000000  0.5051760000000  0.5319950000000 1.0
C      1  0.4541240000000  0.5025180000000  0.5194150000000 1.0
C      1  0.3629120000000  0.4435300000000  0.4424840000000 1.0
C      1  0.6131290000000  0.4395030000000  0.4095960000000 1.0
C      1  0.5226240000000  0.4375550000000  0.6455890000000 1.0
C      1  0.4432440000000  0.4985570000000  0.4060000000000 1.0
C      1  0.6103530000000  0.4928040000000  0.4978310000000 1.0
C      1  0.4470920000000  0.4924890000000  0.5997070000000 1.0
C      1  0.5205250000000  0.5729290000000  0.5052650000000 1.0
C      1  0.4871030000000  0.5726830000000  0.5177810000000 1.0
C      1  0.4945990000000  0.5723030000000  0.4813840000000 1.0
C      1  0.4890350000000  0.4997700000000  0.5521820000000 1.0
C      1  0.4606780000000  0.5025170000000  0.4671950000000 1.0
C      1  0.5483140000000  0.5005640000000  0.4852830000000 1.0
C      1  0.5591800000000  0.5474450000000  0.4908860000000 1.0
C      1  0.4773310000000  0.5466570000000  0.5574630000000 1.0
C      1  0.4573930000000  0.5507240000000  0.4590690000000 1.0
C      1  0.4082860000000  0.5135420000000  0.5248650000000 1.0
C      1  0.5246340000000  0.5159950000000  0.4109310000000 1.0
C      1  0.5646040000000  0.5155800000000  0.5694590000000 1.0
C      1  0.5711270000000  0.4201030000000  0.5936450000000 1.0
C      1  0.3812650000000  0.4191970000000  0.5089960000000 1.0
C      1  0.5444450000000  0.4209350000000  0.3925560000000 1.0
C      1  0.5730290000000  0.5176300000000  0.4033230000000 1.0
C      1  0.5475070000000  0.5164190000000  0.6153950000000 1.0
C      1  0.3771020000000  0.5180070000000  0.4873590000000 1.0
C      1  0.4413730000000  0.4833750000000  0.4767570000000 1.0
C      1  0.5480850000000  0.4823760000000  0.4630260000000 1.0
C      1  0.5084070000000  0.4817040000000  0.5633430000000 1.0
C      1  0.5326680000000  0.4463380000000  0.6217080000000 1.0
C      1  0.3781560000000  0.4499490000000  0.4642730000000 1.0
C      1  0.5872360000000  0.4477830000000  0.4126440000000 1.0
C      1  0.5717120000000  0.4688430000000  0.4542820000000 1.0
C      1  0.5040960000000  0.4681070000000  0.5881230000000 1.0
C      1  0.4221090000000  0.4714080000000  0.4593420000000 1.0
C      1  0.5813470000000  0.4713480000000  0.4274440000000 1.0
C      1  0.5226560000000  0.4701540000000  0.6098130000000 1.0
C      1  0.3940010000000  0.4735750000000  0.4642560000000 1.0
C      1  0.4331740000000  0.5650190000000  0.5010430000000 1.0
C      1  0.5082460000000  0.5734860000000  0.4185500000000 1.0
C      1  0.5570330000000  0.5742180000000  0.5558740000000 1.0
C      1  0.4816860000000  0.4998140000000  0.5243240000000 1.0
C      1  0.4884470000000  0.5023460000000  0.4748700000000 1.0
C      1  0.5279060000000  0.5014430000000  0.5056150000000 1.0
C      1  0.5342530000000  0.4836890000000  0.5519110000000 1.0
C      1  0.4383090000000  0.4825280000000  0.5049520000000 1.0
C      1  0.5253350000000  0.4844460000000  0.4463270000000 1.0
C      1  0.5513310000000  0.5538410000000  0.5377140000000 1.0
C      1  0.4439140000000  0.5510300000000  0.5229590000000 1.0
C      1  0.5007630000000  0.5536520000000  0.4367060000000 1.0
C      1  0.5479630000000  0.5269320000000  0.3998530000000 1.0
C      1  0.5627630000000  0.5260920000000  0.5953870000000 1.0
C      1  0.3866810000000  0.5253880000000  0.5114560000000 1.0
C      1  0.4584070000000  0.5137800000000  0.5880350000000 1.0
C      1  0.4472310000000  0.5190150000000  0.4228290000000 1.0
C      1  0.5947970000000  0.5142140000000  0.4936600000000 1.0
C      1  0.5440550000000  0.5602030000000  0.5108740000000 1.0
C      1  0.4692100000000  0.5591880000000  0.5336270000000 1.0
C      1  0.4842520000000  0.5604200000000  0.4589160000000 1.0
C      1  0.4789950000000  0.4566300000000  0.5938220000000 1.0
C      1  0.4300820000000  0.4614630000000  0.4342130000000 1.0
C      1  0.5891050000000  0.4571050000000  0.4731020000000 1.0
C      1  0.6071650000000  0.4672070000000  0.4902450000000 1.0
C      1  0.4551920000000  0.4668830000000  0.6008990000000 1.0
C      1  0.4371590000000  0.4728440000000  0.4109390000000 1.0
C      1  0.5683670000000  0.5211390000000  0.4873480000000 1.0
C      1  0.4767580000000  0.5205820000000  0.5679450000000 1.0
C      1  0.4530350000000  0.5242260000000  0.4497660000000 1.0
C      1  0.3847250000000  0.4055980000000  0.5309660000000 1.0
C      1  0.5225710000000  0.4092750000000  0.3844830000000 1.0
C      1  0.5888430000000  0.4088610000000  0.5781740000000 1.0
C      1  0.3785040000000  0.4334670000000  0.4868460000000 1.0
C      1  0.5661620000000  0.4332780000000  0.4013820000000 1.0
C      1  0.5528160000000  0.4321040000000  0.6085650000000 1.0
C      1  0.5269090000000  0.4876310000000  0.4177480000000 1.0
C      1  0.5581150000000  0.4871220000000  0.5676520000000 1.0
C      1  0.4126600000000  0.4854060000000  0.5178670000000 1.0
C      1  0.5316910000000  0.4951190000000  0.6191050000000 1.0
C      1  0.3818430000000  0.4983230000000  0.4698180000000 1.0
C      1  0.5844220000000  0.4964870000000  0.4151920000000 1.0
C      1  0.5524920000000  0.5266220000000  0.5450860000000 1.0
C      1  0.4355960000000  0.5241870000000  0.5265810000000 1.0
C      1  0.5090460000000  0.5269120000000  0.4333230000000 1.0
C      1  0.5152450000000  0.5920890000000  0.4016960000000 1.0
C      1  0.5616330000000  0.5936190000000  0.5726540000000 1.0
C      1  0.4381450000000  0.5637680000000  0.4747320000000 1.0
C      1  0.4993570000000  0.5005650000000  0.5015470000000 1.0
END
