TITL C-74079-2735-315 3.97426060066356e-06 125000 -540.024634323338 0 0 89 (C1) n - 1
REM
REM in /home/nfs/bkarasulu/CARBON/AIRSS/Generating-Clusters/LCBOP/Higher-Symm/SD-CG/FIRE-CG
REM
REM
REM
REM
REM
REM ./C.cell (b20cbc046b6831c77cfcea5457e17084)
REM AIRSS Version 0.9.1 bugfix July 2018 build 013d7b7c2542+ Fri, 06 Jul 2018 19:26:36 +0100
REM compiler GCC version 9.2.1 20190827 (Red Hat 9.2.1-1)
REM options -cpp -mtune=generic -march=x86-64 -g -O0 -fpre-include=/usr/include/finclude/math-vector-fortran.h
REM seed -576851842 -1401391904 -467432591 -63725919 1110229506 755867182 1912726925 1557912352 1397798912 -2112551440 -2122110577 233631317 557617749 54581049 157244688 -1781538153 1515760136 -1635783996 -1749710616 400644851 1305419614 1170370114 -1856787156 515422586 -760739425 1813635011 1663035848 2100986467 -1841097637 -2071638044 1999342045 1337910970 -285620412
REM
CELL 1.54180   50.00000   50.00000   50.00000   90.00000   90.00000   90.00000
LATT -1
SFAC C  
C      1  0.5289080000000  0.5151750000000  0.4995670000000 1.0
C      1  0.4674800000000  0.4236040000000  0.4802040000000 1.0
C      1  0.4750660000000  0.4658870000000  0.5209330000000 1.0
C      1  0.5218340000000  0.5679720000000  0.5406890000000 1.0
C      1  0.4350290000000  0.5512420000000  0.5639520000000 1.0
C      1  0.5956600000000  0.4873610000000  0.4887170000000 1.0
C      1  0.6092790000000  0.5680950000000  0.4704880000000 1.0
C      1  0.5748810000000  0.4651590000000  0.4499890000000 1.0
C      1  0.4717900000000  0.5722930000000  0.5082600000000 1.0
C      1  0.4779060000000  0.4331600000000  0.5845370000000 1.0
C      1  0.5483310000000  0.5182220000000  0.4279490000000 1.0
C      1  0.5172560000000  0.4480830000000  0.5598120000000 1.0
C      1  0.3920330000000  0.5214620000000  0.4809860000000 1.0
C      1  0.5804530000000  0.5417830000000  0.5268230000000 1.0
C      1  0.5304440000000  0.5410600000000  0.4325710000000 1.0
C      1  0.5633030000000  0.5610630000000  0.5190430000000 1.0
C      1  0.4840810000000  0.5572160000000  0.5689400000000 1.0
C      1  0.4821410000000  0.5371670000000  0.4506770000000 1.0
C      1  0.5516660000000  0.5242660000000  0.4850150000000 1.0
C      1  0.4594540000000  0.5489350000000  0.5789850000000 1.0
C      1  0.4175390000000  0.4676390000000  0.5627330000000 1.0
C      1  0.5324590000000  0.4614300000000  0.4712020000000 1.0
C      1  0.4549900000000  0.5357440000000  0.4424310000000 1.0
C      1  0.5876980000000  0.4630830000000  0.4756810000000 1.0
C      1  0.4106910000000  0.5453240000000  0.5770350000000 1.0
C      1  0.4862030000000  0.5347530000000  0.4808300000000 1.0
C      1  0.4732030000000  0.4859180000000  0.4570980000000 1.0
C      1  0.4401060000000  0.4621560000000  0.5782650000000 1.0
C      1  0.5013940000000  0.4226160000000  0.4467190000000 1.0
C      1  0.5354840000000  0.4924320000000  0.4324110000000 1.0
C      1  0.4277330000000  0.4555750000000  0.4359140000000 1.0
C      1  0.4686720000000  0.5984010000000  0.5150870000000 1.0
C      1  0.5188770000000  0.4487520000000  0.5330140000000 1.0
C      1  0.5769310000000  0.5310480000000  0.4733070000000 1.0
C      1  0.5876370000000  0.4136430000000  0.4793410000000 1.0
C      1  0.4367560000000  0.5519150000000  0.5360190000000 1.0
C      1  0.5204630000000  0.5714610000000  0.4925460000000 1.0
C      1  0.4033320000000  0.5262330000000  0.5946510000000 1.0
C      1  0.4600840000000  0.5299130000000  0.5997940000000 1.0
C      1  0.5008990000000  0.4567770000000  0.5131670000000 1.0
C      1  0.4271940000000  0.4703680000000  0.4586320000000 1.0
C      1  0.5291440000000  0.5770870000000  0.4665170000000 1.0
C      1  0.4962920000000  0.4536890000000  0.5776600000000 1.0
C      1  0.4915120000000  0.4355570000000  0.4702830000000 1.0
C      1  0.5056280000000  0.4585860000000  0.4835330000000 1.0
C      1  0.5941790000000  0.4665160000000  0.5314860000000 1.0
C      1  0.5903720000000  0.5167980000000  0.5278160000000 1.0
C      1  0.5915770000000  0.4426190000000  0.5189580000000 1.0
C      1  0.4086650000000  0.5260310000000  0.4604930000000 1.0
C      1  0.5268820000000  0.5139400000000  0.5278000000000 1.0
C      1  0.4659940000000  0.3909150000000  0.4457360000000 1.0
C      1  0.5885270000000  0.4599500000000  0.4268810000000 1.0
C      1  0.5856050000000  0.5559100000000  0.4623500000000 1.0
C      1  0.4596340000000  0.5285160000000  0.4972120000000 1.0
C      1  0.4529300000000  0.5512360000000  0.5134660000000 1.0
C      1  0.5687800000000  0.5677060000000  0.4432360000000 1.0
C      1  0.4939280000000  0.5614400000000  0.4936180000000 1.0
C      1  0.5122720000000  0.5211590000000  0.5509970000000 1.0
C      1  0.5364320000000  0.5697840000000  0.5165770000000 1.0
C      1  0.4554190000000  0.4021830000000  0.4682820000000 1.0
C      1  0.4190550000000  0.5073280000000  0.6060300000000 1.0
C      1  0.4550710000000  0.4823550000000  0.5141320000000 1.0
C      1  0.5006710000000  0.5018980000000  0.5680200000000 1.0
C      1  0.4490560000000  0.5019310000000  0.4948180000000 1.0
C      1  0.5960830000000  0.5106320000000  0.4734720000000 1.0
C      1  0.5068330000000  0.5491160000000  0.5549620000000 1.0
C      1  0.4691180000000  0.4681800000000  0.4125930000000 1.0
C      1  0.4469430000000  0.5050440000000  0.6012270000000 1.0
C      1  0.5407560000000  0.5647820000000  0.4440700000000 1.0
C      1  0.5947120000000  0.4909340000000  0.5173520000000 1.0
C      1  0.4936580000000  0.4859320000000  0.4769540000000 1.0
C      1  0.4346830000000  0.5187450000000  0.4524510000000 1.0
C      1  0.4578410000000  0.4832890000000  0.5867780000000 1.0
C      1  0.5069740000000  0.4997170000000  0.4280620000000 1.0
C      1  0.6311610000000  0.5788900000000  0.4796400000000 1.0
C      1  0.4013850000000  0.4797140000000  0.5453310000000 1.0
C      1  0.5471680000000  0.4725640000000  0.4497650000000 1.0
C      1  0.3868000000000  0.5096830000000  0.5043530000000 1.0
C      1  0.5852130000000  0.3906220000000  0.4673720000000 1.0
C      1  0.4448890000000  0.4931570000000  0.4655600000000 1.0
C      1  0.4889640000000  0.4012340000000  0.4351050000000 1.0
C      1  0.5889650000000  0.4388490000000  0.4909540000000 1.0
C      1  0.4835210000000  0.4841870000000  0.4305460000000 1.0
C      1  0.4455310000000  0.4553630000000  0.4155970000000 1.0
C      1  0.5042520000000  0.5109700000000  0.4860080000000 1.0
C      1  0.5040250000000  0.5289350000000  0.4339810000000 1.0
C      1  0.4857330000000  0.4806980000000  0.5791380000000 1.0
C      1  0.4510220000000  0.4364360000000  0.5827140000000 1.0
C      1  0.3908020000000  0.4948050000000  0.5260980000000 1.0
END
