TITL C-74079-2735-466 -414.270050408096 125000 -716.031883219267 0 0 119 (C1) n - 1
REM
REM in /home/nfs/bkarasulu/CARBON/AIRSS/Generating-Clusters/LCBOP/Higher-Symm/SD-CG/FIRE-CG
REM
REM
REM
REM
REM
REM ./C.cell (b20cbc046b6831c77cfcea5457e17084)
REM AIRSS Version 0.9.1 bugfix July 2018 build 013d7b7c2542+ Fri, 06 Jul 2018 19:26:36 +0100
REM compiler GCC version 9.2.1 20190827 (Red Hat 9.2.1-1)
REM options -cpp -mtune=generic -march=x86-64 -g -O0 -fpre-include=/usr/include/finclude/math-vector-fortran.h
REM seed 1415393331 -1210983580 -422782412 1361857703 -199703424 -1190257065 -399757130 -472009567 2072946394 -1686646796 -246520967 1257025566 -1683851244 -976925212 1170302053 1063549882 -944126746 983478696 -295742537 -838432231 1569929599 -1154216588 710768102 -260956793 987042513 -1348105730 1267745072 752172571 823572442 1730311290 1185813600 1741833624 1052972290
REM
CELL 1.54180   50.00000   50.00000   50.00000   90.00000   90.00000   90.00000
LATT -1
SFAC C  
C      1  0.4992950000000  0.6108800000000  0.4987040000000 1.0
C      1  0.4952140000000  0.3918500000000  0.4982060000000 1.0
C      1  0.4529590000000  0.5663090000000  0.5053050000000 1.0
C      1  0.5365920000000  0.4219990000000  0.5275740000000 1.0
C      1  0.4843950000000  0.5130860000000  0.5565820000000 1.0
C      1  0.5234520000000  0.4776200000000  0.4325490000000 1.0
C      1  0.5615190000000  0.4326120000000  0.4733760000000 1.0
C      1  0.4409940000000  0.5692310000000  0.5314670000000 1.0
C      1  0.5749510000000  0.5169720000000  0.4805760000000 1.0
C      1  0.4233080000000  0.4920140000000  0.5175370000000 1.0
C      1  0.4998820000000  0.6011350000000  0.4716330000000 1.0
C      1  0.4888070000000  0.3968320000000  0.5254840000000 1.0
C      1  0.5248990000000  0.5049410000000  0.4438350000000 1.0
C      1  0.4980680000000  0.4864450000000  0.5542020000000 1.0
C      1  0.4792720000000  0.4841430000000  0.4696290000000 1.0
C      1  0.5409700000000  0.5171730000000  0.5251680000000 1.0
C      1  0.4870060000000  0.4322810000000  0.5698920000000 1.0
C      1  0.5003010000000  0.5586110000000  0.4361610000000 1.0
C      1  0.5094820000000  0.5619040000000  0.5583060000000 1.0
C      1  0.4895060000000  0.4410550000000  0.4407370000000 1.0
C      1  0.5300050000000  0.5614870000000  0.5097080000000 1.0
C      1  0.4681410000000  0.4360300000000  0.4956140000000 1.0
C      1  0.5898560000000  0.5164030000000  0.5061460000000 1.0
C      1  0.4093290000000  0.4944660000000  0.4926680000000 1.0
C      1  0.5413250000000  0.5363090000000  0.5059640000000 1.0
C      1  0.4561300000000  0.4452410000000  0.5193420000000 1.0
C      1  0.4140050000000  0.4375680000000  0.5071550000000 1.0
C      1  0.5774570000000  0.5734520000000  0.4906660000000 1.0
C      1  0.4599930000000  0.4422220000000  0.4458250000000 1.0
C      1  0.5396710000000  0.5643300000000  0.5572490000000 1.0
C      1  0.4640440000000  0.4703270000000  0.5274680000000 1.0
C      1  0.5482270000000  0.5270250000000  0.4808230000000 1.0
C      1  0.5285250000000  0.5174130000000  0.5502340000000 1.0
C      1  0.4800920000000  0.4888800000000  0.4420140000000 1.0
C      1  0.5408340000000  0.4341020000000  0.4506660000000 1.0
C      1  0.4592590000000  0.5707580000000  0.5542950000000 1.0
C      1  0.4821810000000  0.5267100000000  0.5117140000000 1.0
C      1  0.5300630000000  0.4685750000000  0.4749680000000 1.0
C      1  0.4314860000000  0.4365730000000  0.5305170000000 1.0
C      1  0.5670030000000  0.5739380000000  0.4654760000000 1.0
C      1  0.5038650000000  0.4010570000000  0.4727420000000 1.0
C      1  0.4885750000000  0.5942610000000  0.5209700000000 1.0
C      1  0.5763590000000  0.4434170000000  0.4949250000000 1.0
C      1  0.4156970000000  0.5536390000000  0.5306060000000 1.0
C      1  0.4363650000000  0.5092250000000  0.4377240000000 1.0
C      1  0.5909630000000  0.5065180000000  0.5652970000000 1.0
C      1  0.5211620000000  0.4325400000000  0.5081690000000 1.0
C      1  0.4800630000000  0.5716980000000  0.5041610000000 1.0
C      1  0.5618850000000  0.5211040000000  0.4165850000000 1.0
C      1  0.4329100000000  0.4815510000000  0.5862480000000 1.0
C      1  0.5983740000000  0.4886860000000  0.5109660000000 1.0
C      1  0.3977600000000  0.5207340000000  0.4922350000000 1.0
C      1  0.4115690000000  0.5431970000000  0.5032420000000 1.0
C      1  0.5857200000000  0.4623910000000  0.5161040000000 1.0
C      1  0.4445730000000  0.4623540000000  0.4295510000000 1.0
C      1  0.5564560000000  0.5423610000000  0.5717560000000 1.0
C      1  0.4294780000000  0.5093700000000  0.5868680000000 1.0
C      1  0.5702180000000  0.4945990000000  0.4115730000000 1.0
C      1  0.5484070000000  0.5719420000000  0.5302800000000 1.0
C      1  0.4503250000000  0.4381340000000  0.4729070000000 1.0
C      1  0.5759550000000  0.4927040000000  0.4663820000000 1.0
C      1  0.4486850000000  0.4941610000000  0.5288600000000 1.0
C      1  0.5553790000000  0.4757510000000  0.4696200000000 1.0
C      1  0.4665240000000  0.5165820000000  0.5339740000000 1.0
C      1  0.4970200000000  0.4681220000000  0.4313680000000 1.0
C      1  0.5052230000000  0.5330930000000  0.5584640000000 1.0
C      1  0.4330190000000  0.4409800000000  0.5590230000000 1.0
C      1  0.5563070000000  0.5630810000000  0.4413240000000 1.0
C      1  0.4542370000000  0.4740190000000  0.4041240000000 1.0
C      1  0.5432150000000  0.5217390000000  0.5919180000000 1.0
C      1  0.4096280000000  0.5408640000000  0.5550730000000 1.0
C      1  0.5853620000000  0.4485280000000  0.4058780000000 1.0
C      1  0.4287160000000  0.4820550000000  0.4455050000000 1.0
C      1  0.5798120000000  0.5311800000000  0.5558170000000 1.0
C      1  0.5736610000000  0.4644640000000  0.5434320000000 1.0
C      1  0.4373780000000  0.5481350000000  0.4901270000000 1.0
C      1  0.4171610000000  0.4622440000000  0.5714680000000 1.0
C      1  0.5740850000000  0.5460710000000  0.4247570000000 1.0
C      1  0.5890510000000  0.4796220000000  0.5622230000000 1.0
C      1  0.4181510000000  0.5283020000000  0.4305700000000 1.0
C      1  0.4600060000000  0.4431600000000  0.5736070000000 1.0
C      1  0.5286090000000  0.5526290000000  0.4344530000000 1.0
C      1  0.4685310000000  0.5950020000000  0.4353630000000 1.0
C      1  0.5257850000000  0.4110820000000  0.5499180000000 1.0
C      1  0.5088410000000  0.4753350000000  0.5987980000000 1.0
C      1  0.4792140000000  0.5225540000000  0.3942950000000 1.0
C      1  0.4604380000000  0.5010870000000  0.4815830000000 1.0
C      1  0.5475360000000  0.4906280000000  0.5183780000000 1.0
C      1  0.5033150000000  0.4734040000000  0.4818240000000 1.0
C      1  0.5030960000000  0.5144530000000  0.4961930000000 1.0
C      1  0.5226060000000  0.5158620000000  0.4715130000000 1.0
C      1  0.4911390000000  0.4755210000000  0.5293610000000 1.0
C      1  0.5345420000000  0.5248010000000  0.4260650000000 1.0
C      1  0.4583430000000  0.4681150000000  0.5908180000000 1.0
C      1  0.5263440000000  0.4885900000000  0.5569710000000 1.0
C      1  0.4653640000000  0.5129900000000  0.4357250000000 1.0
C      1  0.4663150000000  0.4960830000000  0.3924490000000 1.0
C      1  0.5283890000000  0.4986850000000  0.5998690000000 1.0
C      1  0.4895180000000  0.5355940000000  0.3726130000000 1.0
C      1  0.4806130000000  0.4796290000000  0.6042460000000 1.0
C      1  0.4908240000000  0.5843100000000  0.4483930000000 1.0
C      1  0.4968050000000  0.4112500000000  0.5510710000000 1.0
C      1  0.5054050000000  0.5625900000000  0.4961600000000 1.0
C      1  0.4961650000000  0.4351120000000  0.4982990000000 1.0
C      1  0.4288020000000  0.5351770000000  0.5755540000000 1.0
C      1  0.5671810000000  0.4663340000000  0.4158620000000 1.0
C      1  0.4873400000000  0.5801800000000  0.5484360000000 1.0
C      1  0.5113310000000  0.4231330000000  0.4532090000000 1.0
C      1  0.4501820000000  0.5544950000000  0.5761570000000 1.0
C      1  0.5442870000000  0.4574310000000  0.4310010000000 1.0
C      1  0.4234880000000  0.4479750000000  0.4812620000000 1.0
C      1  0.5750420000000  0.5648310000000  0.5182770000000 1.0
C      1  0.4800510000000  0.5337200000000  0.4217000000000 1.0
C      1  0.5079730000000  0.4485600000000  0.5848210000000 1.0
C      1  0.5853870000000  0.5382690000000  0.5271620000000 1.0
C      1  0.4168840000000  0.4750520000000  0.4716960000000 1.0
C      1  0.4497120000000  0.5255550000000  0.4796060000000 1.0
C      1  0.5464110000000  0.4736700000000  0.5419730000000 1.0
C      1  0.5028920000000  0.4868420000000  0.5065370000000 1.0
END
