TITL C-74082-2733-359 -1.59128260994229e-07 125000 -248.739244195444 0 0 41 (Td) n - 1
REM
REM in /home/nfs/bkarasulu/CARBON/AIRSS/Generating-Clusters/LCBOP/Higher-Symm/SD-CG/FIRE-CG
REM
REM
REM
REM
REM
REM ./C.cell (b20cbc046b6831c77cfcea5457e17084)
REM AIRSS Version 0.9.1 bugfix July 2018 build 013d7b7c2542+ Fri, 06 Jul 2018 19:26:36 +0100
REM compiler GCC version 9.2.1 20190827 (Red Hat 9.2.1-1)
REM options -cpp -mtune=generic -march=x86-64 -g -O0 -fpre-include=/usr/include/finclude/math-vector-fortran.h
REM seed -264672220 -406175496 867244639 1255366316 474083130 1052286315 -1127059102 -110395461 -50195707 -1409534111 -1394535119 -27397762 -303511178 806733031 1371626262 -748998364 -1009121895 740121092 2076447070 -1102709358 -710340188 1564284585 332551692 210499839 -1375858917 1021314968 -970577385 526982497 -1762351087 -1159821140 -477454087 75251652 -1516451002
REM
CELL 1.54180   50.00000   50.00000   50.00000   90.00000   90.00000   90.00000
LATT -1
SFAC C  
C      1  0.5111370000000  0.5309870000000  0.4484680000000 1.0
C      1  0.5318200000000  0.4479030000000  0.5108670000000 1.0
C      1  0.4487380000000  0.5103040000000  0.5315520000000 1.0
C      1  0.5111380000000  0.4692360000000  0.5528840000000 1.0
C      1  0.4907560000000  0.5309870000000  0.5528850000000 1.0
C      1  0.4907530000000  0.4692370000000  0.4484670000000 1.0
C      1  0.5318220000000  0.5523200000000  0.4904840000000 1.0
C      1  0.4700700000000  0.4479040000000  0.4904850000000 1.0
C      1  0.4700720000000  0.5523210000000  0.5108690000000 1.0
C      1  0.4487370000000  0.4899210000000  0.4698020000000 1.0
C      1  0.5531540000000  0.5103030000000  0.4698000000000 1.0
C      1  0.5531550000000  0.4899190000000  0.5315500000000 1.0
C      1  0.5111370000000  0.4479030000000  0.5315510000000 1.0
C      1  0.5318210000000  0.5103030000000  0.4484670000000 1.0
C      1  0.4487380000000  0.5309880000000  0.5108690000000 1.0
C      1  0.5111380000000  0.5523200000000  0.4698010000000 1.0
C      1  0.4907560000000  0.5523200000000  0.5315520000000 1.0
C      1  0.4907530000000  0.4479040000000  0.4698010000000 1.0
C      1  0.5318220000000  0.4899190000000  0.5528840000000 1.0
C      1  0.4700700000000  0.4899210000000  0.4484680000000 1.0
C      1  0.4700720000000  0.5103030000000  0.5528850000000 1.0
C      1  0.4487370000000  0.4692370000000  0.4904850000000 1.0
C      1  0.5531540000000  0.4692350000000  0.5108660000000 1.0
C      1  0.5531550000000  0.5309860000000  0.4904840000000 1.0
C      1  0.4854210000000  0.5493890000000  0.4851520000000 1.0
C      1  0.5164700000000  0.4508350000000  0.4851500000000 1.0
C      1  0.5502220000000  0.4845860000000  0.4851500000000 1.0
C      1  0.4854210000000  0.4845870000000  0.5499530000000 1.0
C      1  0.4854200000000  0.4508350000000  0.5162010000000 1.0
C      1  0.5164720000000  0.5493880000000  0.5162010000000 1.0
C      1  0.5502230000000  0.5156360000000  0.5162000000000 1.0
C      1  0.4516690000000  0.4845870000000  0.5162020000000 1.0
C      1  0.4516690000000  0.5156380000000  0.4851520000000 1.0
C      1  0.4854200000000  0.5156380000000  0.4514000000000 1.0
C      1  0.5164700000000  0.4845870000000  0.4513990000000 1.0
C      1  0.5164720000000  0.5156360000000  0.5499530000000 1.0
C      1  0.5197340000000  0.5188980000000  0.5194630000000 1.0
C      1  0.5197320000000  0.4813240000000  0.4818880000000 1.0
C      1  0.4821590000000  0.5188990000000  0.4818890000000 1.0
C      1  0.4821590000000  0.4813250000000  0.5194630000000 1.0
C      1  0.5009460000000  0.5001120000000  0.5006760000000 1.0
END
