TITL C-74082-2733-76 1.61499178776763e-05 125000 -901.198606196438 0 0 150 (D5) n - 1
REM
REM in /home/nfs/bkarasulu/CARBON/AIRSS/Generating-Clusters/LCBOP/Higher-Symm/SD-CG/FIRE-CG
REM
REM
REM
REM
REM
REM ./C.cell (b20cbc046b6831c77cfcea5457e17084)
REM AIRSS Version 0.9.1 bugfix July 2018 build 013d7b7c2542+ Fri, 06 Jul 2018 19:26:36 +0100
REM compiler GCC version 9.2.1 20190827 (Red Hat 9.2.1-1)
REM options -cpp -mtune=generic -march=x86-64 -g -O0 -fpre-include=/usr/include/finclude/math-vector-fortran.h
REM seed -869852959 711497333 1159397604 240837632 984962679 707959215 63895257 -1158054958 1087976352 -680274075 -481244864 -830080246 1221711042 1335128091 -1373082663 329823067 229584036 -1924145756 -2078723562 111129996 409179286 1029634695 -426190162 -25532939 -1025401714 -415397108 -805360012 -2141537208 297748519 402772566 -447915339 1711665645 2011884319
REM
CELL 1.54180   50.00000   50.00000   50.00000   90.00000   90.00000   90.00000
LATT -1
SFAC C  
C      1  0.4405350000000  0.5006030000000  0.5215940000000 1.0
C      1  0.4810660000000  0.4433100000000  0.5217760000000 1.0
C      1  0.5479280000000  0.4644880000000  0.5217100000000 1.0
C      1  0.5485620000000  0.5346540000000  0.5216670000000 1.0
C      1  0.4820870000000  0.5570740000000  0.5219140000000 1.0
C      1  0.5597660000000  0.5004900000000  0.4782260000000 1.0
C      1  0.5189660000000  0.4434430000000  0.4782930000000 1.0
C      1  0.4520370000000  0.4645200000000  0.4783330000000 1.0
C      1  0.4512540000000  0.5346700000000  0.4780830000000 1.0
C      1  0.5178010000000  0.5567410000000  0.4784040000000 1.0
C      1  0.4996420000000  0.6042580000000  0.4431350000000 1.0
C      1  0.4006650000000  0.5318790000000  0.4430390000000 1.0
C      1  0.4390040000000  0.4154050000000  0.4431280000000 1.0
C      1  0.5615630000000  0.4158230000000  0.4430870000000 1.0
C      1  0.5990680000000  0.5326130000000  0.4431200000000 1.0
C      1  0.5003720000000  0.6043270000000  0.5569560000000 1.0
C      1  0.5993000000000  0.5318760000000  0.5568740000000 1.0
C      1  0.5610340000000  0.4154430000000  0.5569190000000 1.0
C      1  0.4383700000000  0.4158590000000  0.5568820000000 1.0
C      1  0.4009520000000  0.5325570000000  0.5568600000000 1.0
C      1  0.5254520000000  0.6046460000000  0.4843600000000 1.0
C      1  0.4080450000000  0.5566200000000  0.4842860000000 1.0
C      1  0.4177830000000  0.4301960000000  0.4843270000000 1.0
C      1  0.5410080000000  0.4002570000000  0.4843500000000 1.0
C      1  0.6076380000000  0.5081780000000  0.4843070000000 1.0
C      1  0.4745620000000  0.6049510000000  0.5157080000000 1.0
C      1  0.5917910000000  0.5566260000000  0.5156740000000 1.0
C      1  0.5821910000000  0.4301810000000  0.5156560000000 1.0
C      1  0.4589640000000  0.4001570000000  0.5156970000000 1.0
C      1  0.3926100000000  0.5081270000000  0.5156360000000 1.0
C      1  0.5725850000000  0.5427510000000  0.4458540000000 1.0
C      1  0.4817520000000  0.5822380000000  0.4458430000000 1.0
C      1  0.4161480000000  0.5081160000000  0.4457440000000 1.0
C      1  0.4664050000000  0.4227350000000  0.4458510000000 1.0
C      1  0.5630750000000  0.4441500000000  0.4457800000000 1.0
C      1  0.4274220000000  0.5427680000000  0.5541520000000 1.0
C      1  0.5181880000000  0.5822590000000  0.5542530000000 1.0
C      1  0.5838630000000  0.5080800000000  0.5541510000000 1.0
C      1  0.5336260000000  0.4227570000000  0.5542250000000 1.0
C      1  0.4369120000000  0.4441780000000  0.5541470000000 1.0
C      1  0.4791230000000  0.4366280000000  0.4221850000000 1.0
C      1  0.5538180000000  0.4605370000000  0.4221000000000 1.0
C      1  0.5540950000000  0.5389860000000  0.4222450000000 1.0
C      1  0.4796260000000  0.5635760000000  0.4221120000000 1.0
C      1  0.4332880000000  0.5002790000000  0.4221060000000 1.0
C      1  0.5209000000000  0.4366250000000  0.5779030000000 1.0
C      1  0.4462040000000  0.4606010000000  0.5777550000000 1.0
C      1  0.4458270000000  0.5390240000000  0.5778840000000 1.0
C      1  0.5203450000000  0.5635380000000  0.5778910000000 1.0
C      1  0.5667190000000  0.5002780000000  0.5778170000000 1.0
C      1  0.4965080000000  0.5346920000000  0.5124180000000 1.0
C      1  0.4663010000000  0.5076400000000  0.5121290000000 1.0
C      1  0.4824060000000  0.4697980000000  0.5122380000000 1.0
C      1  0.5230260000000  0.4740490000000  0.5122590000000 1.0
C      1  0.5319540000000  0.5139330000000  0.5121480000000 1.0
C      1  0.5031470000000  0.5344100000000  0.4878700000000 1.0
C      1  0.5341600000000  0.5074010000000  0.4877630000000 1.0
C      1  0.5175670000000  0.4700820000000  0.4877430000000 1.0
C      1  0.4768760000000  0.4739140000000  0.4878520000000 1.0
C      1  0.4680850000000  0.5140390000000  0.4875800000000 1.0
C      1  0.4519410000000  0.5199680000000  0.4083190000000 1.0
C      1  0.4661820000000  0.4604890000000  0.4084830000000 1.0
C      1  0.5271150000000  0.4556090000000  0.4084420000000 1.0
C      1  0.5505800000000  0.5121010000000  0.4084500000000 1.0
C      1  0.5041460000000  0.5518470000000  0.4085240000000 1.0
C      1  0.5480240000000  0.5199590000000  0.5915180000000 1.0
C      1  0.5338380000000  0.4605000000000  0.5915610000000 1.0
C      1  0.4728600000000  0.4556380000000  0.5915520000000 1.0
C      1  0.4494060000000  0.5120810000000  0.5914730000000 1.0
C      1  0.4958550000000  0.5518810000000  0.5916790000000 1.0
C      1  0.5137250000000  0.4783880000000  0.3954170000000 1.0
C      1  0.5247910000000  0.5063900000000  0.3954170000000 1.0
C      1  0.5016050000000  0.5255710000000  0.3954250000000 1.0
C      1  0.4761930000000  0.5094130000000  0.3953590000000 1.0
C      1  0.4836870000000  0.4802600000000  0.3954100000000 1.0
C      1  0.4862590000000  0.4784010000000  0.6045840000000 1.0
C      1  0.4751810000000  0.5063800000000  0.6045730000000 1.0
C      1  0.4984000000000  0.5255550000000  0.6046400000000 1.0
C      1  0.5238110000000  0.5094210000000  0.6045900000000 1.0
C      1  0.5163100000000  0.4802740000000  0.6045850000000 1.0
C      1  0.4332490000000  0.4503650000000  0.4979730000000 1.0
C      1  0.5266130000000  0.4212210000000  0.4979950000000 1.0
C      1  0.5832560000000  0.5009210000000  0.4979210000000 1.0
C      1  0.5247320000000  0.5792530000000  0.4980520000000 1.0
C      1  0.4320670000000  0.5481430000000  0.4978610000000 1.0
C      1  0.5667010000000  0.4503480000000  0.5020100000000 1.0
C      1  0.4734000000000  0.4211020000000  0.5020820000000 1.0
C      1  0.4169830000000  0.5009660000000  0.5019450000000 1.0
C      1  0.4752030000000  0.5794850000000  0.5021340000000 1.0
C      1  0.5678310000000  0.5481480000000  0.5020270000000 1.0
C      1  0.3858310000000  0.5192340000000  0.5390900000000 1.0
C      1  0.4462790000000  0.3972780000000  0.5391580000000 1.0
C      1  0.5810950000000  0.4172520000000  0.5391350000000 1.0
C      1  0.6037700000000  0.5515510000000  0.5391310000000 1.0
C      1  0.4831010000000  0.6147260000000  0.5391890000000 1.0
C      1  0.6142960000000  0.5193520000000  0.4608450000000 1.0
C      1  0.5536440000000  0.3973030000000  0.4608710000000 1.0
C      1  0.4189100000000  0.4172340000000  0.4608700000000 1.0
C      1  0.3961110000000  0.5515180000000  0.4608050000000 1.0
C      1  0.5169840000000  0.6145240000000  0.4609050000000 1.0
C      1  0.6023290000000  0.4579090000000  0.4694740000000 1.0
C      1  0.5715970000000  0.5843560000000  0.4695000000000 1.0
C      1  0.4419090000000  0.5941860000000  0.4695500000000 1.0
C      1  0.3925230000000  0.4739160000000  0.4694730000000 1.0
C      1  0.4916430000000  0.3896330000000  0.4695010000000 1.0
C      1  0.3976490000000  0.4579720000000  0.5304990000000 1.0
C      1  0.4283710000000  0.5843520000000  0.5304440000000 1.0
C      1  0.5580150000000  0.5941600000000  0.5305240000000 1.0
C      1  0.6075480000000  0.4738480000000  0.5305030000000 1.0
C      1  0.5084130000000  0.3896740000000  0.5305310000000 1.0
C      1  0.5208800000000  0.4875200000000  0.5529340000000 1.0
C      1  0.5183250000000  0.5159730000000  0.5529240000000 1.0
C      1  0.4904760000000  0.5224080000000  0.5531570000000 1.0
C      1  0.4758790000000  0.4978580000000  0.5528950000000 1.0
C      1  0.4946180000000  0.4762880000000  0.5529780000000 1.0
C      1  0.4791480000000  0.4875050000000  0.4470760000000 1.0
C      1  0.4816330000000  0.5159790000000  0.4468420000000 1.0
C      1  0.5094920000000  0.5222770000000  0.4471050000000 1.0
C      1  0.5242160000000  0.4977900000000  0.4470230000000 1.0
C      1  0.5054190000000  0.4762830000000  0.4470670000000 1.0
C      1  0.4439440000000  0.4729050000000  0.4238820000000 1.0
C      1  0.5084520000000  0.4382920000000  0.4238660000000 1.0
C      1  0.5613080000000  0.4889480000000  0.4237740000000 1.0
C      1  0.5293740000000  0.5548390000000  0.4240270000000 1.0
C      1  0.4568430000000  0.5450130000000  0.4236650000000 1.0
C      1  0.5560740000000  0.4728980000000  0.5761380000000 1.0
C      1  0.4915660000000  0.4382800000000  0.5762280000000 1.0
C      1  0.4387660000000  0.4890110000000  0.5759720000000 1.0
C      1  0.4705220000000  0.5549570000000  0.5763320000000 1.0
C      1  0.5430870000000  0.5449450000000  0.5761180000000 1.0
C      1  0.5682760000000  0.5565280000000  0.4723740000000 1.0
C      1  0.4673550000000  0.5824280000000  0.4724170000000 1.0
C      1  0.4116030000000  0.4944530000000  0.4722880000000 1.0
C      1  0.4779700000000  0.4140980000000  0.4723920000000 1.0
C      1  0.5748260000000  0.4524960000000  0.4723270000000 1.0
C      1  0.4316910000000  0.5565170000000  0.5275780000000 1.0
C      1  0.5325870000000  0.5823590000000  0.5277090000000 1.0
C      1  0.5885040000000  0.4944110000000  0.5276120000000 1.0
C      1  0.5220590000000  0.4141580000000  0.5276770000000 1.0
C      1  0.4251410000000  0.4525320000000  0.5276260000000 1.0
C      1  0.4792640000000  0.5494470000000  0.5494140000000 1.0
C      1  0.4468400000000  0.4955680000000  0.5490380000000 1.0
C      1  0.4878060000000  0.4478380000000  0.5492810000000 1.0
C      1  0.5457680000000  0.4722700000000  0.5491970000000 1.0
C      1  0.5404830000000  0.5349720000000  0.5491580000000 1.0
C      1  0.5206430000000  0.5491870000000  0.4509600000000 1.0
C      1  0.5533790000000  0.4954780000000  0.4507210000000 1.0
C      1  0.5122330000000  0.4479010000000  0.4508060000000 1.0
C      1  0.4542320000000  0.4723010000000  0.4508420000000 1.0
C      1  0.4593820000000  0.5349980000000  0.4505830000000 1.0
END
