TITL C-74079-2735-357 18204.7445734755 125000 -319.159881856116 0 0 58 (C5) n - 1
REM
REM in /home/nfs/bkarasulu/CARBON/AIRSS/Generating-Clusters/LCBOP/Higher-Symm/SD-CG/FIRE-CG
REM
REM
REM
REM
REM
REM ./C.cell (b20cbc046b6831c77cfcea5457e17084)
REM AIRSS Version 0.9.1 bugfix July 2018 build 013d7b7c2542+ Fri, 06 Jul 2018 19:26:36 +0100
REM compiler GCC version 9.2.1 20190827 (Red Hat 9.2.1-1)
REM options -cpp -mtune=generic -march=x86-64 -g -O0 -fpre-include=/usr/include/finclude/math-vector-fortran.h
REM seed -1665001362 -1618034801 -1458743052 1945866249 -1446745432 1799808480 1760284728 -427226405 -1727357340 -985527407 -945553127 1776261238 1618181540 140456140 -679204711 -737106603 893263254 -1610720521 941589349 407264778 -1439069426 -47035802 559462682 -1983381103 538663559 195871912 -2003246169 437802657 1136410027 -1985045064 -473329314 -1768830063 -622763366
REM
CELL 1.54180   50.00000   50.00000   50.00000   90.00000   90.00000   90.00000
LATT -1
SFAC C  
C      1  0.5567550000000  0.5072130000000  0.4424120000000 1.0
C      1  0.5719890000000  0.5072150000000  0.5351150000000 1.0
C      1  0.4885300000000  0.5072180000000  0.5782480000000 1.0
C      1  0.4217180000000  0.5072180000000  0.5122030000000 1.0
C      1  0.4638830000000  0.5072160000000  0.4282520000000 1.0
C      1  0.4443930000000  0.4926140000000  0.4424130000000 1.0
C      1  0.4291630000000  0.4926160000000  0.5351150000000 1.0
C      1  0.5126220000000  0.4926160000000  0.5782480000000 1.0
C      1  0.5794320000000  0.4926130000000  0.5122020000000 1.0
C      1  0.5372640000000  0.4926120000000  0.4282520000000 1.0
C      1  0.5075650000000  0.4365000000000  0.5403600000000 1.0
C      1  0.4636400000000  0.4365000000000  0.5185980000000 1.0
C      1  0.4707540000000  0.4364990000000  0.4700970000000 1.0
C      1  0.5190810000000  0.4364970000000  0.4618830000000 1.0
C      1  0.5418310000000  0.4364980000000  0.5053050000000 1.0
C      1  0.4935890000000  0.5633340000000  0.5403560000000 1.0
C      1  0.5375190000000  0.5633330000000  0.5185970000000 1.0
C      1  0.5303940000000  0.5633320000000  0.4700940000000 1.0
C      1  0.4820650000000  0.5633330000000  0.4618750000000 1.0
C      1  0.4593190000000  0.5633350000000  0.5053020000000 1.0
C      1  0.5388400000000  0.4469990000000  0.4791580000000 1.0
C      1  0.5315090000000  0.4470000000000  0.5294350000000 1.0
C      1  0.4814260000000  0.4470020000000  0.5379950000000 1.0
C      1  0.4578070000000  0.4470020000000  0.4930090000000 1.0
C      1  0.4932900000000  0.4470000000000  0.4566440000000 1.0
C      1  0.4623040000000  0.5528340000000  0.4791520000000 1.0
C      1  0.4696430000000  0.5528350000000  0.5294340000000 1.0
C      1  0.5197310000000  0.5528340000000  0.5379960000000 1.0
C      1  0.5433490000000  0.5528320000000  0.4930050000000 1.0
C      1  0.5078580000000  0.5528320000000  0.4566380000000 1.0
C      1  0.5485470000000  0.5126310000000  0.5525600000000 1.0
C      1  0.4646960000000  0.5126330000000  0.5613430000000 1.0
C      1  0.4304300000000  0.5126310000000  0.4843110000000 1.0
C      1  0.4931020000000  0.5126290000000  0.4279190000000 1.0
C      1  0.5661020000000  0.5126280000000  0.4700970000000 1.0
C      1  0.4526080000000  0.4872020000000  0.5525570000000 1.0
C      1  0.5364550000000  0.4872000000000  0.5613420000000 1.0
C      1  0.5707170000000  0.4871970000000  0.4843110000000 1.0
C      1  0.5080450000000  0.4871980000000  0.4279210000000 1.0
C      1  0.4350500000000  0.4872000000000  0.4701010000000 1.0
C      1  0.5365270000000  0.4741060000000  0.5351560000000 1.0
C      1  0.4775340000000  0.4741070000000  0.5445340000000 1.0
C      1  0.4503840000000  0.4741070000000  0.4913280000000 1.0
C      1  0.4925950000000  0.4741040000000  0.4490640000000 1.0
C      1  0.5458340000000  0.4741040000000  0.4761520000000 1.0
C      1  0.4646210000000  0.5257310000000  0.5351600000000 1.0
C      1  0.5236230000000  0.5257290000000  0.5445400000000 1.0
C      1  0.5507750000000  0.5257270000000  0.4913240000000 1.0
C      1  0.5085540000000  0.5257270000000  0.4490560000000 1.0
C      1  0.4553070000000  0.5257290000000  0.4761480000000 1.0
C      1  0.5356820000000  0.4999140000000  0.5106530000000 1.0
C      1  0.4654700000000  0.4999170000000  0.5106540000000 1.0
C      1  0.5222710000000  0.4999130000000  0.4693830000000 1.0
C      1  0.4788760000000  0.4999150000000  0.4693820000000 1.0
C      1  0.5005770000000  0.4999160000000  0.5361600000000 1.0
C      1  0.5005760000000  0.5305490000000  0.4992460000000 1.0
C      1  0.5005760000000  0.4693550000000  0.4992470000000 1.0
C      1  0.5005770000000  0.5000060000000  0.4992480000000 1.0
END
