TITL C-74085-4933-42 16761.8140535502 125000 -913.989167784168 0 0 154 (C1) n - 1
REM
REM in /home/nfs/bkarasulu/CARBON/AIRSS/Generating-Clusters/LCBOP/Higher-Symm/SD-CG/FIRE-CG
REM
REM
REM
REM
REM
REM ./C.cell (b20cbc046b6831c77cfcea5457e17084)
REM AIRSS Version 0.9.1 bugfix July 2018 build 013d7b7c2542+ Fri, 06 Jul 2018 19:26:36 +0100
REM compiler GCC version 9.2.1 20190827 (Red Hat 9.2.1-1)
REM options -cpp -mtune=generic -march=x86-64 -g -O0 -fpre-include=/usr/include/finclude/math-vector-fortran.h
REM seed 545674355 1614171147 -782673064 923411987 -196932421 2014142443 -1085956867 790472450 -379841403 -954487257 -537602420 1463162743 -400735826 -328367078 -1478252394 -872222553 205233840 1424907523 -1208452058 409072941 -2091077677 -112403541 -1714140419 1771774180 -2074901911 900196858 -1056937817 -1641561215 -197572284 999962097 -694818786 2057339372 758437961
REM
CELL 1.54180   50.00000   50.00000   50.00000   90.00000   90.00000   90.00000
LATT -1
SFAC C  
C      1  0.4496530000000  0.4164780000000  0.4868870000000 1.0
C      1  0.4503710000000  0.5802710000000  0.5197190000000 1.0
C      1  0.5487550000000  0.4193830000000  0.4841190000000 1.0
C      1  0.5492560000000  0.5795420000000  0.5170580000000 1.0
C      1  0.4502040000000  0.4196590000000  0.5193490000000 1.0
C      1  0.4499290000000  0.5834410000000  0.4874660000000 1.0
C      1  0.5492730000000  0.4208300000000  0.5165890000000 1.0
C      1  0.5488620000000  0.5806780000000  0.4844750000000 1.0
C      1  0.5733360000000  0.5566880000000  0.5583910000000 1.0
C      1  0.5739480000000  0.4427280000000  0.4413090000000 1.0
C      1  0.4260190000000  0.5566470000000  0.5598810000000 1.0
C      1  0.4290320000000  0.4426160000000  0.4437240000000 1.0
C      1  0.5747910000000  0.5555090000000  0.4422180000000 1.0
C      1  0.5735750000000  0.4439510000000  0.5573580000000 1.0
C      1  0.4284810000000  0.5565340000000  0.4446310000000 1.0
C      1  0.4253150000000  0.4450320000000  0.5590850000000 1.0
C      1  0.4874580000000  0.4773480000000  0.4298360000000 1.0
C      1  0.4893760000000  0.5142750000000  0.5678930000000 1.0
C      1  0.5142890000000  0.4860130000000  0.4297530000000 1.0
C      1  0.5166670000000  0.5215290000000  0.5651390000000 1.0
C      1  0.4893230000000  0.4861080000000  0.5678000000000 1.0
C      1  0.4876430000000  0.5227430000000  0.4299050000000 1.0
C      1  0.5165290000000  0.4786190000000  0.5649960000000 1.0
C      1  0.5143910000000  0.5138230000000  0.4298320000000 1.0
C      1  0.5160730000000  0.4800460000000  0.3844140000000 1.0
C      1  0.5146740000000  0.5154530000000  0.6115970000000 1.0
C      1  0.4866550000000  0.4841870000000  0.3846200000000 1.0
C      1  0.4860660000000  0.5201120000000  0.6132090000000 1.0
C      1  0.5146260000000  0.4845270000000  0.6114830000000 1.0
C      1  0.5161580000000  0.5199870000000  0.3845230000000 1.0
C      1  0.4859870000000  0.4799680000000  0.6130590000000 1.0
C      1  0.4866880000000  0.5159290000000  0.3846940000000 1.0
C      1  0.4872400000000  0.6171810000000  0.5336260000000 1.0
C      1  0.4858180000000  0.3799830000000  0.4731890000000 1.0
C      1  0.5143420000000  0.6174090000000  0.5323300000000 1.0
C      1  0.5129930000000  0.3809630000000  0.4722720000000 1.0
C      1  0.4858000000000  0.6199200000000  0.4735040000000 1.0
C      1  0.4874280000000  0.3829700000000  0.5331600000000 1.0
C      1  0.5129840000000  0.6189530000000  0.4725030000000 1.0
C      1  0.5145590000000  0.3828680000000  0.5319440000000 1.0
C      1  0.4648540000000  0.4672090000000  0.5186920000000 1.0
C      1  0.4639520000000  0.5390940000000  0.4892600000000 1.0
C      1  0.5306650000000  0.4671910000000  0.5223270000000 1.0
C      1  0.5376050000000  0.5364520000000  0.4713800000000 1.0
C      1  0.4636890000000  0.4609280000000  0.4890320000000 1.0
C      1  0.4651350000000  0.5327360000000  0.5189270000000 1.0
C      1  0.5373900000000  0.4634950000000  0.4711620000000 1.0
C      1  0.5307930000000  0.5329670000000  0.5224370000000 1.0
C      1  0.5741960000000  0.5624470000000  0.4704630000000 1.0
C      1  0.5732170000000  0.4374700000000  0.5288770000000 1.0
C      1  0.4260160000000  0.5638750000000  0.4728180000000 1.0
C      1  0.4247400000000  0.4373080000000  0.5313000000000 1.0
C      1  0.5731910000000  0.5636090000000  0.5300150000000 1.0
C      1  0.5736160000000  0.4368970000000  0.4699230000000 1.0
C      1  0.4252390000000  0.5631080000000  0.5316840000000 1.0
C      1  0.4266440000000  0.4346850000000  0.4720360000000 1.0
C      1  0.5380060000000  0.6081700000000  0.4753780000000 1.0
C      1  0.5392930000000  0.3934850000000  0.5271540000000 1.0
C      1  0.4604220000000  0.6105140000000  0.4781680000000 1.0
C      1  0.4622890000000  0.3932580000000  0.5303470000000 1.0
C      1  0.5390340000000  0.6068030000000  0.5275020000000 1.0
C      1  0.5379540000000  0.3918330000000  0.4751900000000 1.0
C      1  0.4622410000000  0.6066220000000  0.5308330000000 1.0
C      1  0.4604390000000  0.3893660000000  0.4777380000000 1.0
C      1  0.4779770000000  0.4771620000000  0.4733430000000 1.0
C      1  0.4882060000000  0.5142160000000  0.5228150000000 1.0
C      1  0.5029000000000  0.4860170000000  0.4818880000000 1.0
C      1  0.5102530000000  0.5232580000000  0.5068470000000 1.0
C      1  0.4879890000000  0.4856770000000  0.5227330000000 1.0
C      1  0.4781920000000  0.5229500000000  0.4734330000000 1.0
C      1  0.5099950000000  0.4765810000000  0.5067500000000 1.0
C      1  0.5030520000000  0.5139230000000  0.4819460000000 1.0
C      1  0.4256970000000  0.4686010000000  0.4306320000000 1.0
C      1  0.4227460000000  0.5307330000000  0.5717350000000 1.0
C      1  0.5781880000000  0.4684310000000  0.4283040000000 1.0
C      1  0.5776530000000  0.5306970000000  0.5705820000000 1.0
C      1  0.4223950000000  0.4706960000000  0.5716310000000 1.0
C      1  0.4256010000000  0.5307230000000  0.4312720000000 1.0
C      1  0.5775630000000  0.4697850000000  0.5698360000000 1.0
C      1  0.5786430000000  0.5300770000000  0.4285160000000 1.0
C      1  0.4715940000000  0.5325410000000  0.4068920000000 1.0
C      1  0.4709680000000  0.4725500000000  0.5879190000000 1.0
C      1  0.5311290000000  0.5287390000000  0.4099720000000 1.0
C      1  0.5308500000000  0.4692570000000  0.5896660000000 1.0
C      1  0.4711410000000  0.5278680000000  0.5881360000000 1.0
C      1  0.4715680000000  0.4675240000000  0.4067330000000 1.0
C      1  0.5308940000000  0.5308070000000  0.5898760000000 1.0
C      1  0.5308850000000  0.4710190000000  0.4098170000000 1.0
C      1  0.4033570000000  0.4787010000000  0.4724750000000 1.0
C      1  0.3990050000000  0.5182720000000  0.5298980000000 1.0
C      1  0.5967990000000  0.4820390000000  0.4716910000000 1.0
C      1  0.5985370000000  0.5211950000000  0.5283160000000 1.0
C      1  0.3976750000000  0.4810320000000  0.5256550000000 1.0
C      1  0.4038450000000  0.5194560000000  0.4734110000000 1.0
C      1  0.5976520000000  0.4806160000000  0.5272640000000 1.0
C      1  0.5975460000000  0.5181050000000  0.4757720000000 1.0
C      1  0.5882720000000  0.5440020000000  0.5146030000000 1.0
C      1  0.5876440000000  0.4581580000000  0.4850980000000 1.0
C      1  0.4091800000000  0.5428560000000  0.5162880000000 1.0
C      1  0.4109200000000  0.4549610000000  0.4867280000000 1.0
C      1  0.5880850000000  0.5425800000000  0.4865610000000 1.0
C      1  0.5876840000000  0.4577510000000  0.5132910000000 1.0
C      1  0.4111190000000  0.5433180000000  0.4878060000000 1.0
C      1  0.4086730000000  0.4562680000000  0.5149690000000 1.0
C      1  0.5255580000000  0.4381390000000  0.5262990000000 1.0
C      1  0.5241060000000  0.5629590000000  0.4745780000000 1.0
C      1  0.4742010000000  0.4392870000000  0.5276350000000 1.0
C      1  0.4745030000000  0.5664620000000  0.4800690000000 1.0
C      1  0.5240070000000  0.4369660000000  0.4743240000000 1.0
C      1  0.5256410000000  0.5619810000000  0.5265400000000 1.0
C      1  0.4743700000000  0.4335950000000  0.4797260000000 1.0
C      1  0.4743650000000  0.5606790000000  0.5279350000000 1.0
C      1  0.4834630000000  0.5684620000000  0.4455340000000 1.0
C      1  0.4860510000000  0.4352210000000  0.5549160000000 1.0
C      1  0.5123410000000  0.5671060000000  0.4458410000000 1.0
C      1  0.5151330000000  0.4328280000000  0.5552100000000 1.0
C      1  0.4862400000000  0.5649440000000  0.5551560000000 1.0
C      1  0.4834020000000  0.4315460000000  0.4452680000000 1.0
C      1  0.5152910000000  0.5672660000000  0.5554530000000 1.0
C      1  0.5122310000000  0.4327710000000  0.4456410000000 1.0
C      1  0.4730260000000  0.5562930000000  0.5788580000000 1.0
C      1  0.4704540000000  0.4378410000000  0.4183250000000 1.0
C      1  0.5292250000000  0.5609700000000  0.5818770000000 1.0
C      1  0.5266750000000  0.4423810000000  0.4216170000000 1.0
C      1  0.4703110000000  0.5621820000000  0.4186390000000 1.0
C      1  0.4726930000000  0.4441310000000  0.5784710000000 1.0
C      1  0.5269860000000  0.5574130000000  0.4218830000000 1.0
C      1  0.5291860000000  0.4391160000000  0.5815720000000 1.0
C      1  0.4026330000000  0.5156120000000  0.5587410000000 1.0
C      1  0.4085020000000  0.4851790000000  0.4458230000000 1.0
C      1  0.5952920000000  0.5148020000000  0.5552970000000 1.0
C      1  0.5967660000000  0.4842730000000  0.4425290000000 1.0
C      1  0.4087280000000  0.5137770000000  0.4464250000000 1.0
C      1  0.4021540000000  0.4865650000000  0.5602260000000 1.0
C      1  0.5974070000000  0.5134880000000  0.4413160000000 1.0
C      1  0.5948900000000  0.4860260000000  0.5545950000000 1.0
C      1  0.5587400000000  0.5151490000000  0.4129730000000 1.0
C      1  0.5582020000000  0.4844280000000  0.5864350000000 1.0
C      1  0.4439980000000  0.5165000000000  0.4122820000000 1.0
C      1  0.4435380000000  0.4855230000000  0.5848350000000 1.0
C      1  0.5582130000000  0.5156980000000  0.5866940000000 1.0
C      1  0.5586580000000  0.4840960000000  0.4128980000000 1.0
C      1  0.4435720000000  0.5152770000000  0.5849110000000 1.0
C      1  0.4440310000000  0.4832640000000  0.4120420000000 1.0
C      1  0.5339860000000  0.5145510000000  0.5433940000000 1.0
C      1  0.5427340000000  0.4867990000000  0.4606940000000 1.0
C      1  0.4437180000000  0.5135690000000  0.5259850000000 1.0
C      1  0.4704720000000  0.4864110000000  0.4495110000000 1.0
C      1  0.5428300000000  0.5131660000000  0.4607820000000 1.0
C      1  0.5338840000000  0.4855830000000  0.5432590000000 1.0
C      1  0.4706110000000  0.5137980000000  0.4495870000000 1.0
C      1  0.4434400000000  0.4863180000000  0.5258810000000 1.0
C      1  0.5009640000000  0.5673080000000  0.5002270000000 1.0
C      1  0.5008300000000  0.4327370000000  0.5000120000000 1.0
END
