TITL C-74084-3399-362 -5.10484843643468e-07 125000 -726.335475618841 0 0 117 (C1) n - 1
REM
REM in /home/nfs/bkarasulu/CARBON/AIRSS/Generating-Clusters/LCBOP/Higher-Symm/SD-CG/FIRE-CG
REM
REM
REM
REM
REM
REM ./C.cell (b20cbc046b6831c77cfcea5457e17084)
REM AIRSS Version 0.9.1 bugfix July 2018 build 013d7b7c2542+ Fri, 06 Jul 2018 19:26:36 +0100
REM compiler GCC version 9.2.1 20190827 (Red Hat 9.2.1-1)
REM options -cpp -mtune=generic -march=x86-64 -g -O0 -fpre-include=/usr/include/finclude/math-vector-fortran.h
REM seed 2128358077 1827480918 2117830622 -364012889 298961917 -1980063161 1608017925 -1934232415 105656937 -1593593971 428250971 516982113 37353507 -118564586 -1299422628 -654678785 104356672 1283738438 -1680511460 -1347320969 363735098 -1334042114 316084722 1658800723 -391625678 -331933901 1446219842 1983781940 -1147620498 766909072 1973826187 1168737445 413904362
REM
CELL 1.54180   50.00000   50.00000   50.00000   90.00000   90.00000   90.00000
LATT -1
SFAC C  
C      1  0.5376290000000  0.5752080000000  0.5765300000000 1.0
C      1  0.4631410000000  0.4233790000000  0.5762080000000 1.0
C      1  0.4592320000000  0.5740630000000  0.4215700000000 1.0
C      1  0.5347130000000  0.4246780000000  0.4224510000000 1.0
C      1  0.5750880000000  0.5373930000000  0.5774730000000 1.0
C      1  0.4245330000000  0.4616700000000  0.5768440000000 1.0
C      1  0.5752760000000  0.4610730000000  0.4240980000000 1.0
C      1  0.4229980000000  0.5349830000000  0.4225840000000 1.0
C      1  0.4929180000000  0.5392400000000  0.5379680000000 1.0
C      1  0.5032760000000  0.4608120000000  0.5385270000000 1.0
C      1  0.5080450000000  0.5465650000000  0.4555040000000 1.0
C      1  0.4981740000000  0.4627390000000  0.4619170000000 1.0
C      1  0.5423290000000  0.4921110000000  0.5408800000000 1.0
C      1  0.4592730000000  0.5033790000000  0.5394570000000 1.0
C      1  0.5389860000000  0.5064320000000  0.4616450000000 1.0
C      1  0.4627730000000  0.4974570000000  0.4633540000000 1.0
C      1  0.5732290000000  0.5069970000000  0.4226910000000 1.0
C      1  0.4258150000000  0.4893990000000  0.4198890000000 1.0
C      1  0.4285650000000  0.5073620000000  0.5804790000000 1.0
C      1  0.5759580000000  0.4923090000000  0.5844190000000 1.0
C      1  0.5038210000000  0.5779280000000  0.4128400000000 1.0
C      1  0.4894100000000  0.4324670000000  0.4200040000000 1.0
C      1  0.5088110000000  0.4281310000000  0.5789620000000 1.0
C      1  0.4921770000000  0.5758530000000  0.5807170000000 1.0
C      1  0.5219770000000  0.4630920000000  0.4761270000000 1.0
C      1  0.4829280000000  0.5419780000000  0.4671740000000 1.0
C      1  0.4791850000000  0.4612150000000  0.5248950000000 1.0
C      1  0.5085170000000  0.5236220000000  0.5200340000000 1.0
C      1  0.4764810000000  0.5171100000000  0.4784770000000 1.0
C      1  0.5400620000000  0.4826830000000  0.4760120000000 1.0
C      1  0.4596670000000  0.4793360000000  0.5256740000000 1.0
C      1  0.5340880000000  0.5145750000000  0.5264330000000 1.0
C      1  0.5306360000000  0.4897780000000  0.5673870000000 1.0
C      1  0.4777390000000  0.5021770000000  0.5664720000000 1.0
C      1  0.4716260000000  0.4938340000000  0.4358870000000 1.0
C      1  0.5226970000000  0.5043520000000  0.4334740000000 1.0
C      1  0.4909350000000  0.5297130000000  0.5653800000000 1.0
C      1  0.5025610000000  0.4776120000000  0.5663300000000 1.0
C      1  0.4992060000000  0.4809600000000  0.4346690000000 1.0
C      1  0.5109540000000  0.5329750000000  0.4298300000000 1.0
C      1  0.5463210000000  0.4130490000000  0.4938330000000 1.0
C      1  0.4474080000000  0.5836600000000  0.4929000000000 1.0
C      1  0.4511380000000  0.4158870000000  0.5043510000000 1.0
C      1  0.5521760000000  0.5859020000000  0.5060110000000 1.0
C      1  0.4134940000000  0.5478410000000  0.4937400000000 1.0
C      1  0.5836260000000  0.4449340000000  0.4949900000000 1.0
C      1  0.4160890000000  0.4503620000000  0.5051230000000 1.0
C      1  0.5854420000000  0.5495570000000  0.5064970000000 1.0
C      1  0.5899920000000  0.4858320000000  0.4330920000000 1.0
C      1  0.4080290000000  0.5097440000000  0.4297590000000 1.0
C      1  0.4106620000000  0.4874330000000  0.5694250000000 1.0
C      1  0.5917400000000  0.5129210000000  0.5719500000000 1.0
C      1  0.4827400000000  0.5921130000000  0.4265690000000 1.0
C      1  0.5080340000000  0.4126470000000  0.4299340000000 1.0
C      1  0.4889890000000  0.4099980000000  0.5681740000000 1.0
C      1  0.5134340000000  0.5918560000000  0.5698010000000 1.0
C      1  0.4690910000000  0.4481580000000  0.5899260000000 1.0
C      1  0.5295750000000  0.5496500000000  0.5882690000000 1.0
C      1  0.5303730000000  0.4502560000000  0.4096790000000 1.0
C      1  0.4680870000000  0.5489550000000  0.4095560000000 1.0
C      1  0.4494120000000  0.4677660000000  0.5902840000000 1.0
C      1  0.5493600000000  0.5297990000000  0.5891050000000 1.0
C      1  0.4489860000000  0.5284440000000  0.4105650000000 1.0
C      1  0.5510300000000  0.4688020000000  0.4104480000000 1.0
C      1  0.5759830000000  0.5554390000000  0.5547970000000 1.0
C      1  0.4241300000000  0.4431090000000  0.5542040000000 1.0
C      1  0.4220900000000  0.5535810000000  0.4449600000000 1.0
C      1  0.5745120000000  0.4413770000000  0.4456970000000 1.0
C      1  0.5564610000000  0.5756600000000  0.5544650000000 1.0
C      1  0.4443580000000  0.4232210000000  0.5537580000000 1.0
C      1  0.5532950000000  0.4225720000000  0.4449680000000 1.0
C      1  0.4413500000000  0.5741050000000  0.4444280000000 1.0
C      1  0.5477370000000  0.5004830000000  0.5872800000000 1.0
C      1  0.4552820000000  0.4962170000000  0.5866260000000 1.0
C      1  0.4527640000000  0.5000220000000  0.4159510000000 1.0
C      1  0.5464170000000  0.4972770000000  0.4150030000000 1.0
C      1  0.5005870000000  0.5479650000000  0.5845800000000 1.0
C      1  0.4972570000000  0.4544370000000  0.5857070000000 1.0
C      1  0.5026510000000  0.4581800000000  0.4142270000000 1.0
C      1  0.4977420000000  0.5489180000000  0.4100130000000 1.0
C      1  0.5133960000000  0.4008360000000  0.4556610000000 1.0
C      1  0.4771880000000  0.6021230000000  0.4531710000000 1.0
C      1  0.4828940000000  0.3996490000000  0.5419820000000 1.0
C      1  0.5200410000000  0.6023730000000  0.5437660000000 1.0
C      1  0.3975620000000  0.5156830000000  0.4559590000000 1.0
C      1  0.6002080000000  0.4780840000000  0.4588840000000 1.0
C      1  0.3998580000000  0.4814550000000  0.5433630000000 1.0
C      1  0.6019970000000  0.5182230000000  0.5454570000000 1.0
C      1  0.4734910000000  0.4527270000000  0.4729870000000 1.0
C      1  0.5310950000000  0.5528740000000  0.4705490000000 1.0
C      1  0.5273000000000  0.4494910000000  0.5277060000000 1.0
C      1  0.4683410000000  0.5491300000000  0.5272660000000 1.0
C      1  0.4530050000000  0.4732400000000  0.4746740000000 1.0
C      1  0.5493660000000  0.5307220000000  0.4722750000000 1.0
C      1  0.4486300000000  0.5278090000000  0.5281780000000 1.0
C      1  0.5496290000000  0.4677830000000  0.5284060000000 1.0
C      1  0.5892700000000  0.4530100000000  0.4684820000000 1.0
C      1  0.4080690000000  0.5402120000000  0.4671140000000 1.0
C      1  0.4099650000000  0.4566990000000  0.5320670000000 1.0
C      1  0.5907950000000  0.5420370000000  0.5332030000000 1.0
C      1  0.4541570000000  0.5896600000000  0.4660030000000 1.0
C      1  0.5388680000000  0.4088610000000  0.4668520000000 1.0
C      1  0.4579630000000  0.4097250000000  0.5311660000000 1.0
C      1  0.5442530000000  0.5910080000000  0.5325990000000 1.0
C      1  0.4650880000000  0.5727940000000  0.5122670000000 1.0
C      1  0.5295340000000  0.4252130000000  0.5133000000000 1.0
C      1  0.5347250000000  0.5761020000000  0.4860300000000 1.0
C      1  0.4690400000000  0.4277600000000  0.4856410000000 1.0
C      1  0.5737660000000  0.4625940000000  0.5148520000000 1.0
C      1  0.4247470000000  0.5306880000000  0.5133510000000 1.0
C      1  0.5732850000000  0.5327120000000  0.4872190000000 1.0
C      1  0.4280540000000  0.4687340000000  0.4870350000000 1.0
C      1  0.4239580000000  0.4234190000000  0.5004380000000 1.0
C      1  0.5740020000000  0.4183230000000  0.4978570000000 1.0
C      1  0.4204760000000  0.5752650000000  0.4969780000000 1.0
C      1  0.5790760000000  0.5770950000000  0.5028590000000 1.0
C      1  0.4937620000000  0.5109600000000  0.4996880000000 1.0
END
