TITL C-74085-4933-105 1.0252306629098 125000 -589.777309993703 0 0 96 (C1) n - 1
REM
REM in /home/nfs/bkarasulu/CARBON/AIRSS/Generating-Clusters/LCBOP/Higher-Symm/SD-CG/FIRE-CG
REM
REM
REM
REM
REM
REM ./C.cell (b20cbc046b6831c77cfcea5457e17084)
REM AIRSS Version 0.9.1 bugfix July 2018 build 013d7b7c2542+ Fri, 06 Jul 2018 19:26:36 +0100
REM compiler GCC version 9.2.1 20190827 (Red Hat 9.2.1-1)
REM options -cpp -mtune=generic -march=x86-64 -g -O0 -fpre-include=/usr/include/finclude/math-vector-fortran.h
REM seed -1953268650 401623366 -1425247090 730053245 845193525 -2118212263 1351221101 899129709 678712589 -937724779 -672796915 721830396 -1994112224 1757415764 -72286397 173607259 1400286915 2008506066 184817601 -399283562 -323133644 1800363668 1523762564 1652247985 767373254 1550323957 -717350334 -1821188084 -1331825459 -1524480757 999894216 -1424367083 1945168726
REM
CELL 1.54180   50.00000   50.00000   50.00000   90.00000   90.00000   90.00000
LATT -1
SFAC C  
C      1  0.5230310000000  0.5024130000000  0.5510980000000 1.0
C      1  0.5889440000000  0.4979660000000  0.4958450000000 1.0
C      1  0.4811740000000  0.5365750000000  0.5136730000000 1.0
C      1  0.5178130000000  0.5476560000000  0.4252980000000 1.0
C      1  0.4681660000000  0.5246940000000  0.5368150000000 1.0
C      1  0.4578910000000  0.5610510000000  0.4197180000000 1.0
C      1  0.5424370000000  0.4862520000000  0.5381880000000 1.0
C      1  0.4732100000000  0.4589330000000  0.5080950000000 1.0
C      1  0.4335350000000  0.5014910000000  0.4716110000000 1.0
C      1  0.4946280000000  0.4463860000000  0.5229220000000 1.0
C      1  0.5499960000000  0.4090860000000  0.5434090000000 1.0
C      1  0.5125860000000  0.5529640000000  0.4533600000000 1.0
C      1  0.4666120000000  0.4964070000000  0.5400410000000 1.0
C      1  0.4529420000000  0.4889250000000  0.4583460000000 1.0
C      1  0.5098130000000  0.5374600000000  0.5173690000000 1.0
C      1  0.4777470000000  0.5773110000000  0.4312510000000 1.0
C      1  0.5170190000000  0.5295600000000  0.5446050000000 1.0
C      1  0.5040870000000  0.5263730000000  0.4130560000000 1.0
C      1  0.4563780000000  0.4785780000000  0.5204420000000 1.0
C      1  0.5355310000000  0.4738820000000  0.5134900000000 1.0
C      1  0.5977120000000  0.4991520000000  0.5208420000000 1.0
C      1  0.5214280000000  0.4488750000000  0.5133410000000 1.0
C      1  0.5313400000000  0.4142780000000  0.5616510000000 1.0
C      1  0.4887030000000  0.5684820000000  0.4565940000000 1.0
C      1  0.5139150000000  0.4826920000000  0.5963660000000 1.0
C      1  0.5726500000000  0.4882200000000  0.4504170000000 1.0
C      1  0.4380850000000  0.5585310000000  0.5059750000000 1.0
C      1  0.5405870000000  0.5812480000000  0.3928230000000 1.0
C      1  0.4560920000000  0.5522300000000  0.5794840000000 1.0
C      1  0.4308350000000  0.5257510000000  0.3975340000000 1.0
C      1  0.5649890000000  0.4634020000000  0.5760940000000 1.0
C      1  0.4683280000000  0.4201820000000  0.4778720000000 1.0
C      1  0.3905490000000  0.5044320000000  0.4967270000000 1.0
C      1  0.4596110000000  0.4222550000000  0.5478040000000 1.0
C      1  0.5705720000000  0.3940130000000  0.5004170000000 1.0
C      1  0.5599100000000  0.5521360000000  0.4638350000000 1.0
C      1  0.4616230000000  0.4756800000000  0.5852570000000 1.0
C      1  0.4718520000000  0.4505540000000  0.4336300000000 1.0
C      1  0.5515290000000  0.5620830000000  0.5155150000000 1.0
C      1  0.4973820000000  0.6137900000000  0.4000200000000 1.0
C      1  0.5097400000000  0.5596370000000  0.5866100000000 1.0
C      1  0.4742210000000  0.4948200000000  0.3890170000000 1.0
C      1  0.4091310000000  0.4687990000000  0.5328410000000 1.0
C      1  0.5218010000000  0.4853270000000  0.4676370000000 1.0
C      1  0.6116710000000  0.4885630000000  0.5671960000000 1.0
C      1  0.5337550000000  0.4222320000000  0.4728060000000 1.0
C      1  0.4912020000000  0.4107810000000  0.5895730000000 1.0
C      1  0.4641490000000  0.6004300000000  0.4844580000000 1.0
C      1  0.5850910000000  0.4609150000000  0.5942670000000 1.0
C      1  0.5806660000000  0.5612340000000  0.4788860000000 1.0
C      1  0.4651860000000  0.5669850000000  0.6005120000000 1.0
C      1  0.5526890000000  0.4851940000000  0.4321910000000 1.0
C      1  0.3734700000000  0.4938670000000  0.5151170000000 1.0
C      1  0.4717550000000  0.4081170000000  0.4537080000000 1.0
C      1  0.5692600000000  0.3913900000000  0.4733460000000 1.0
C      1  0.4485150000000  0.4115030000000  0.5702000000000 1.0
C      1  0.4261040000000  0.5830190000000  0.5058690000000 1.0
C      1  0.4280110000000  0.5021070000000  0.3843600000000 1.0
C      1  0.4973020000000  0.4732800000000  0.6157500000000 1.0
C      1  0.5394290000000  0.6053800000000  0.3802200000000 1.0
C      1  0.3827840000000  0.4756650000000  0.5331280000000 1.0
C      1  0.4396210000000  0.6043920000000  0.4956820000000 1.0
C      1  0.4919680000000  0.5707050000000  0.6040520000000 1.0
C      1  0.4740260000000  0.4235170000000  0.4313550000000 1.0
C      1  0.6086380000000  0.4739020000000  0.5899310000000 1.0
C      1  0.5269620000000  0.4838470000000  0.4409670000000 1.0
C      1  0.4644850000000  0.4060020000000  0.5915570000000 1.0
C      1  0.5505260000000  0.4054660000000  0.4594440000000 1.0
C      1  0.5762510000000  0.5667630000000  0.5051690000000 1.0
C      1  0.4499240000000  0.4865430000000  0.3799760000000 1.0
C      1  0.4708750000000  0.4697970000000  0.6101640000000 1.0
C      1  0.5178410000000  0.6216440000000  0.3838250000000 1.0
C      1  0.4871410000000  0.4296300000000  0.5447540000000 1.0
C      1  0.4554840000000  0.5360220000000  0.4073320000000 1.0
C      1  0.4682750000000  0.4484750000000  0.4821110000000 1.0
C      1  0.4654130000000  0.5541930000000  0.4982790000000 1.0
C      1  0.5327210000000  0.5497600000000  0.4727280000000 1.0
C      1  0.5530150000000  0.4102120000000  0.5157600000000 1.0
C      1  0.4731220000000  0.5401500000000  0.5604900000000 1.0
C      1  0.5202900000000  0.5716500000000  0.4099510000000 1.0
C      1  0.5058070000000  0.4897880000000  0.5700430000000 1.0
C      1  0.4178680000000  0.4970390000000  0.4942350000000 1.0
C      1  0.5686630000000  0.4902650000000  0.4785310000000 1.0
C      1  0.5659670000000  0.4796620000000  0.5526650000000 1.0
C      1  0.5347410000000  0.4270840000000  0.5008420000000 1.0
C      1  0.4788720000000  0.5189680000000  0.4033240000000 1.0
C      1  0.5418080000000  0.4848540000000  0.4880170000000 1.0
C      1  0.5295400000000  0.5499400000000  0.5015360000000 1.0
C      1  0.4755470000000  0.5744810000000  0.4804990000000 1.0
C      1  0.5043950000000  0.4197600000000  0.5659490000000 1.0
C      1  0.5020200000000  0.5439130000000  0.5644680000000 1.0
C      1  0.4969840000000  0.5891140000000  0.4137690000000 1.0
C      1  0.4775630000000  0.4861510000000  0.5641560000000 1.0
C      1  0.5920960000000  0.4906460000000  0.5466760000000 1.0
C      1  0.4658690000000  0.4642410000000  0.4578700000000 1.0
C      1  0.4285190000000  0.4802270000000  0.5153710000000 1.0
END
