TITL C-74079-2735-180 1.87498707307376e-06 125000 -221.130175929278 0 0 59 (C3i) n - 1
REM
REM in /home/nfs/bkarasulu/CARBON/AIRSS/Generating-Clusters/LCBOP/Higher-Symm/SD-CG/FIRE-CG
REM
REM
REM
REM
REM
REM ./C.cell (b20cbc046b6831c77cfcea5457e17084)
REM AIRSS Version 0.9.1 bugfix July 2018 build 013d7b7c2542+ Fri, 06 Jul 2018 19:26:36 +0100
REM compiler GCC version 9.2.1 20190827 (Red Hat 9.2.1-1)
REM options -cpp -mtune=generic -march=x86-64 -g -O0 -fpre-include=/usr/include/finclude/math-vector-fortran.h
REM seed 209443073 -2046525965 -1922111842 175763000 -830578658 -326197493 -15566360 -1501266358 -1384630511 -1209780444 -467934449 -658453917 -1441631907 439573189 1562606605 -1974559178 1384797497 -982866489 -382571537 -384399679 1927214250 -159349698 403753622 -2070002798 564270288 -457592304 -693531727 562316021 2138659459 -474896737 830988834 1413927436 -1589787560
REM
CELL 1.54180   50.00000   50.00000   50.00000   90.00000   90.00000   90.00000
LATT -1
SFAC C  
C      1  0.5313480000000  0.4812690000000  0.5672290000000 1.0
C      1  0.5664540000000  0.5301980000000  0.4814240000000 1.0
C      1  0.4811660000000  0.5657710000000  0.5312560000000 1.0
C      1  0.5308310000000  0.5194180000000  0.4350250000000 1.0
C      1  0.4702680000000  0.5192240000000  0.5655560000000 1.0
C      1  0.4702250000000  0.4805270000000  0.4350740000000 1.0
C      1  0.5664130000000  0.4695910000000  0.5203120000000 1.0
C      1  0.4359290000000  0.4696240000000  0.4816230000000 1.0
C      1  0.4342520000000  0.5307030000000  0.5195800000000 1.0
C      1  0.4819070000000  0.4336120000000  0.4701400000000 1.0
C      1  0.5198670000000  0.4352910000000  0.5312170000000 1.0
C      1  0.5200520000000  0.5658180000000  0.4706470000000 1.0
C      1  0.4707390000000  0.4808750000000  0.5663710000000 1.0
C      1  0.4351570000000  0.5307010000000  0.4810840000000 1.0
C      1  0.5196620000000  0.5666800000000  0.5312560000000 1.0
C      1  0.4702220000000  0.5190230000000  0.4341670000000 1.0
C      1  0.5313450000000  0.5197650000000  0.5663220000000 1.0
C      1  0.5313020000000  0.4810680000000  0.4358400000000 1.0
C      1  0.4351160000000  0.4700940000000  0.5199720000000 1.0
C      1  0.5673180000000  0.4695890000000  0.4818160000000 1.0
C      1  0.5656410000000  0.5306680000000  0.5197730000000 1.0
C      1  0.5204030000000  0.4345210000000  0.4701400000000 1.0
C      1  0.4815180000000  0.4344740000000  0.5307490000000 1.0
C      1  0.4817020000000  0.5650010000000  0.4701790000000 1.0
C      1  0.4790160000000  0.5613080000000  0.5009470000000 1.0
C      1  0.5225540000000  0.4389840000000  0.5004490000000 1.0
C      1  0.4396210000000  0.5003910000000  0.4789340000000 1.0
C      1  0.4792170000000  0.4378550000000  0.5000850000000 1.0
C      1  0.5005350000000  0.4783790000000  0.4395350000000 1.0
C      1  0.4384960000000  0.5007580000000  0.5222720000000 1.0
C      1  0.5630740000000  0.4995340000000  0.4791240000000 1.0
C      1  0.5619490000000  0.4999010000000  0.5224610000000 1.0
C      1  0.5223530000000  0.5624370000000  0.5013110000000 1.0
C      1  0.5010350000000  0.5219130000000  0.5618600000000 1.0
C      1  0.5001660000000  0.5217160000000  0.4384080000000 1.0
C      1  0.5014030000000  0.4785760000000  0.5629880000000 1.0
C      1  0.5475770000000  0.4542190000000  0.4550590000000 1.0
C      1  0.4550250000000  0.4543810000000  0.5464650000000 1.0
C      1  0.4539920000000  0.5460730000000  0.5463370000000 1.0
C      1  0.5465450000000  0.5459120000000  0.4549310000000 1.0
C      1  0.5464220000000  0.5469410000000  0.5466240000000 1.0
C      1  0.4548520000000  0.5457810000000  0.4539070000000 1.0
C      1  0.4551470000000  0.4533510000000  0.4547720000000 1.0
C      1  0.5467180000000  0.4545110000000  0.5474890000000 1.0
C      1  0.5206360000000  0.4784070000000  0.4780380000000 1.0
C      1  0.4809340000000  0.5218860000000  0.5233580000000 1.0
C      1  0.4797810000000  0.4791400000000  0.5217050000000 1.0
C      1  0.4790430000000  0.5228040000000  0.4808470000000 1.0
C      1  0.5225270000000  0.4774880000000  0.5205490000000 1.0
C      1  0.5217890000000  0.5211530000000  0.4796910000000 1.0
C      1  0.5234440000000  0.5199990000000  0.5224370000000 1.0
C      1  0.4781260000000  0.4802930000000  0.4789590000000 1.0
C      1  0.4990180000000  0.4619100000000  0.4999070000000 1.0
C      1  0.4999910000000  0.5019150000000  0.4624610000000 1.0
C      1  0.4625480000000  0.5009360000000  0.5024690000000 1.0
C      1  0.5025520000000  0.5383830000000  0.5014890000000 1.0
C      1  0.5015790000000  0.4983780000000  0.5389340000000 1.0
C      1  0.5390210000000  0.4993560000000  0.4989270000000 1.0
C      1  0.5007850000000  0.5001460000000  0.5006980000000 1.0
END
