TITL C-74084-3399-301 -4.44191077784942e-08 125000 -427.27091473343 0 0 71 (C1) n - 1
REM
REM in /home/nfs/bkarasulu/CARBON/AIRSS/Generating-Clusters/LCBOP/Higher-Symm/SD-CG/FIRE-CG
REM
REM
REM
REM
REM
REM ./C.cell (b20cbc046b6831c77cfcea5457e17084)
REM AIRSS Version 0.9.1 bugfix July 2018 build 013d7b7c2542+ Fri, 06 Jul 2018 19:26:36 +0100
REM compiler GCC version 9.2.1 20190827 (Red Hat 9.2.1-1)
REM options -cpp -mtune=generic -march=x86-64 -g -O0 -fpre-include=/usr/include/finclude/math-vector-fortran.h
REM seed 2023122626 1252325938 1135164285 -1329911534 -149748200 -2145708065 -584156865 -120505415 512090945 1803832544 1504283360 -71318177 -825195 1546226975 -1531825437 -152124754 -306330685 159782265 -1379194873 -383234095 -1800056382 1719806622 2029831918 -1141035352 866782666 -842645308 1089023463 -577258781 -1291288259 1168219295 1357573416 1217174200 -1924378264
REM
CELL 1.54180   50.00000   50.00000   50.00000   90.00000   90.00000   90.00000
LATT -1
SFAC C  
C      1  0.4240300000000  0.4578270000000  0.4806120000000 1.0
C      1  0.4276520000000  0.5318780000000  0.5068480000000 1.0
C      1  0.5694310000000  0.4585210000000  0.5047140000000 1.0
C      1  0.5779380000000  0.5383060000000  0.4921650000000 1.0
C      1  0.5069080000000  0.5178460000000  0.4277260000000 1.0
C      1  0.5084690000000  0.4923610000000  0.5773660000000 1.0
C      1  0.4975020000000  0.5206660000000  0.5736990000000 1.0
C      1  0.4941860000000  0.4907350000000  0.4252500000000 1.0
C      1  0.4269750000000  0.4826180000000  0.5274340000000 1.0
C      1  0.4225310000000  0.5063320000000  0.4612740000000 1.0
C      1  0.5769270000000  0.4944130000000  0.4655580000000 1.0
C      1  0.5743100000000  0.5015000000000  0.5290630000000 1.0
C      1  0.4872120000000  0.5637580000000  0.4210410000000 1.0
C      1  0.4885520000000  0.4515780000000  0.5999630000000 1.0
C      1  0.5237400000000  0.5635720000000  0.5754570000000 1.0
C      1  0.5135650000000  0.4451100000000  0.4171000000000 1.0
C      1  0.5151280000000  0.5191650000000  0.5094430000000 1.0
C      1  0.5142640000000  0.4708830000000  0.4995450000000 1.0
C      1  0.4756330000000  0.5279640000000  0.4892450000000 1.0
C      1  0.4709510000000  0.4614680000000  0.5329350000000 1.0
C      1  0.4880820000000  0.5712870000000  0.4910130000000 1.0
C      1  0.4894970000000  0.4243770000000  0.5048410000000 1.0
C      1  0.5091580000000  0.5685370000000  0.5137020000000 1.0
C      1  0.5128330000000  0.4278260000000  0.4855500000000 1.0
C      1  0.4887120000000  0.5890660000000  0.4150160000000 1.0
C      1  0.4903820000000  0.4275380000000  0.6098520000000 1.0
C      1  0.5272010000000  0.5887570000000  0.5811860000000 1.0
C      1  0.5123820000000  0.4203340000000  0.4091150000000 1.0
C      1  0.4689810000000  0.5158790000000  0.5670080000000 1.0
C      1  0.4689090000000  0.4951140000000  0.4384450000000 1.0
C      1  0.5314530000000  0.5115610000000  0.4418610000000 1.0
C      1  0.5319710000000  0.4916240000000  0.5602810000000 1.0
C      1  0.5583000000000  0.4729270000000  0.4596540000000 1.0
C      1  0.5594970000000  0.5256090000000  0.5349110000000 1.0
C      1  0.4433380000000  0.4587170000000  0.5244570000000 1.0
C      1  0.4388590000000  0.5303440000000  0.4583700000000 1.0
C      1  0.5410330000000  0.4277160000000  0.4801410000000 1.0
C      1  0.5357220000000  0.5599180000000  0.5023800000000 1.0
C      1  0.4654460000000  0.4348860000000  0.4888790000000 1.0
C      1  0.4577940000000  0.5702090000000  0.4882760000000 1.0
C      1  0.5402600000000  0.5202860000000  0.5554030000000 1.0
C      1  0.5371670000000  0.4820530000000  0.4419960000000 1.0
C      1  0.4613120000000  0.5246060000000  0.4398920000000 1.0
C      1  0.4629950000000  0.4920850000000  0.5830390000000 1.0
C      1  0.5055680000000  0.4553440000000  0.4768920000000 1.0
C      1  0.5008370000000  0.5417780000000  0.5251160000000 1.0
C      1  0.4931540000000  0.4423730000000  0.5285040000000 1.0
C      1  0.4953470000000  0.5459750000000  0.4766980000000 1.0
C      1  0.4869180000000  0.4763890000000  0.5880340000000 1.0
C      1  0.4855570000000  0.5374070000000  0.4294360000000 1.0
C      1  0.5145740000000  0.4706120000000  0.4277930000000 1.0
C      1  0.5203790000000  0.5371570000000  0.5680010000000 1.0
C      1  0.4774810000000  0.4550430000000  0.4703580000000 1.0
C      1  0.4736160000000  0.5344010000000  0.5190590000000 1.0
C      1  0.5187070000000  0.4574220000000  0.5258420000000 1.0
C      1  0.5239400000000  0.5365560000000  0.4842900000000 1.0
C      1  0.5582980000000  0.4510860000000  0.4793570000000 1.0
C      1  0.5599800000000  0.5461210000000  0.5135730000000 1.0
C      1  0.4404580000000  0.4442760000000  0.4997120000000 1.0
C      1  0.4377860000000  0.5476490000000  0.4832300000000 1.0
C      1  0.4343550000000  0.5104020000000  0.5258530000000 1.0
C      1  0.4339180000000  0.4810150000000  0.4676980000000 1.0
C      1  0.5690060000000  0.5210260000000  0.4715130000000 1.0
C      1  0.5638260000000  0.4751430000000  0.5268660000000 1.0
C      1  0.5418710000000  0.5261180000000  0.4635470000000 1.0
C      1  0.5387750000000  0.4710360000000  0.5412000000000 1.0
C      1  0.4622980000000  0.5137550000000  0.5374870000000 1.0
C      1  0.4641820000000  0.4812850000000  0.4648400000000 1.0
C      1  0.4782190000000  0.5003230000000  0.4844850000000 1.0
C      1  0.4796060000000  0.4888960000000  0.5294380000000 1.0
C      1  0.4985160000000  0.4941880000000  0.5057590000000 1.0
END
