TITL C-74085-4933-242 -9.26623164303094e-07 125000 -178.261609639639 0 0 30 (D3h) n - 1
REM
REM in /home/nfs/bkarasulu/CARBON/AIRSS/Generating-Clusters/LCBOP/Higher-Symm/SD-CG/FIRE-CG
REM
REM
REM
REM
REM
REM ./C.cell (b20cbc046b6831c77cfcea5457e17084)
REM AIRSS Version 0.9.1 bugfix July 2018 build 013d7b7c2542+ Fri, 06 Jul 2018 19:26:36 +0100
REM compiler GCC version 9.2.1 20190827 (Red Hat 9.2.1-1)
REM options -cpp -mtune=generic -march=x86-64 -g -O0 -fpre-include=/usr/include/finclude/math-vector-fortran.h
REM seed -206619700 1401779107 2008449036 -429664126 -84695401 -440348590 1318810670 -1155654661 -1158825214 -1728723417 -120546105 -1126945959 1800802192 -1276443910 -690958151 -333329912 -169921071 -193754933 -1458854458 -669743770 230360760 -629265872 -139019078 704553902 2111104588 696941284 99615568 -1541342503 428663659 -765853138 1333384156 1809891547 476857623
REM
CELL 1.54180   50.00000   50.00000   50.00000   90.00000   90.00000   90.00000
LATT -1
SFAC C  
C      1  0.4697480000000  0.4761810000000  0.4627670000000 1.0
C      1  0.5357540000000  0.4857100000000  0.4627670000000 1.0
C      1  0.4944980000000  0.5381090000000  0.4627670000000 1.0
C      1  0.4697480000000  0.4761810000000  0.5372330000000 1.0
C      1  0.5357540000000  0.4857100000000  0.5372330000000 1.0
C      1  0.4944980000000  0.5381090000000  0.5372330000000 1.0
C      1  0.4697480000000  0.5238190000000  0.4627670000000 1.0
C      1  0.5357540000000  0.5142900000000  0.4627670000000 1.0
C      1  0.4944980000000  0.4618910000000  0.4627670000000 1.0
C      1  0.4697480000000  0.5238190000000  0.5372330000000 1.0
C      1  0.5357540000000  0.5142900000000  0.5372330000000 1.0
C      1  0.4944980000000  0.4618910000000  0.5372330000000 1.0
C      1  0.5389900000000  0.5281510000000  0.4868090000000 1.0
C      1  0.4561260000000  0.5196910000000  0.4868090000000 1.0
C      1  0.5048850000000  0.4521580000000  0.4868090000000 1.0
C      1  0.5389900000000  0.5281510000000  0.5131910000000 1.0
C      1  0.4561260000000  0.5196910000000  0.5131910000000 1.0
C      1  0.5048850000000  0.4521580000000  0.5131910000000 1.0
C      1  0.5389900000000  0.4718490000000  0.4868090000000 1.0
C      1  0.4561260000000  0.4803090000000  0.4868090000000 1.0
C      1  0.5048840000000  0.5478420000000  0.4868090000000 1.0
C      1  0.5389900000000  0.4718490000000  0.5131910000000 1.0
C      1  0.4561260000000  0.4803090000000  0.5131910000000 1.0
C      1  0.5048840000000  0.5478420000000  0.5131910000000 1.0
C      1  0.5156990000000  0.5271910000000  0.4467470000000 1.0
C      1  0.4686030000000  0.5000000000000  0.4467470000000 1.0
C      1  0.5156990000000  0.4728090000000  0.4467470000000 1.0
C      1  0.4686030000000  0.5000000000000  0.5532530000000 1.0
C      1  0.5156990000000  0.4728090000000  0.5532530000000 1.0
C      1  0.5156990000000  0.5271910000000  0.5532530000000 1.0
END
