TITL C-74084-3399-7 0.0135081567291633 125000 -104.761739116536 0 0 18 (C1) n - 1
REM
REM in /home/nfs/bkarasulu/CARBON/AIRSS/Generating-Clusters/LCBOP/Higher-Symm/SD-CG/FIRE-CG
REM
REM
REM
REM
REM
REM ./C.cell (b20cbc046b6831c77cfcea5457e17084)
REM AIRSS Version 0.9.1 bugfix July 2018 build 013d7b7c2542+ Fri, 06 Jul 2018 19:26:36 +0100
REM compiler GCC version 9.2.1 20190827 (Red Hat 9.2.1-1)
REM options -cpp -mtune=generic -march=x86-64 -g -O0 -fpre-include=/usr/include/finclude/math-vector-fortran.h
REM seed 261908917 -75019251 -1391564664 410460271 781071494 1936297387 1796012327 -1479439717 -1357340968 916797983 -780742745 -409946114 167160726 -728142822 -417891611 1356725546 63291617 1030682164 -774083442 403903648 -1332221889 -820698588 -678652320 1681604465 1428615049 2145036228 1804454814 -759478059 -870425807 659505690 -1876777422 -1787212268 -391869305
REM
CELL 1.54180   50.00000   50.00000   50.00000   90.00000   90.00000   90.00000
LATT -1
SFAC C  
C      1  0.4473940000000  0.4682350000000  0.4846510000000 1.0
C      1  0.5363950000000  0.4223160000000  0.4901790000000 1.0
C      1  0.5498240000000  0.5201140000000  0.5100690000000 1.0
C      1  0.4677310000000  0.4512520000000  0.4821620000000 1.0
C      1  0.5373860000000  0.5430520000000  0.5149950000000 1.0
C      1  0.4519870000000  0.5406200000000  0.5050380000000 1.0
C      1  0.4928940000000  0.5735170000000  0.5184960000000 1.0
C      1  0.5120130000000  0.4702840000000  0.4883460000000 1.0
C      1  0.5096660000000  0.4231620000000  0.4847550000000 1.0
C      1  0.5178020000000  0.5607430000000  0.5177070000000 1.0
C      1  0.4910490000000  0.5998810000000  0.5255130000000 1.0
C      1  0.5511530000000  0.4446800000000  0.4953410000000 1.0
C      1  0.4380930000000  0.4924890000000  0.4903180000000 1.0
C      1  0.4403800000000  0.5179460000000  0.4975580000000 1.0
C      1  0.4952070000000  0.4476360000000  0.4841750000000 1.0
C      1  0.4698960000000  0.5589110000000  0.5119970000000 1.0
C      1  0.5515430000000  0.4944920000000  0.5032370000000 1.0
C      1  0.5395870000000  0.4706700000000  0.4954640000000 1.0
END
