TITL C-74084-3399-183 -0.0241726926725915 125000 -1171.54802197693 0 0 194 (C1) n - 1
REM
REM in /home/nfs/bkarasulu/CARBON/AIRSS/Generating-Clusters/LCBOP/Higher-Symm/SD-CG/FIRE-CG
REM
REM
REM
REM
REM
REM ./C.cell (b20cbc046b6831c77cfcea5457e17084)
REM AIRSS Version 0.9.1 bugfix July 2018 build 013d7b7c2542+ Fri, 06 Jul 2018 19:26:36 +0100
REM compiler GCC version 9.2.1 20190827 (Red Hat 9.2.1-1)
REM options -cpp -mtune=generic -march=x86-64 -g -O0 -fpre-include=/usr/include/finclude/math-vector-fortran.h
REM seed 839714225 -307928836 -1470000196 1707786833 291572317 1500042211 -85169644 1189411746 795757753 -356093969 -1899937114 42140274 -1179730540 -833371464 1109127408 2109774404 1708353784 953446755 -1197709785 -559490577 -2130604771 -276795841 1754002200 988312043 320913097 508209859 -541044846 529601028 1999540758 -403877321 -2070535326 223992134 787664306
REM
CELL 1.54180   50.00000   50.00000   50.00000   90.00000   90.00000   90.00000
LATT -1
SFAC C  
C      1  0.4218590000000  0.5388530000000  0.5729640000000 1.0
C      1  0.5020010000000  0.4218910000000  0.5613290000000 1.0
C      1  0.5702610000000  0.5423560000000  0.5560680000000 1.0
C      1  0.3728900000000  0.5466470000000  0.5098670000000 1.0
C      1  0.5135760000000  0.3749850000000  0.5002370000000 1.0
C      1  0.6081520000000  0.5618990000000  0.4936780000000 1.0
C      1  0.3871490000000  0.5288930000000  0.4610010000000 1.0
C      1  0.5490950000000  0.3752190000000  0.4643490000000 1.0
C      1  0.6010060000000  0.6000340000000  0.4584380000000 1.0
C      1  0.3937060000000  0.4465870000000  0.5249960000000 1.0
C      1  0.5863630000000  0.4349020000000  0.5165560000000 1.0
C      1  0.5204620000000  0.6284670000000  0.5060400000000 1.0
C      1  0.3968180000000  0.5763120000000  0.4655840000000 1.0
C      1  0.5173070000000  0.3913210000000  0.4320880000000 1.0
C      1  0.5939260000000  0.5680180000000  0.4226890000000 1.0
C      1  0.6162170000000  0.5082480000000  0.4400200000000 1.0
C      1  0.3132540000000  0.5975320000000  0.4904610000000 1.0
C      1  0.4590290000000  0.3790730000000  0.4509330000000 1.0
C      1  0.4402170000000  0.6040750000000  0.5486390000000 1.0
C      1  0.4378340000000  0.3988090000000  0.5589140000000 1.0
C      1  0.6144300000000  0.4980570000000  0.5285300000000 1.0
C      1  0.4652850000000  0.4967990000000  0.5092990000000 1.0
C      1  0.5089650000000  0.4851330000000  0.5049780000000 1.0
C      1  0.4917010000000  0.5340740000000  0.5038950000000 1.0
C      1  0.5948820000000  0.4421180000000  0.5435920000000 1.0
C      1  0.5152950000000  0.6529780000000  0.5185960000000 1.0
C      1  0.4004130000000  0.4489290000000  0.5547420000000 1.0
C      1  0.5149900000000  0.5294400000000  0.3997820000000 1.0
C      1  0.4512150000000  0.5164150000000  0.4190870000000 1.0
C      1  0.4966480000000  0.4660450000000  0.4103940000000 1.0
C      1  0.4569000000000  0.4786050000000  0.5295240000000 1.0
C      1  0.5304930000000  0.4767420000000  0.5222640000000 1.0
C      1  0.5117560000000  0.5480540000000  0.5176020000000 1.0
C      1  0.4173120000000  0.5128740000000  0.6133020000000 1.0
C      1  0.5308160000000  0.4199650000000  0.5999590000000 1.0
C      1  0.5599460000000  0.5704140000000  0.5947940000000 1.0
C      1  0.5185290000000  0.4763650000000  0.4572650000000 1.0
C      1  0.5191720000000  0.5413930000000  0.4480450000000 1.0
C      1  0.4480530000000  0.4967400000000  0.4642960000000 1.0
C      1  0.4973350000000  0.5246300000000  0.4515290000000 1.0
C      1  0.4713630000000  0.4820450000000  0.4590700000000 1.0
C      1  0.4957780000000  0.4972270000000  0.4534790000000 1.0
C      1  0.3879400000000  0.5134200000000  0.3820670000000 1.0
C      1  0.5769350000000  0.3022790000000  0.4375750000000 1.0
C      1  0.6639850000000  0.6483920000000  0.4495040000000 1.0
C      1  0.4473890000000  0.4244840000000  0.5654660000000 1.0
C      1  0.5943290000000  0.4937500000000  0.5499690000000 1.0
C      1  0.4515170000000  0.5810520000000  0.5615890000000 1.0
C      1  0.4653780000000  0.4648800000000  0.5994590000000 1.0
C      1  0.5536880000000  0.4864220000000  0.5911140000000 1.0
C      1  0.4874450000000  0.5533870000000  0.5975710000000 1.0
C      1  0.4380700000000  0.4912530000000  0.5751400000000 1.0
C      1  0.5408880000000  0.4522870000000  0.5651670000000 1.0
C      1  0.5237750000000  0.5581420000000  0.5642880000000 1.0
C      1  0.5936430000000  0.6263490000000  0.4664240000000 1.0
C      1  0.3819740000000  0.5009350000000  0.4541290000000 1.0
C      1  0.5744110000000  0.3684620000000  0.4746170000000 1.0
C      1  0.4816910000000  0.5837560000000  0.5569280000000 1.0
C      1  0.4263000000000  0.4449120000000  0.5713230000000 1.0
C      1  0.5874900000000  0.4655880000000  0.5593630000000 1.0
C      1  0.5529960000000  0.3621600000000  0.4171310000000 1.0
C      1  0.6224550000000  0.6061840000000  0.4148770000000 1.0
C      1  0.4193400000000  0.5593780000000  0.4269490000000 1.0
C      1  0.4604970000000  0.4821430000000  0.5569810000000 1.0
C      1  0.5355010000000  0.4774610000000  0.5496100000000 1.0
C      1  0.5158100000000  0.5399450000000  0.5440180000000 1.0
C      1  0.4604740000000  0.5658480000000  0.4512530000000 1.0
C      1  0.4437700000000  0.4300600000000  0.4480680000000 1.0
C      1  0.5813520000000  0.4904640000000  0.4048420000000 1.0
C      1  0.6031650000000  0.4947850000000  0.4205620000000 1.0
C      1  0.2945770000000  0.6142820000000  0.4833690000000 1.0
C      1  0.4450430000000  0.4016950000000  0.4467850000000 1.0
C      1  0.3322670000000  0.5805170000000  0.4976390000000 1.0
C      1  0.4780620000000  0.3653390000000  0.4644110000000 1.0
C      1  0.6211020000000  0.5245770000000  0.4609660000000 1.0
C      1  0.6128010000000  0.4243170000000  0.5560480000000 1.0
C      1  0.5097630000000  0.6757940000000  0.5308690000000 1.0
C      1  0.3780870000000  0.4566550000000  0.5706690000000 1.0
C      1  0.4064520000000  0.5338980000000  0.5490080000000 1.0
C      1  0.5090320000000  0.4102490000000  0.5365300000000 1.0
C      1  0.5759110000000  0.5538460000000  0.5307910000000 1.0
C      1  0.5728890000000  0.5134610000000  0.5568300000000 1.0
C      1  0.4411250000000  0.5602710000000  0.5781330000000 1.0
C      1  0.4755630000000  0.4337360000000  0.5648970000000 1.0
C      1  0.4671430000000  0.4659960000000  0.4110900000000 1.0
C      1  0.5287840000000  0.5039860000000  0.3934330000000 1.0
C      1  0.4624810000000  0.5413000000000  0.4088280000000 1.0
C      1  0.4316390000000  0.4694930000000  0.5178590000000 1.0
C      1  0.5435280000000  0.4566240000000  0.5058690000000 1.0
C      1  0.5218710000000  0.5675570000000  0.4992360000000 1.0
C      1  0.4589730000000  0.6172920000000  0.5333350000000 1.0
C      1  0.4209820000000  0.3898280000000  0.5399000000000 1.0
C      1  0.6276000000000  0.4760770000000  0.5154240000000 1.0
C      1  0.5886220000000  0.3840660000000  0.4956690000000 1.0
C      1  0.5679560000000  0.6362940000000  0.4789720000000 1.0
C      1  0.3754270000000  0.4715890000000  0.4774370000000 1.0
C      1  0.5513380000000  0.5571870000000  0.5724150000000 1.0
C      1  0.4263330000000  0.5142960000000  0.5873660000000 1.0
C      1  0.5245200000000  0.4316590000000  0.5759780000000 1.0
C      1  0.4493760000000  0.4425110000000  0.4746550000000 1.0
C      1  0.5485550000000  0.4847010000000  0.4635820000000 1.0
C      1  0.4795970000000  0.5729410000000  0.4740200000000 1.0
C      1  0.6119930000000  0.6490610000000  0.4627670000000 1.0
C      1  0.3782370000000  0.4888080000000  0.4288320000000 1.0
C      1  0.5895730000000  0.3440850000000  0.4687060000000 1.0
C      1  0.5040960000000  0.6981330000000  0.5430530000000 1.0
C      1  0.3587210000000  0.4660700000000  0.5853420000000 1.0
C      1  0.6294030000000  0.4073460000000  0.5667920000000 1.0
C      1  0.3825200000000  0.5011840000000  0.4044290000000 1.0
C      1  0.5827800000000  0.3232090000000  0.4519630000000 1.0
C      1  0.6385630000000  0.6484290000000  0.4552430000000 1.0
C      1  0.5048160000000  0.4622290000000  0.4836440000000 1.0
C      1  0.5401990000000  0.5364640000000  0.4671770000000 1.0
C      1  0.4433810000000  0.5030270000000  0.4912110000000 1.0
C      1  0.4995380000000  0.4099670000000  0.4394050000000 1.0
C      1  0.5797460000000  0.5454400000000  0.4222770000000 1.0
C      1  0.4107910000000  0.5848270000000  0.4868330000000 1.0
C      1  0.5115870000000  0.4746540000000  0.6167570000000 1.0
C      1  0.5247190000000  0.5203170000000  0.6119720000000 1.0
C      1  0.4790690000000  0.5090000000000  0.6176380000000 1.0
C      1  0.5626080000000  0.4656140000000  0.4850080000000 1.0
C      1  0.5020330000000  0.5863010000000  0.4889580000000 1.0
C      1  0.4323170000000  0.4462330000000  0.4987410000000 1.0
C      1  0.4360680000000  0.4662180000000  0.5913430000000 1.0
C      1  0.5653610000000  0.4614980000000  0.5798340000000 1.0
C      1  0.4995370000000  0.5690610000000  0.5755980000000 1.0
C      1  0.5490390000000  0.4997060000000  0.5649860000000 1.0
C      1  0.4591570000000  0.5562460000000  0.5998290000000 1.0
C      1  0.4761770000000  0.4615570000000  0.5719480000000 1.0
C      1  0.4452830000000  0.5371270000000  0.5275870000000 1.0
C      1  0.4740180000000  0.4228490000000  0.5093000000000 1.0
C      1  0.5584170000000  0.5158580000000  0.5075570000000 1.0
C      1  0.5303950000000  0.5402500000000  0.4217100000000 1.0
C      1  0.4436840000000  0.5179500000000  0.4468950000000 1.0
C      1  0.5094790000000  0.4567120000000  0.4345520000000 1.0
C      1  0.3698240000000  0.4617060000000  0.4317620000000 1.0
C      1  0.6129190000000  0.3455190000000  0.4855850000000 1.0
C      1  0.5970290000000  0.6722950000000  0.4706050000000 1.0
C      1  0.5208200000000  0.4393300000000  0.4958360000000 1.0
C      1  0.5467680000000  0.5574460000000  0.4873110000000 1.0
C      1  0.4201920000000  0.4971730000000  0.5098870000000 1.0
C      1  0.4978260000000  0.5297670000000  0.6103410000000 1.0
C      1  0.4832710000000  0.4807140000000  0.6153680000000 1.0
C      1  0.5331130000000  0.4926970000000  0.6099240000000 1.0
C      1  0.5809950000000  0.5048860000000  0.4987880000000 1.0
C      1  0.4495650000000  0.5571660000000  0.5091780000000 1.0
C      1  0.4602140000000  0.3999530000000  0.5111560000000 1.0
C      1  0.4875150000000  0.3663390000000  0.4911260000000 1.0
C      1  0.6159740000000  0.5346090000000  0.4871260000000 1.0
C      1  0.3516090000000  0.5637220000000  0.5043680000000 1.0
C      1  0.3680870000000  0.4529960000000  0.4576060000000 1.0
C      1  0.6123750000000  0.3683290000000  0.5010940000000 1.0
C      1  0.5720050000000  0.6652280000000  0.4796710000000 1.0
C      1  0.4850250000000  0.6036310000000  0.5331480000000 1.0
C      1  0.4116700000000  0.4020090000000  0.5177060000000 1.0
C      1  0.6152240000000  0.4641720000000  0.4940250000000 1.0
C      1  0.4305210000000  0.5766020000000  0.5028010000000 1.0
C      1  0.4666480000000  0.3739570000000  0.5087430000000 1.0
C      1  0.6065510000000  0.5147460000000  0.5057880000000 1.0
C      1  0.4118480000000  0.4289790000000  0.5102040000000 1.0
C      1  0.5885110000000  0.4544810000000  0.4947340000000 1.0
C      1  0.5010850000000  0.6073780000000  0.5090590000000 1.0
C      1  0.4548080000000  0.4912910000000  0.4069550000000 1.0
C      1  0.5125730000000  0.4809390000000  0.3925630000000 1.0
C      1  0.4882910000000  0.5388210000000  0.3968440000000 1.0
C      1  0.3835260000000  0.5289380000000  0.4901100000000 1.0
C      1  0.5313880000000  0.3879980000000  0.4822430000000 1.0
C      1  0.5936040000000  0.5792320000000  0.4759690000000 1.0
C      1  0.5445280000000  0.6261280000000  0.4908670000000 1.0
C      1  0.3784760000000  0.4627700000000  0.5051840000000 1.0
C      1  0.5828530000000  0.4080130000000  0.5086530000000 1.0
C      1  0.5310710000000  0.4161290000000  0.4811870000000 1.0
C      1  0.5656610000000  0.5764170000000  0.4769790000000 1.0
C      1  0.3938600000000  0.5048260000000  0.5005680000000 1.0
C      1  0.5577500000000  0.5256390000000  0.4252850000000 1.0
C      1  0.4460350000000  0.5424070000000  0.4610630000000 1.0
C      1  0.4930740000000  0.4358910000000  0.4474010000000 1.0
C      1  0.5586600000000  0.5435480000000  0.5107140000000 1.0
C      1  0.4240500000000  0.5191580000000  0.5313380000000 1.0
C      1  0.5010650000000  0.4271400000000  0.5150920000000 1.0
C      1  0.5157960000000  0.3841280000000  0.5276150000000 1.0
C      1  0.5999780000000  0.5650360000000  0.5211130000000 1.0
C      1  0.3840500000000  0.5449620000000  0.5361350000000 1.0
C      1  0.5545610000000  0.5133470000000  0.4546090000000 1.0
C      1  0.4724340000000  0.5524380000000  0.4939220000000 1.0
C      1  0.4783000000000  0.4537000000000  0.4698050000000 1.0
C      1  0.4511400000000  0.4458260000000  0.4246330000000 1.0
C      1  0.5561630000000  0.5038180000000  0.4041390000000 1.0
C      1  0.4499430000000  0.5640840000000  0.4231810000000 1.0
C      1  0.5402430000000  0.3755210000000  0.4371900000000 1.0
C      1  0.6061970000000  0.5918990000000  0.4315300000000 1.0
C      1  0.3991510000000  0.5535100000000  0.4482730000000 1.0
C      1  0.4907030000000  0.5061500000000  0.5057040000000 1.0
C      1  0.5036090000000  0.5171130000000  0.5531950000000 1.0
END
