TITL C-74081-2727-269 0.00423096500564684 125000 -189.20913336411 0 0 34 (C3v) n - 1
REM
REM in /home/nfs/bkarasulu/CARBON/AIRSS/Generating-Clusters/LCBOP/Higher-Symm/SD-CG/FIRE-CG
REM
REM
REM
REM
REM
REM ./C.cell (b20cbc046b6831c77cfcea5457e17084)
REM AIRSS Version 0.9.1 bugfix July 2018 build 013d7b7c2542+ Fri, 06 Jul 2018 19:26:36 +0100
REM compiler GCC version 9.2.1 20190827 (Red Hat 9.2.1-1)
REM options -cpp -mtune=generic -march=x86-64 -g -O0 -fpre-include=/usr/include/finclude/math-vector-fortran.h
REM seed 1493795839 -309219190 10757390 403002277 1674521685 -952137360 577073445 1498209372 -31322378 -1380243548 -1335033797 142741332 -1019173794 -1765575276 -1681672221 1803065499 1516147538 1137391598 -2087385573 -156116632 2069644549 1136925811 -1152767959 -1511030464 1091001740 -895749335 -1243116855 -1289335188 1077530707 -1520003873 1498651568 -450354045 -823504863
REM
CELL 1.54180   50.00000   50.00000   50.00000   90.00000   90.00000   90.00000
LATT -1
SFAC C  
C      1  0.4995390000000  0.4454000000000  0.4671360000000 1.0
C      1  0.4503310000000  0.5240360000000  0.4671370000000 1.0
C      1  0.5430360000000  0.5273330000000  0.4671380000000 1.0
C      1  0.5019330000000  0.3780400000000  0.5378970000000 1.0
C      1  0.3908000000000  0.5556380000000  0.5379000000000 1.0
C      1  0.6001710000000  0.5630840000000  0.5379020000000 1.0
C      1  0.4575720000000  0.5201930000000  0.4419170000000 1.0
C      1  0.5360870000000  0.5229850000000  0.4419170000000 1.0
C      1  0.4992480000000  0.4535930000000  0.4419150000000 1.0
C      1  0.5213500000000  0.5137630000000  0.4218720000000 1.0
C      1  0.4986300000000  0.4709680000000  0.4218710000000 1.0
C      1  0.4729280000000  0.5120410000000  0.4218720000000 1.0
C      1  0.5424110000000  0.5269410000000  0.4950810000000 1.0
C      1  0.4995120000000  0.4461360000000  0.4950790000000 1.0
C      1  0.4509820000000  0.5236900000000  0.4950810000000 1.0
C      1  0.4986350000000  0.4708000000000  0.5081770000000 1.0
C      1  0.4727810000000  0.5121160000000  0.5081780000000 1.0
C      1  0.5214890000000  0.5138480000000  0.5081790000000 1.0
C      1  0.5003550000000  0.4224330000000  0.5097930000000 1.0
C      1  0.4300340000000  0.5348100000000  0.5097950000000 1.0
C      1  0.5625160000000  0.5395220000000  0.5097970000000 1.0
C      1  0.4102570000000  0.5453090000000  0.5239590000000 1.0
C      1  0.5814970000000  0.5513980000000  0.5239610000000 1.0
C      1  0.5011500000000  0.4000560000000  0.5239570000000 1.0
C      1  0.4976350000000  0.4989200000000  0.6009140000000 1.0
C      1  0.4976350000000  0.4989210000000  0.5181170000000 1.0
C      1  0.4976350000000  0.4989200000000  0.5744150000000 1.0
C      1  0.4976340000000  0.4989200000000  0.6534910000000 1.0
C      1  0.4976360000000  0.4989250000000  0.3816510000000 1.0
C      1  0.4976360000000  0.4989240000000  0.4112390000000 1.0
C      1  0.4976360000000  0.4989260000000  0.3551660000000 1.0
C      1  0.4976340000000  0.4989200000000  0.6274210000000 1.0
C      1  0.4976370000000  0.4989260000000  0.3290960000000 1.0
C      1  0.4976350000000  0.4989210000000  0.5479400000000 1.0
END
