TITL C-74080-5790-456 -9.99699867556075e-09 125000 -183.430609807528 0 0 30 (C5v) n - 1
REM
REM in /home/nfs/bkarasulu/CARBON/AIRSS/Generating-Clusters/LCBOP/Higher-Symm/SD-CG/FIRE-CG
REM
REM
REM
REM
REM
REM ./C.cell (b20cbc046b6831c77cfcea5457e17084)
REM AIRSS Version 0.9.1 bugfix July 2018 build 013d7b7c2542+ Fri, 06 Jul 2018 19:26:36 +0100
REM compiler GCC version 9.2.1 20190827 (Red Hat 9.2.1-1)
REM options -cpp -mtune=generic -march=x86-64 -g -O0 -fpre-include=/usr/include/finclude/math-vector-fortran.h
REM seed -997671765 -2010512071 -512581406 1713312324 -1042732467 -172811546 1317805703 95146688 154337886 -899770597 1254414370 1329703452 -2102969932 1768150996 1328211433 1638685641 -68895055 -2103845379 -767491550 1935537560 1523420785 -270141613 -20506623 1186397572 -1173446236 -677053562 -1741585111 -2109871606 -1762090897 1672138628 676533306 232308259 -970568556
REM
CELL 1.54180   50.00000   50.00000   50.00000   90.00000   90.00000   90.00000
LATT -1
SFAC C  
C      1  0.4553400000000  0.5073490000000  0.4640740000000 1.0
C      1  0.4931820000000  0.5447430000000  0.4640730000000 1.0
C      1  0.5404400000000  0.5203090000000  0.4640650000000 1.0
C      1  0.5318060000000  0.4678130000000  0.4640610000000 1.0
C      1  0.4792110000000  0.4598030000000  0.4640660000000 1.0
C      1  0.5575480000000  0.5288900000000  0.5125390000000 1.0
C      1  0.5452620000000  0.4541970000000  0.5125330000000 1.0
C      1  0.4704280000000  0.4428000000000  0.5125410000000 1.0
C      1  0.4364640000000  0.5104500000000  0.5125510000000 1.0
C      1  0.4903070000000  0.5636560000000  0.5125500000000 1.0
C      1  0.5189310000000  0.5366290000000  0.4563850000000 1.0
C      1  0.5406790000000  0.4933120000000  0.4563790000000 1.0
C      1  0.5062030000000  0.4592440000000  0.4563790000000 1.0
C      1  0.4631480000000  0.4815050000000  0.4563860000000 1.0
C      1  0.4710150000000  0.5293310000000  0.4563900000000 1.0
C      1  0.4501350000000  0.5081990000000  0.5353500000000 1.0
C      1  0.4923950000000  0.5499600000000  0.5353490000000 1.0
C      1  0.5451700000000  0.5226730000000  0.5353410000000 1.0
C      1  0.5355270000000  0.4640480000000  0.5353360000000 1.0
C      1  0.4767920000000  0.4551030000000  0.5353420000000 1.0
C      1  0.5220760000000  0.5110770000000  0.5457530000000 1.0
C      1  0.5173640000000  0.4824290000000  0.5457510000000 1.0
C      1  0.4886630000000  0.4780580000000  0.5457540000000 1.0
C      1  0.4756360000000  0.5040040000000  0.5457580000000 1.0
C      1  0.4962870000000  0.5244110000000  0.5457570000000 1.0
C      1  0.5442260000000  0.4552450000000  0.4858980000000 1.0
C      1  0.4711000000000  0.4441080000000  0.4859050000000 1.0
C      1  0.4379110000000  0.5102140000000  0.4859150000000 1.0
C      1  0.4905250000000  0.5622060000000  0.4859140000000 1.0
C      1  0.5562310000000  0.5282330000000  0.4859040000000 1.0
END
