TITL C-74085-4933-143 -5.49977722777658e-09 125000 -470.700856959955 0 0 79 (C3) n - 1
REM
REM in /home/nfs/bkarasulu/CARBON/AIRSS/Generating-Clusters/LCBOP/Higher-Symm/SD-CG/FIRE-CG
REM
REM
REM
REM
REM
REM ./C.cell (b20cbc046b6831c77cfcea5457e17084)
REM AIRSS Version 0.9.1 bugfix July 2018 build 013d7b7c2542+ Fri, 06 Jul 2018 19:26:36 +0100
REM compiler GCC version 9.2.1 20190827 (Red Hat 9.2.1-1)
REM options -cpp -mtune=generic -march=x86-64 -g -O0 -fpre-include=/usr/include/finclude/math-vector-fortran.h
REM seed 415607246 -443308680 -149029104 392039681 1952130623 -41012610 851800724 51742203 -1650997735 111966873 1966327991 605156294 -526005497 502232901 -1406271133 -1275669881 -1641978349 820809761 651773741 1534364333 -1194882515 350572772 -721888449 1996782164 -1762457448 1294382631 -212512960 -1826288777 -779319380 1231883162 -945552810 -1443484749 -1750118184
REM
CELL 1.54180   50.00000   50.00000   50.00000   90.00000   90.00000   90.00000
LATT -1
SFAC C  
C      1  0.5666700000000  0.5113870000000  0.4831110000000 1.0
C      1  0.4808100000000  0.5113940000000  0.5655180000000 1.0
C      1  0.4523740000000  0.5113770000000  0.4499580000000 1.0
C      1  0.4340400000000  0.4742880000000  0.4830220000000 1.0
C      1  0.5186100000000  0.4743040000000  0.5648730000000 1.0
C      1  0.5472100000000  0.4742890000000  0.4507080000000 1.0
C      1  0.4930050000000  0.5016460000000  0.3896740000000 1.0
C      1  0.5985630000000  0.5016740000000  0.5484430000000 1.0
C      1  0.4082870000000  0.5016660000000  0.5604750000000 1.0
C      1  0.5175160000000  0.5151830000000  0.3952220000000 1.0
C      1  0.4008370000000  0.5151960000000  0.5364710000000 1.0
C      1  0.5815010000000  0.5152100000000  0.5668930000000 1.0
C      1  0.4945430000000  0.4485060000000  0.4293150000000 1.0
C      1  0.5634750000000  0.4485240000000  0.5299620000000 1.0
C      1  0.4418460000000  0.4485190000000  0.5393360000000 1.0
C      1  0.4961060000000  0.5587220000000  0.4431730000000 1.0
C      1  0.4530700000000  0.5587320000000  0.5310250000000 1.0
C      1  0.5506700000000  0.5587360000000  0.5243690000000 1.0
C      1  0.5130650000000  0.5188730000000  0.5263150000000 1.0
C      1  0.4701960000000  0.5188670000000  0.4974910000000 1.0
C      1  0.5165930000000  0.5188660000000  0.4747780000000 1.0
C      1  0.4863930000000  0.4757960000000  0.5266630000000 1.0
C      1  0.5302270000000  0.4757940000000  0.4977130000000 1.0
C      1  0.4832390000000  0.4757880000000  0.4742260000000 1.0
C      1  0.4594220000000  0.4694180000000  0.5311130000000 1.0
C      1  0.4928720000000  0.4694090000000  0.4486440000000 1.0
C      1  0.5475670000000  0.4694210000000  0.5188470000000 1.0
C      1  0.5341310000000  0.5360960000000  0.5202080000000 1.0
C      1  0.5007710000000  0.5360850000000  0.4595830000000 1.0
C      1  0.4649480000000  0.5360920000000  0.5187860000000 1.0
C      1  0.4691790000000  0.5114170000000  0.4009760000000 1.0
C      1  0.6006870000000  0.5114410000000  0.5221560000000 1.0
C      1  0.4299880000000  0.5114390000000  0.5754550000000 1.0
C      1  0.5385840000000  0.5003900000000  0.4065210000000 1.0
C      1  0.4000870000000  0.5003980000000  0.5125780000000 1.0
C      1  0.5611840000000  0.5004160000000  0.5794920000000 1.0
C      1  0.4924700000000  0.5736330000000  0.5582600000000 1.0
C      1  0.4528170000000  0.5736170000000  0.4636740000000 1.0
C      1  0.5545580000000  0.5736240000000  0.4766270000000 1.0
C      1  0.5259230000000  0.4169020000000  0.5373180000000 1.0
C      1  0.5196870000000  0.4168900000000  0.4581670000000 1.0
C      1  0.4542580000000  0.4168930000000  0.5031430000000 1.0
C      1  0.4428100000000  0.5508320000000  0.4739600000000 1.0
C      1  0.5506570000000  0.5508360000000  0.4628210000000 1.0
C      1  0.5063800000000  0.5508470000000  0.5617890000000 1.0
C      1  0.5338690000000  0.4340220000000  0.4731770000000 1.0
C      1  0.4601680000000  0.4340200000000  0.4833510000000 1.0
C      1  0.5058290000000  0.4340310000000  0.5420910000000 1.0
C      1  0.4192060000000  0.4536780000000  0.5548250000000 1.0
C      1  0.4924480000000  0.4536600000000  0.4019630000000 1.0
C      1  0.5882090000000  0.4536850000000  0.5418240000000 1.0
C      1  0.5662310000000  0.5596750000000  0.5476190000000 1.0
C      1  0.5084610000000  0.5596530000000  0.4180720000000 1.0
C      1  0.4251540000000  0.5596650000000  0.5328760000000 1.0
C      1  0.5023520000000  0.4230740000000  0.4385720000000 1.0
C      1  0.5515590000000  0.4230900000000  0.5321010000000 1.0
C      1  0.4459570000000  0.4230840000000  0.5279510000000 1.0
C      1  0.4761510000000  0.5769860000000  0.4507520000000 1.0
C      1  0.4696120000000  0.5769990000000  0.5445120000000 1.0
C      1  0.5540800000000  0.5769980000000  0.5032950000000 1.0
C      1  0.4592180000000  0.4621120000000  0.4803560000000 1.0
C      1  0.5369320000000  0.4621150000000  0.4738480000000 1.0
C      1  0.5037110000000  0.4621240000000  0.5444040000000 1.0
C      1  0.5444650000000  0.5246460000000  0.4723920000000 1.0
C      1  0.4541930000000  0.5246420000000  0.4745440000000 1.0
C      1  0.5011930000000  0.5246550000000  0.5516460000000 1.0
C      1  0.5883470000000  0.5112760000000  0.4985460000000 1.0
C      1  0.4566050000000  0.5112800000000  0.5765740000000 1.0
C      1  0.4549020000000  0.5112580000000  0.4234680000000 1.0
C      1  0.4129180000000  0.4860970000000  0.4941250000000 1.0
C      1  0.5387870000000  0.4861150000000  0.5776100000000 1.0
C      1  0.5481530000000  0.4860940000000  0.4268620000000 1.0
C      1  0.5785250000000  0.5430120000000  0.5645190000000 1.0
C      1  0.4043750000000  0.5429990000000  0.5350750000000 1.0
C      1  0.5169490000000  0.5429850000000  0.3989790000000 1.0
C      1  0.4036730000000  0.4740240000000  0.5625610000000 1.0
C      1  0.6026770000000  0.4740330000000  0.5514020000000 1.0
C      1  0.4935110000000  0.4740040000000  0.3846390000000 1.0
C      1  0.4999520000000  0.4962110000000  0.4995310000000 1.0
END
