TITL C-74086-5274-191 2.42102761643179e-07 125000 -358.693119102767 0 0 59 (C1) n - 1
REM
REM in /home/nfs/bkarasulu/CARBON/AIRSS/Generating-Clusters/LCBOP/Higher-Symm/SD-CG/FIRE-CG
REM
REM
REM
REM
REM
REM ./C.cell (b20cbc046b6831c77cfcea5457e17084)
REM AIRSS Version 0.9.1 bugfix July 2018 build 013d7b7c2542+ Fri, 06 Jul 2018 19:26:36 +0100
REM compiler GCC version 9.2.1 20190827 (Red Hat 9.2.1-1)
REM options -cpp -mtune=generic -march=x86-64 -g -O0 -fpre-include=/usr/include/finclude/math-vector-fortran.h
REM seed -1645888920 951642256 1285224576 1407667102 -320431203 -913009552 -269956549 1061334110 149014568 2034871123 725951588 1396342406 1052223333 -1255809174 1674162576 1668101209 -816877988 1177079906 -1802377362 533681882 961989220 81150075 1032268778 388396254 1910250859 414344907 -382831316 -548466863 -1146725368 -1718814179 -2070763466 1974190955 275211188
REM
CELL 1.54180   50.00000   50.00000   50.00000   90.00000   90.00000   90.00000
LATT -1
SFAC C  
C      1  0.4907820000000  0.5322270000000  0.4678910000000 1.0
C      1  0.4931910000000  0.4564380000000  0.4877050000000 1.0
C      1  0.4842770000000  0.5118630000000  0.5452650000000 1.0
C      1  0.4470460000000  0.5074790000000  0.4747970000000 1.0
C      1  0.4512150000000  0.4634160000000  0.5098640000000 1.0
C      1  0.4438120000000  0.5198040000000  0.5189080000000 1.0
C      1  0.4999030000000  0.4201940000000  0.4592230000000 1.0
C      1  0.4962240000000  0.5045500000000  0.5902400000000 1.0
C      1  0.4984260000000  0.5757910000000  0.4527180000000 1.0
C      1  0.5589860000000  0.4601090000000  0.5206590000000 1.0
C      1  0.5528670000000  0.5342970000000  0.5274770000000 1.0
C      1  0.5573200000000  0.5039810000000  0.4522380000000 1.0
C      1  0.5026350000000  0.5884690000000  0.4762400000000 1.0
C      1  0.5016840000000  0.4342450000000  0.4361350000000 1.0
C      1  0.5024560000000  0.4783460000000  0.5907230000000 1.0
C      1  0.4981370000000  0.4164540000000  0.5119910000000 1.0
C      1  0.4948340000000  0.5515160000000  0.5692210000000 1.0
C      1  0.4955250000000  0.5338160000000  0.4211430000000 1.0
C      1  0.5328090000000  0.6021950000000  0.5123320000000 1.0
C      1  0.5283030000000  0.4586150000000  0.4031340000000 1.0
C      1  0.5314510000000  0.4391180000000  0.5854720000000 1.0
C      1  0.4548910000000  0.4744820000000  0.5355070000000 1.0
C      1  0.4589090000000  0.5408470000000  0.5052300000000 1.0
C      1  0.4576660000000  0.4829310000000  0.4657420000000 1.0
C      1  0.5170200000000  0.4701190000000  0.4923000000000 1.0
C      1  0.5077330000000  0.5087930000000  0.5301660000000 1.0
C      1  0.5150210000000  0.5211590000000  0.4762720000000 1.0
C      1  0.5534090000000  0.4424540000000  0.5683870000000 1.0
C      1  0.5536070000000  0.5845820000000  0.5189120000000 1.0
C      1  0.5509410000000  0.4717880000000  0.4131190000000 1.0
C      1  0.5054370000000  0.4575440000000  0.4201630000000 1.0
C      1  0.5075810000000  0.4530970000000  0.5787910000000 1.0
C      1  0.5081940000000  0.5903780000000  0.5041210000000 1.0
C      1  0.4660130000000  0.4572930000000  0.5546070000000 1.0
C      1  0.4681670000000  0.5651610000000  0.5142260000000 1.0
C      1  0.4662670000000  0.4788530000000  0.4395770000000 1.0
C      1  0.5279620000000  0.4474250000000  0.3782300000000 1.0
C      1  0.5327430000000  0.4230600000000  0.6075210000000 1.0
C      1  0.5357890000000  0.6292860000000  0.5138500000000 1.0
C      1  0.4979750000000  0.5708650000000  0.5505580000000 1.0
C      1  0.4954830000000  0.5074520000000  0.4147560000000 1.0
C      1  0.4971370000000  0.4243140000000  0.5379320000000 1.0
C      1  0.5614650000000  0.4880930000000  0.4313090000000 1.0
C      1  0.5633120000000  0.4504110000000  0.5450350000000 1.0
C      1  0.5607210000000  0.5594940000000  0.5241910000000 1.0
C      1  0.4889330000000  0.4809790000000  0.4230080000000 1.0
C      1  0.4902730000000  0.4432400000000  0.5581190000000 1.0
C      1  0.4915250000000  0.5775150000000  0.5237000000000 1.0
C      1  0.5417350000000  0.4680140000000  0.5020460000000 1.0
C      1  0.5332060000000  0.5164410000000  0.5284100000000 1.0
C      1  0.5399390000000  0.5151170000000  0.4689980000000 1.0
C      1  0.4667330000000  0.4659550000000  0.4865710000000 1.0
C      1  0.4587740000000  0.5028750000000  0.5364660000000 1.0
C      1  0.4656430000000  0.5292640000000  0.4795950000000 1.0
C      1  0.4965270000000  0.4280270000000  0.4861600000000 1.0
C      1  0.4893680000000  0.5237720000000  0.5707640000000 1.0
C      1  0.4935900000000  0.5490560000000  0.4449410000000 1.0
C      1  0.4019790000000  0.5001880000000  0.4973630000000 1.0
C      1  0.4279930000000  0.5077250000000  0.4971170000000 1.0
END
