TITL C-74085-4933-273 -64.9751084631098 125000 -873.807124248978 0 0 145 (C1) n - 1
REM
REM in /home/nfs/bkarasulu/CARBON/AIRSS/Generating-Clusters/LCBOP/Higher-Symm/SD-CG/FIRE-CG
REM
REM
REM
REM
REM
REM ./C.cell (b20cbc046b6831c77cfcea5457e17084)
REM AIRSS Version 0.9.1 bugfix July 2018 build 013d7b7c2542+ Fri, 06 Jul 2018 19:26:36 +0100
REM compiler GCC version 9.2.1 20190827 (Red Hat 9.2.1-1)
REM options -cpp -mtune=generic -march=x86-64 -g -O0 -fpre-include=/usr/include/finclude/math-vector-fortran.h
REM seed -123509785 869847843 1949389876 985137637 1975427511 -1661248544 1878807880 -182244411 1607303018 -877718185 -744906386 1783840567 343935780 1067299041 1556035668 -1155683430 1178997523 1362612005 -1715861279 -438617402 -917591164 109582759 523687685 984950467 140958292 8418411 -734107207 87203094 -1911266758 -406859326 -1418706096 -481053584 770310175
REM
CELL 1.54180   50.00000   50.00000   50.00000   90.00000   90.00000   90.00000
LATT -1
SFAC C  
C      1  0.4958120000000  0.6056230000000  0.4650960000000 1.0
C      1  0.4096150000000  0.4454910000000  0.4589810000000 1.0
C      1  0.5895720000000  0.4452290000000  0.4575690000000 1.0
C      1  0.5547290000000  0.4093080000000  0.4757220000000 1.0
C      1  0.5443580000000  0.5937320000000  0.4711770000000 1.0
C      1  0.3995120000000  0.4959110000000  0.4738280000000 1.0
C      1  0.5144410000000  0.5663180000000  0.4951620000000 1.0
C      1  0.4348200000000  0.4716400000000  0.4956200000000 1.0
C      1  0.5490560000000  0.4553540000000  0.4870460000000 1.0
C      1  0.4624940000000  0.4283050000000  0.5551250000000 1.0
C      1  0.5793690000000  0.5138530000000  0.5550160000000 1.0
C      1  0.4558970000000  0.5645990000000  0.5563290000000 1.0
C      1  0.4819130000000  0.4439430000000  0.4446260000000 1.0
C      1  0.5594270000000  0.5068490000000  0.4538350000000 1.0
C      1  0.4435690000000  0.5628560000000  0.4368410000000 1.0
C      1  0.4545640000000  0.5128600000000  0.4128620000000 1.0
C      1  0.5185190000000  0.4382280000000  0.4054420000000 1.0
C      1  0.5430220000000  0.5309090000000  0.4136750000000 1.0
C      1  0.4659300000000  0.5710840000000  0.4845280000000 1.0
C      1  0.4475870000000  0.4266060000000  0.4817370000000 1.0
C      1  0.6136560000000  0.4868080000000  0.4674460000000 1.0
C      1  0.5029910000000  0.5248130000000  0.4835290000000 1.0
C      1  0.4723540000000  0.4901580000000  0.4771080000000 1.0
C      1  0.5326520000000  0.4935600000000  0.4639040000000 1.0
C      1  0.5369250000000  0.4314380000000  0.4273600000000 1.0
C      1  0.5465980000000  0.5548410000000  0.4280980000000 1.0
C      1  0.4291040000000  0.5145450000000  0.4259360000000 1.0
C      1  0.5117980000000  0.6161800000000  0.5082770000000 1.0
C      1  0.3907180000000  0.4528970000000  0.5026460000000 1.0
C      1  0.5934400000000  0.4354840000000  0.5043600000000 1.0
C      1  0.4588920000000  0.5054310000000  0.5747420000000 1.0
C      1  0.5166090000000  0.4589590000000  0.5746220000000 1.0
C      1  0.5227430000000  0.5308000000000  0.5824420000000 1.0
C      1  0.4762440000000  0.5180390000000  0.4768600000000 1.0
C      1  0.4893210000000  0.4733940000000  0.4927780000000 1.0
C      1  0.5273700000000  0.5083440000000  0.4911020000000 1.0
C      1  0.4615110000000  0.5766620000000  0.5110400000000 1.0
C      1  0.4551050000000  0.4277130000000  0.5083290000000 1.0
C      1  0.6188880000000  0.5005100000000  0.4899830000000 1.0
C      1  0.4736290000000  0.5883610000000  0.4632580000000 1.0
C      1  0.4352380000000  0.4314630000000  0.4571970000000 1.0
C      1  0.5948050000000  0.4731690000000  0.4510770000000 1.0
C      1  0.6017470000000  0.4803640000000  0.5301310000000 1.0
C      1  0.4727680000000  0.6062350000000  0.5418770000000 1.0
C      1  0.4187890000000  0.4256860000000  0.5357540000000 1.0
C      1  0.4100580000000  0.5083640000000  0.4468560000000 1.0
C      1  0.5432750000000  0.4117070000000  0.4477780000000 1.0
C      1  0.5458790000000  0.5759290000000  0.4467200000000 1.0
C      1  0.4473000000000  0.4798110000000  0.4717680000000 1.0
C      1  0.5412040000000  0.4651650000000  0.4626920000000 1.0
C      1  0.5096600000000  0.5500550000000  0.4720790000000 1.0
C      1  0.4945510000000  0.4847820000000  0.5206470000000 1.0
C      1  0.5224330000000  0.4940970000000  0.5184920000000 1.0
C      1  0.4798890000000  0.5091760000000  0.5265940000000 1.0
C      1  0.5192800000000  0.6078040000000  0.4811860000000 1.0
C      1  0.3964370000000  0.4649540000000  0.4767160000000 1.0
C      1  0.5810230000000  0.4269380000000  0.4792860000000 1.0
C      1  0.4327640000000  0.5021120000000  0.5620480000000 1.0
C      1  0.5350370000000  0.4508580000000  0.5542290000000 1.0
C      1  0.5328140000000  0.5531730000000  0.5691170000000 1.0
C      1  0.5268030000000  0.4801460000000  0.5915730000000 1.0
C      1  0.4953930000000  0.5329370000000  0.5911760000000 1.0
C      1  0.4736460000000  0.4835340000000  0.5875280000000 1.0
C      1  0.5028610000000  0.5452510000000  0.4436410000000 1.0
C      1  0.4404000000000  0.4777490000000  0.4449320000000 1.0
C      1  0.5455030000000  0.4574120000000  0.4353460000000 1.0
C      1  0.4758740000000  0.4400180000000  0.5295620000000 1.0
C      1  0.5564390000000  0.5171890000000  0.5380630000000 1.0
C      1  0.4625730000000  0.5519150000000  0.5284630000000 1.0
C      1  0.4483840000000  0.5962950000000  0.5268060000000 1.0
C      1  0.4391590000000  0.4076680000000  0.5233930000000 1.0
C      1  0.6107290000000  0.5054410000000  0.5166410000000 1.0
C      1  0.5559070000000  0.5361990000000  0.5178840000000 1.0
C      1  0.4471520000000  0.5338380000000  0.5095830000000 1.0
C      1  0.5024110000000  0.4343400000000  0.5160750000000 1.0
C      1  0.5515820000000  0.5268010000000  0.4927890000000 1.0
C      1  0.4546140000000  0.5407640000000  0.4801090000000 1.0
C      1  0.4978650000000  0.4458840000000  0.4896980000000 1.0
C      1  0.3708240000000  0.4218750000000  0.5335730000000 1.0
C      1  0.6325810000000  0.4434470000000  0.5307970000000 1.0
C      1  0.4953150000000  0.6488090000000  0.5396800000000 1.0
C      1  0.5300580000000  0.5039260000000  0.5745810000000 1.0
C      1  0.4771180000000  0.5275510000000  0.5695460000000 1.0
C      1  0.4890570000000  0.4667270000000  0.5689260000000 1.0
C      1  0.4827130000000  0.3808280000000  0.5103110000000 1.0
C      1  0.6043320000000  0.5596240000000  0.5071830000000 1.0
C      1  0.4022610000000  0.5605710000000  0.5175270000000 1.0
C      1  0.5127150000000  0.4812050000000  0.6160380000000 1.0
C      1  0.4870800000000  0.5204570000000  0.6153520000000 1.0
C      1  0.4864490000000  0.4918520000000  0.6130840000000 1.0
C      1  0.4927390000000  0.4301230000000  0.4666190000000 1.0
C      1  0.5683170000000  0.5271950000000  0.4701630000000 1.0
C      1  0.4331690000000  0.5487000000000  0.4595350000000 1.0
C      1  0.5357310000000  0.3959060000000  0.4986060000000 1.0
C      1  0.5672930000000  0.5929370000000  0.4889490000000 1.0
C      1  0.3984360000000  0.5123930000000  0.4999100000000 1.0
C      1  0.4746220000000  0.4008820000000  0.5542530000000 1.0
C      1  0.5897190000000  0.5406890000000  0.5530260000000 1.0
C      1  0.4276750000000  0.5581760000000  0.5569150000000 1.0
C      1  0.5756340000000  0.4901600000000  0.4369370000000 1.0
C      1  0.4677640000000  0.5773620000000  0.4375010000000 1.0
C      1  0.4547930000000  0.4377080000000  0.4359770000000 1.0
C      1  0.5276830000000  0.4386790000000  0.5292910000000 1.0
C      1  0.5496020000000  0.5617860000000  0.5280100000000 1.0
C      1  0.4522600000000  0.5075950000000  0.5188940000000 1.0
C      1  0.4607170000000  0.3881540000000  0.5299450000000 1.0
C      1  0.6053360000000  0.5389080000000  0.5276330000000 1.0
C      1  0.4184640000000  0.5772090000000  0.5353530000000 1.0
C      1  0.5055570000000  0.5613060000000  0.5468860000000 1.0
C      1  0.4314700000000  0.4749810000000  0.5477700000000 1.0
C      1  0.5557860000000  0.4718720000000  0.5504540000000 1.0
C      1  0.3964630000000  0.5669350000000  0.4908440000000 1.0
C      1  0.4809060000000  0.3821260000000  0.4822380000000 1.0
C      1  0.6113550000000  0.5507510000000  0.4811710000000 1.0
C      1  0.5071890000000  0.4928000000000  0.4470780000000 1.0
C      1  0.4978410000000  0.5180150000000  0.4357760000000 1.0
C      1  0.4959350000000  0.4673110000000  0.4352780000000 1.0
C      1  0.5034430000000  0.3951930000000  0.5486130000000 1.0
C      1  0.5585370000000  0.5593240000000  0.5560020000000 1.0
C      1  0.4187130000000  0.5279710000000  0.5508830000000 1.0
C      1  0.5102730000000  0.3879060000000  0.5204330000000 1.0
C      1  0.5867900000000  0.5823970000000  0.5048560000000 1.0
C      1  0.4033040000000  0.5309120000000  0.5235590000000 1.0
C      1  0.4432500000000  0.4607810000000  0.4238160000000 1.0
C      1  0.5549990000000  0.4799810000000  0.4187760000000 1.0
C      1  0.4907520000000  0.5648530000000  0.4272120000000 1.0
C      1  0.5221930000000  0.5684520000000  0.5224830000000 1.0
C      1  0.4377050000000  0.4834800000000  0.5204710000000 1.0
C      1  0.5475750000000  0.4431080000000  0.5102960000000 1.0
C      1  0.4834750000000  0.4664340000000  0.5411140000000 1.0
C      1  0.5369940000000  0.4967570000000  0.5448060000000 1.0
C      1  0.4861800000000  0.5351690000000  0.5402620000000 1.0
C      1  0.4800440000000  0.5823970000000  0.5578720000000 1.0
C      1  0.4348910000000  0.4444540000000  0.5533960000000 1.0
C      1  0.5829400000000  0.4848120000000  0.5512990000000 1.0
C      1  0.5367920000000  0.5019220000000  0.4065700000000 1.0
C      1  0.4847140000000  0.5101190000000  0.4105410000000 1.0
C      1  0.5048280000000  0.4639550000000  0.4072790000000 1.0
C      1  0.3937230000000  0.4336450000000  0.5238510000000 1.0
C      1  0.6085250000000  0.4533230000000  0.5214210000000 1.0
C      1  0.4932490000000  0.6231320000000  0.5297030000000 1.0
C      1  0.4899950000000  0.4021150000000  0.4667490000000 1.0
C      1  0.5924890000000  0.5401140000000  0.4652510000000 1.0
C      1  0.4079660000000  0.5574390000000  0.4686240000000 1.0
C      1  0.5079700000000  0.4924560000000  0.3990400000000 1.0
END
