TITL C-74081-2727-28 -6.34501009509495e-07 125000 -7.76135469533816 0 0 6 (Oh) n - 1
REM
REM in /home/nfs/bkarasulu/CARBON/AIRSS/Generating-Clusters/LCBOP/Higher-Symm/SD-CG/FIRE-CG
REM
REM
REM
REM
REM
REM ./C.cell (b20cbc046b6831c77cfcea5457e17084)
REM AIRSS Version 0.9.1 bugfix July 2018 build 013d7b7c2542+ Fri, 06 Jul 2018 19:26:36 +0100
REM compiler GCC version 9.2.1 20190827 (Red Hat 9.2.1-1)
REM options -cpp -mtune=generic -march=x86-64 -g -O0 -fpre-include=/usr/include/finclude/math-vector-fortran.h
REM seed 1060279373 -149806414 -255589866 -878710642 -1280013382 -1391187479 -1005380102 254390512 1908376793 -1224805839 -1074054918 82858269 -1791439057 483370750 -809836160 -904289320 -1354380209 1006985720 -1118263750 1670519904 -1654315446 848571808 277004750 2088743577 572632131 -1465034952 -462262385 -451711490 769276420 -48468246 1080037998 -1497486074 185762608
REM
CELL 1.54180   50.00000   50.00000   50.00000   90.00000   90.00000   90.00000
LATT -1
SFAC C  
C      1  0.5010400000000  0.4747020000000  0.5013280000000 1.0
C      1  0.5010400000000  0.5261410000000  0.5013280000000 1.0
C      1  0.4753210000000  0.5004210000000  0.5013280000000 1.0
C      1  0.5010400000000  0.5004210000000  0.5270480000000 1.0
C      1  0.5010400000000  0.5004210000000  0.4756090000000 1.0
C      1  0.5267590000000  0.5004210000000  0.5013280000000 1.0
END
