TITL C-74082-2733-31 0.0145149179522725 125000 -296.470021477559 0 0 49 (C1) n - 1
REM
REM in /home/nfs/bkarasulu/CARBON/AIRSS/Generating-Clusters/LCBOP/Higher-Symm/SD-CG/FIRE-CG
REM
REM
REM
REM
REM
REM ./C.cell (b20cbc046b6831c77cfcea5457e17084)
REM AIRSS Version 0.9.1 bugfix July 2018 build 013d7b7c2542+ Fri, 06 Jul 2018 19:26:36 +0100
REM compiler GCC version 9.2.1 20190827 (Red Hat 9.2.1-1)
REM options -cpp -mtune=generic -march=x86-64 -g -O0 -fpre-include=/usr/include/finclude/math-vector-fortran.h
REM seed 1781058253 635664257 -133961968 -13157039 -1377000308 623222573 1719290948 -545378432 990732472 294606916 -616494862 -2106826482 782358591 -699711154 -1088553584 1358039423 1382983227 -1682055571 -930177271 -1566966519 1417078077 -1251271051 1786251110 -1654353292 -283674127 2090296792 -1771222567 824000548 1060736289 -1135626941 1901743885 1001104153 1260462242
REM
CELL 1.54180   50.00000   50.00000   50.00000   90.00000   90.00000   90.00000
LATT -1
SFAC C  
C      1  0.5825510000000  0.4652460000000  0.4470670000000 1.0
C      1  0.5258600000000  0.4365150000000  0.5012700000000 1.0
C      1  0.4628830000000  0.5585560000000  0.4630210000000 1.0
C      1  0.5335290000000  0.5158050000000  0.4164340000000 1.0
C      1  0.5831180000000  0.4488620000000  0.4679630000000 1.0
C      1  0.5724390000000  0.4837190000000  0.4309040000000 1.0
C      1  0.4572590000000  0.5118840000000  0.5030360000000 1.0
C      1  0.5140240000000  0.4655150000000  0.6361810000000 1.0
C      1  0.4800300000000  0.5674320000000  0.4148350000000 1.0
C      1  0.4875180000000  0.4822730000000  0.4249940000000 1.0
C      1  0.4570190000000  0.5583190000000  0.4005950000000 1.0
C      1  0.4922930000000  0.5065620000000  0.6148390000000 1.0
C      1  0.5630990000000  0.4902260000000  0.5821290000000 1.0
C      1  0.4994800000000  0.5212370000000  0.5920270000000 1.0
C      1  0.5165840000000  0.4584960000000  0.5547240000000 1.0
C      1  0.5243080000000  0.5678480000000  0.3949020000000 1.0
C      1  0.4809050000000  0.5273460000000  0.5721250000000 1.0
C      1  0.3988400000000  0.5010640000000  0.4742850000000 1.0
C      1  0.5575200000000  0.4409990000000  0.5368410000000 1.0
C      1  0.4592090000000  0.5698520000000  0.5145940000000 1.0
C      1  0.4979380000000  0.4861790000000  0.6310710000000 1.0
C      1  0.4558230000000  0.5310470000000  0.4576390000000 1.0
C      1  0.5440180000000  0.4528040000000  0.5585400000000 1.0
C      1  0.4520900000000  0.4560890000000  0.4484110000000 1.0
C      1  0.5077670000000  0.5268610000000  0.4160700000000 1.0
C      1  0.5519680000000  0.4501430000000  0.6065720000000 1.0
C      1  0.4703000000000  0.5301200000000  0.5464640000000 1.0
C      1  0.4856730000000  0.5102390000000  0.4238190000000 1.0
C      1  0.4251850000000  0.4945470000000  0.4712380000000 1.0
C      1  0.4750210000000  0.5733050000000  0.4420840000000 1.0
C      1  0.4633230000000  0.5553990000000  0.5365550000000 1.0
C      1  0.4587710000000  0.5701920000000  0.4880280000000 1.0
C      1  0.4684400000000  0.5080180000000  0.5284590000000 1.0
C      1  0.4793560000000  0.4830670000000  0.5347370000000 1.0
C      1  0.4464000000000  0.5348400000000  0.4095730000000 1.0
C      1  0.4458530000000  0.5132490000000  0.4775090000000 1.0
C      1  0.5507170000000  0.5138340000000  0.5839920000000 1.0
C      1  0.4741600000000  0.4610300000000  0.4341690000000 1.0
C      1  0.5563850000000  0.4628850000000  0.5819280000000 1.0
C      1  0.5730840000000  0.4381760000000  0.4901230000000 1.0
C      1  0.5268890000000  0.5253390000000  0.5873330000000 1.0
C      1  0.5349530000000  0.4515970000000  0.6271540000000 1.0
C      1  0.5031900000000  0.4475030000000  0.5106440000000 1.0
C      1  0.4603310000000  0.5218380000000  0.4307940000000 1.0
C      1  0.4978860000000  0.4623360000000  0.5340520000000 1.0
C      1  0.5046180000000  0.5544190000000  0.4083370000000 1.0
C      1  0.5529620000000  0.4365800000000  0.5093240000000 1.0
C      1  0.5552550000000  0.5012570000000  0.4208420000000 1.0
C      1  0.4331770000000  0.4693520000000  0.4617710000000 1.0
END
