TITL C-74086-5274-423 0.081794606663542 125000 -258.714549332318 0 0 44 (C1) n - 1
REM
REM in /home/nfs/bkarasulu/CARBON/AIRSS/Generating-Clusters/LCBOP/Higher-Symm/SD-CG/FIRE-CG
REM
REM
REM
REM
REM
REM ./C.cell (b20cbc046b6831c77cfcea5457e17084)
REM AIRSS Version 0.9.1 bugfix July 2018 build 013d7b7c2542+ Fri, 06 Jul 2018 19:26:36 +0100
REM compiler GCC version 9.2.1 20190827 (Red Hat 9.2.1-1)
REM options -cpp -mtune=generic -march=x86-64 -g -O0 -fpre-include=/usr/include/finclude/math-vector-fortran.h
REM seed 128425324 135836463 1576571821 1746196311 109156048 556634976 1505799986 -1972100163 -1040286922 -2139466107 -1894882121 -1447715939 2036706647 -1043842080 -1064675092 -1811561723 -1239383774 770592066 306435069 531672918 -1636846176 1851162236 186421049 929940215 173340238 1592860621 -1631512458 2122268136 927266186 -907652242 376238645 -1899724847 626596831
REM
CELL 1.54180   50.00000   50.00000   50.00000   90.00000   90.00000   90.00000
LATT -1
SFAC C  
C      1  0.4478110000000  0.5373760000000  0.4871060000000 1.0
C      1  0.5724830000000  0.5233440000000  0.4778990000000 1.0
C      1  0.4240190000000  0.4570420000000  0.5325570000000 1.0
C      1  0.5646900000000  0.4982630000000  0.4880660000000 1.0
C      1  0.5165670000000  0.6236200000000  0.5141580000000 1.0
C      1  0.5048980000000  0.5318830000000  0.4915360000000 1.0
C      1  0.4632160000000  0.5458500000000  0.5092730000000 1.0
C      1  0.5201400000000  0.5362780000000  0.4692820000000 1.0
C      1  0.4664590000000  0.4941600000000  0.6124700000000 1.0
C      1  0.5313270000000  0.4613900000000  0.4812690000000 1.0
C      1  0.4475190000000  0.4701610000000  0.4582850000000 1.0
C      1  0.5736740000000  0.5499000000000  0.4787470000000 1.0
C      1  0.5012770000000  0.5784720000000  0.5070430000000 1.0
C      1  0.4563840000000  0.4903750000000  0.5596180000000 1.0
C      1  0.4613170000000  0.4922800000000  0.5869910000000 1.0
C      1  0.4146200000000  0.4370060000000  0.4834760000000 1.0
C      1  0.5713700000000  0.4937860000000  0.5157280000000 1.0
C      1  0.5513930000000  0.4854960000000  0.5340200000000 1.0
C      1  0.5384880000000  0.4499830000000  0.5065260000000 1.0
C      1  0.5462670000000  0.5906230000000  0.4953760000000 1.0
C      1  0.5561970000000  0.4794610000000  0.4434450000000 1.0
C      1  0.4900200000000  0.5533900000000  0.5030230000000 1.0
C      1  0.5318270000000  0.4659110000000  0.5294550000000 1.0
C      1  0.5212770000000  0.5980830000000  0.5056960000000 1.0
C      1  0.5644740000000  0.5738650000000  0.4856860000000 1.0
C      1  0.4604270000000  0.5316660000000  0.5334950000000 1.0
C      1  0.5024870000000  0.4621660000000  0.4777730000000 1.0
C      1  0.5972150000000  0.4969310000000  0.5242610000000 1.0
C      1  0.5607410000000  0.4804780000000  0.4173660000000 1.0
C      1  0.4923650000000  0.4956560000000  0.5259030000000 1.0
C      1  0.5506100000000  0.4797270000000  0.4708300000000 1.0
C      1  0.4302060000000  0.4511310000000  0.4649520000000 1.0
C      1  0.4162650000000  0.4446260000000  0.5104130000000 1.0
C      1  0.4506190000000  0.5169390000000  0.4698690000000 1.0
C      1  0.4373570000000  0.4724390000000  0.5495780000000 1.0
C      1  0.4632610000000  0.4919660000000  0.4660160000000 1.0
C      1  0.5651740000000  0.4816960000000  0.3917050000000 1.0
C      1  0.4971260000000  0.5054530000000  0.4989180000000 1.0
C      1  0.4891560000000  0.4876230000000  0.4775070000000 1.0
C      1  0.4707300000000  0.5065280000000  0.5412060000000 1.0
C      1  0.4881380000000  0.4476710000000  0.5214730000000 1.0
C      1  0.4885590000000  0.4431050000000  0.4944060000000 1.0
C      1  0.3983980000000  0.4165090000000  0.4755690000000 1.0
C      1  0.5034550000000  0.4696890000000  0.5320300000000 1.0
END
