TITL C-950531-5884-620 2.63367474115584e-05 125000 -251.017030489198 0 0 43 (C1) n - 1
REM
REM in /home/bkarasulu/work/CARBON/AIRSS/Generating-Clusters/EDIP-Nigel-Params/with-SteepDescent/Only-C1/SD-CG/HFTN-CG
REM
REM
REM
REM
REM
REM ./C.cell (11c1c37f851c82e70ff6c80c92926a4b)
REM
REM compiler GCC version 9.2.1 20190827 (Red Hat 9.2.1-1)
REM options -cpp -mtune=generic -march=x86-64 -g -O0 -fpre-include=/usr/include/finclude/math-vector-fortran.h
REM seed 1847688731 -1763152696 1272708531 -1506572814 1698354987 2006989493 -415470242 -58725568 -1402220331 -1424963829 -1633384609 -1022683017 2043251342 -170619537 1570337054 -1532362905 2027123682 172404496 145734384 -870786978 -1843256863 1801485941 1288896319 -1609676051 -702781182 -595065071 -440304676 -188690027 -7009690 -1410429781 1669918816 -1298683291 1725098207
REM
CELL 1.54180   50.00000   50.00000   50.00000   90.00000   90.00000   90.00000
LATT -1
SFAC C  
C      1  0.5262670000000  0.5245160000000  0.4884890000000 1.0
C      1  0.4694590000000  0.5088090000000  0.4509430000000 1.0
C      1  0.4934670000000  0.4860940000000  0.4482510000000 1.0
C      1  0.5143010000000  0.5672230000000  0.4843520000000 1.0
C      1  0.5670340000000  0.4346920000000  0.5005330000000 1.0
C      1  0.4370460000000  0.5349630000000  0.5000010000000 1.0
C      1  0.4702650000000  0.5003670000000  0.5348770000000 1.0
C      1  0.4607530000000  0.5304190000000  0.4697830000000 1.0
C      1  0.4495750000000  0.4872500000000  0.4494560000000 1.0
C      1  0.4629020000000  0.4440070000000  0.4623410000000 1.0
C      1  0.5080060000000  0.5179410000000  0.5590420000000 1.0
C      1  0.5078900000000  0.5569510000000  0.4582340000000 1.0
C      1  0.5366890000000  0.5107760000000  0.5560190000000 1.0
C      1  0.5355860000000  0.4874510000000  0.5384250000000 1.0
C      1  0.5125800000000  0.5286080000000  0.4622940000000 1.0
C      1  0.5044530000000  0.4718480000000  0.4731470000000 1.0
C      1  0.5355370000000  0.5515600000000  0.4978700000000 1.0
C      1  0.4417140000000  0.5072240000000  0.4943410000000 1.0
C      1  0.5618920000000  0.4581790000000  0.5095300000000 1.0
C      1  0.5497330000000  0.5062000000000  0.4832830000000 1.0
C      1  0.4458260000000  0.4848700000000  0.5381340000000 1.0
C      1  0.4731050000000  0.4425510000000  0.5338080000000 1.0
C      1  0.5006190000000  0.5333470000000  0.5336910000000 1.0
C      1  0.5107540000000  0.4710120000000  0.5433990000000 1.0
C      1  0.4658090000000  0.4635370000000  0.4421590000000 1.0
C      1  0.4406510000000  0.4827560000000  0.4778160000000 1.0
C      1  0.5331390000000  0.4734820000000  0.4732350000000 1.0
C      1  0.4522440000000  0.4586680000000  0.5395320000000 1.0
C      1  0.4606990000000  0.5498390000000  0.5094120000000 1.0
C      1  0.4828940000000  0.4981580000000  0.5073400000000 1.0
C      1  0.5603640000000  0.4821490000000  0.5236100000000 1.0
C      1  0.4591420000000  0.4600310000000  0.4857350000000 1.0
C      1  0.5170820000000  0.5061910000000  0.4423090000000 1.0
C      1  0.4916670000000  0.4920190000000  0.5553520000000 1.0
C      1  0.4709200000000  0.5367440000000  0.5338990000000 1.0
C      1  0.4960230000000  0.4540500000000  0.5220610000000 1.0
C      1  0.5591650000000  0.5329150000000  0.5197850000000 1.0
C      1  0.4805920000000  0.5492930000000  0.4848720000000 1.0
C      1  0.5072010000000  0.5146830000000  0.5102930000000 1.0
C      1  0.5402130000000  0.4897180000000  0.4504030000000 1.0
C      1  0.5672200000000  0.5068240000000  0.5076170000000 1.0
C      1  0.5533750000000  0.5316700000000  0.5470770000000 1.0
C      1  0.4861460000000  0.4704150000000  0.4972500000000 1.0
END
