TITL C-950521-2237-670 1.17706745838469e-06 125000 -475.729615866128 0 0 78 (C1) n - 1
REM
REM in /home/bkarasulu/work/CARBON/AIRSS/Generating-Clusters/EDIP-Nigel-Params/with-SteepDescent/Only-C1/SD-CG/HFTN-CG
REM
REM
REM
REM
REM
REM ./C.cell (11c1c37f851c82e70ff6c80c92926a4b)
REM
REM compiler GCC version 9.2.1 20190827 (Red Hat 9.2.1-1)
REM options -cpp -mtune=generic -march=x86-64 -g -O0 -fpre-include=/usr/include/finclude/math-vector-fortran.h
REM seed 233595000 -1088433500 1758633301 971675107 470992017 -882048939 1443225619 -637150451 -602950923 -1105497260 769031759 -1362224214 -305806162 76815843 1517540666 -2073283273 841080269 -968250714 -1282289676 -1681727498 1491150690 -30926557 -492145587 52282858 -905754774 -1391852064 -560260959 814478922 1536139130 -2040002974 1490767598 -468932257 -2059823872
REM
CELL 1.54180   50.00000   50.00000   50.00000   90.00000   90.00000   90.00000
LATT -1
SFAC C  
C      1  0.5511360000000  0.5397100000000  0.4884480000000 1.0
C      1  0.4837680000000  0.5164350000000  0.4246490000000 1.0
C      1  0.4469010000000  0.4674400000000  0.4425690000000 1.0
C      1  0.4577150000000  0.5683140000000  0.5063930000000 1.0
C      1  0.4867190000000  0.5709390000000  0.5128190000000 1.0
C      1  0.4797550000000  0.5560290000000  0.5619260000000 1.0
C      1  0.4419570000000  0.5341130000000  0.4724310000000 1.0
C      1  0.5199630000000  0.4881970000000  0.4324800000000 1.0
C      1  0.5264920000000  0.5125990000000  0.4485300000000 1.0
C      1  0.4976780000000  0.5265760000000  0.4988300000000 1.0
C      1  0.4210990000000  0.4611200000000  0.5196400000000 1.0
C      1  0.4902610000000  0.4293290000000  0.5541430000000 1.0
C      1  0.5648410000000  0.5312780000000  0.4608160000000 1.0
C      1  0.5625970000000  0.4392430000000  0.4654720000000 1.0
C      1  0.5847560000000  0.5153550000000  0.5188300000000 1.0
C      1  0.4299120000000  0.4905890000000  0.4546600000000 1.0
C      1  0.5380400000000  0.4842110000000  0.5087460000000 1.0
C      1  0.4842240000000  0.4302430000000  0.4534320000000 1.0
C      1  0.5443920000000  0.4491440000000  0.5374670000000 1.0
C      1  0.5013090000000  0.5561410000000  0.4904380000000 1.0
C      1  0.5558260000000  0.4583120000000  0.5107040000000 1.0
C      1  0.5545830000000  0.4585710000000  0.4467780000000 1.0
C      1  0.4558950000000  0.4402820000000  0.4533750000000 1.0
C      1  0.5662070000000  0.5024050000000  0.4688750000000 1.0
C      1  0.5396950000000  0.5028400000000  0.4834260000000 1.0
C      1  0.4911710000000  0.4886740000000  0.4291620000000 1.0
C      1  0.4266830000000  0.4922890000000  0.4841910000000 1.0
C      1  0.5415790000000  0.5005450000000  0.5358290000000 1.0
C      1  0.4554940000000  0.5603310000000  0.4765260000000 1.0
C      1  0.4528580000000  0.5571780000000  0.5544190000000 1.0
C      1  0.4769150000000  0.4781820000000  0.4828400000000 1.0
C      1  0.5258220000000  0.4624240000000  0.4427840000000 1.0
C      1  0.4377670000000  0.4484430000000  0.4993390000000 1.0
C      1  0.5042790000000  0.4441520000000  0.4385560000000 1.0
C      1  0.4428510000000  0.5537470000000  0.5282410000000 1.0
C      1  0.4969620000000  0.5568210000000  0.5374350000000 1.0
C      1  0.5237360000000  0.5689240000000  0.5426340000000 1.0
C      1  0.5683040000000  0.4830150000000  0.4485430000000 1.0
C      1  0.5026410000000  0.5305970000000  0.4427850000000 1.0
C      1  0.5022780000000  0.5278570000000  0.5275860000000 1.0
C      1  0.4806570000000  0.5079460000000  0.5373500000000 1.0
C      1  0.5140740000000  0.4525140000000  0.5337070000000 1.0
C      1  0.5471600000000  0.4399580000000  0.4889720000000 1.0
C      1  0.4760130000000  0.4733200000000  0.4523150000000 1.0
C      1  0.4942780000000  0.5689130000000  0.4404190000000 1.0
C      1  0.4757760000000  0.5048430000000  0.5673150000000 1.0
C      1  0.4766010000000  0.4544360000000  0.5576770000000 1.0
C      1  0.4664350000000  0.4664500000000  0.5324910000000 1.0
C      1  0.4300620000000  0.5194570000000  0.4940800000000 1.0
C      1  0.5168940000000  0.5546340000000  0.4304370000000 1.0
C      1  0.5311670000000  0.5629090000000  0.4917230000000 1.0
C      1  0.4962390000000  0.4987380000000  0.4898670000000 1.0
C      1  0.5541160000000  0.4651350000000  0.5598450000000 1.0
C      1  0.5365660000000  0.5456380000000  0.5553450000000 1.0
C      1  0.4664950000000  0.4548240000000  0.5040510000000 1.0
C      1  0.5117800000000  0.4681460000000  0.5066320000000 1.0
C      1  0.4090530000000  0.4749230000000  0.4977770000000 1.0
C      1  0.5656070000000  0.4909640000000  0.5506100000000 1.0
C      1  0.4839490000000  0.5625540000000  0.4665360000000 1.0
C      1  0.5004620000000  0.4242110000000  0.5274800000000 1.0
C      1  0.5181540000000  0.4746690000000  0.5703190000000 1.0
C      1  0.5183900000000  0.5255820000000  0.5706450000000 1.0
C      1  0.4364800000000  0.5261180000000  0.5219950000000 1.0
C      1  0.5409170000000  0.5298060000000  0.5299470000000 1.0
C      1  0.4399480000000  0.4778380000000  0.5371240000000 1.0
C      1  0.5198760000000  0.4995330000000  0.5556440000000 1.0
C      1  0.4885610000000  0.4756480000000  0.5753470000000 1.0
C      1  0.5889550000000  0.4940730000000  0.5351870000000 1.0
C      1  0.4892840000000  0.5317530000000  0.5771610000000 1.0
C      1  0.4985690000000  0.4266630000000  0.4797390000000 1.0
C      1  0.4397440000000  0.5181070000000  0.4480040000000 1.0
C      1  0.4565170000000  0.5215830000000  0.4262650000000 1.0
C      1  0.5350170000000  0.5748850000000  0.5171930000000 1.0
C      1  0.5662030000000  0.5358690000000  0.5145270000000 1.0
C      1  0.4817810000000  0.4279310000000  0.5040970000000 1.0
C      1  0.5192310000000  0.4483800000000  0.4841940000000 1.0
C      1  0.4471960000000  0.5066460000000  0.5433430000000 1.0
C      1  0.5467390000000  0.5318090000000  0.4378900000000 1.0
END
