TITL C-950529-3362-69 4.36371001299099e-06 125000 -838.294445888069 0 0 135 (C1) n - 1
REM
REM in /home/bkarasulu/work/CARBON/AIRSS/Generating-Clusters/EDIP-Nigel-Params/with-SteepDescent/Only-C1/SD-CG/HFTN-CG
REM
REM
REM
REM
REM
REM ./C.cell (11c1c37f851c82e70ff6c80c92926a4b)
REM
REM compiler GCC version 9.2.1 20190827 (Red Hat 9.2.1-1)
REM options -cpp -mtune=generic -march=x86-64 -g -O0 -fpre-include=/usr/include/finclude/math-vector-fortran.h
REM seed 1681302920 969424319 -1485995053 175708691 -1593812435 -1880177689 -1966455141 -854340729 1900068970 -438664608 129476297 -108903441 1692224413 1350490133 148599302 589745688 1766726083 1250522517 981903301 792695150 -805017877 893804086 1959399134 846231968 -468901346 1366139406 1630498900 -971788505 1475635552 346718687 -1108820221 -891229234 750552784
REM
CELL 1.54180   50.00000   50.00000   50.00000   90.00000   90.00000   90.00000
LATT -1
SFAC C  
C      1  0.5336780000000  0.5834060000000  0.5456990000000 1.0
C      1  0.4609930000000  0.4942610000000  0.4807560000000 1.0
C      1  0.4956100000000  0.4437580000000  0.4226580000000 1.0
C      1  0.4040490000000  0.5092050000000  0.5260090000000 1.0
C      1  0.5699920000000  0.5266910000000  0.4936990000000 1.0
C      1  0.5831780000000  0.4702390000000  0.5408720000000 1.0
C      1  0.4733000000000  0.5086680000000  0.3934260000000 1.0
C      1  0.4881440000000  0.5322580000000  0.3971850000000 1.0
C      1  0.4198710000000  0.5338830000000  0.5245270000000 1.0
C      1  0.4679250000000  0.5627290000000  0.5691790000000 1.0
C      1  0.4755310000000  0.4209680000000  0.4636610000000 1.0
C      1  0.4599740000000  0.4448270000000  0.4876020000000 1.0
C      1  0.4614160000000  0.5104660000000  0.5978140000000 1.0
C      1  0.5474260000000  0.4837630000000  0.4758540000000 1.0
C      1  0.4409410000000  0.4892880000000  0.5577090000000 1.0
C      1  0.5271740000000  0.5108830000000  0.4111830000000 1.0
C      1  0.4477620000000  0.4352790000000  0.5467900000000 1.0
C      1  0.4748400000000  0.4033540000000  0.4872420000000 1.0
C      1  0.4224100000000  0.5489320000000  0.5488200000000 1.0
C      1  0.4626360000000  0.5842420000000  0.5483270000000 1.0
C      1  0.5726350000000  0.5036140000000  0.5738430000000 1.0
C      1  0.4977830000000  0.4134970000000  0.5015600000000 1.0
C      1  0.4771650000000  0.4449730000000  0.5410880000000 1.0
C      1  0.4377040000000  0.5752000000000  0.5034370000000 1.0
C      1  0.5607660000000  0.4736970000000  0.4224480000000 1.0
C      1  0.4492160000000  0.4684260000000  0.4708370000000 1.0
C      1  0.4195320000000  0.4951460000000  0.5034450000000 1.0
C      1  0.5887220000000  0.5075520000000  0.4378190000000 1.0
C      1  0.4550060000000  0.5832560000000  0.4806940000000 1.0
C      1  0.4806020000000  0.4698520000000  0.4252560000000 1.0
C      1  0.4953150000000  0.4792880000000  0.5820220000000 1.0
C      1  0.5150930000000  0.4825480000000  0.3984800000000 1.0
C      1  0.5499590000000  0.4325910000000  0.4422410000000 1.0
C      1  0.5688360000000  0.4583890000000  0.5155210000000 1.0
C      1  0.4191230000000  0.5624580000000  0.4538300000000 1.0
C      1  0.4592780000000  0.4884150000000  0.5292440000000 1.0
C      1  0.5746220000000  0.4692370000000  0.4672900000000 1.0
C      1  0.4743150000000  0.4613770000000  0.5919890000000 1.0
C      1  0.4345850000000  0.5210830000000  0.4308790000000 1.0
C      1  0.5649490000000  0.5407160000000  0.5422180000000 1.0
C      1  0.4208510000000  0.5503530000000  0.4997560000000 1.0
C      1  0.5530010000000  0.5201500000000  0.4013230000000 1.0
C      1  0.5120710000000  0.4545640000000  0.4791890000000 1.0
C      1  0.4246170000000  0.5491930000000  0.4258720000000 1.0
C      1  0.4823850000000  0.5988210000000  0.5355080000000 1.0
C      1  0.5437440000000  0.5130990000000  0.5733490000000 1.0
C      1  0.5900750000000  0.4969360000000  0.5304520000000 1.0
C      1  0.4362450000000  0.4412480000000  0.5719020000000 1.0
C      1  0.4181870000000  0.4690900000000  0.4648700000000 1.0
C      1  0.4327720000000  0.5430090000000  0.4727060000000 1.0
C      1  0.5692700000000  0.4736020000000  0.5677560000000 1.0
C      1  0.5390510000000  0.4583090000000  0.4328690000000 1.0
C      1  0.4390240000000  0.4271070000000  0.4992050000000 1.0
C      1  0.5314210000000  0.4928810000000  0.5533230000000 1.0
C      1  0.4816360000000  0.5070520000000  0.4635230000000 1.0
C      1  0.5182840000000  0.4252280000000  0.4850250000000 1.0
C      1  0.5329730000000  0.4277670000000  0.5312520000000 1.0
C      1  0.4656660000000  0.5239030000000  0.4274180000000 1.0
C      1  0.5678300000000  0.4388110000000  0.4648690000000 1.0
C      1  0.4829840000000  0.5233020000000  0.5556070000000 1.0
C      1  0.5319920000000  0.5131170000000  0.6008040000000 1.0
C      1  0.4756680000000  0.4581030000000  0.5121500000000 1.0
C      1  0.5758240000000  0.5211160000000  0.4170250000000 1.0
C      1  0.4853460000000  0.4828410000000  0.3980840000000 1.0
C      1  0.5135620000000  0.5627370000000  0.4697340000000 1.0
C      1  0.5108850000000  0.4086520000000  0.5265320000000 1.0
C      1  0.5071490000000  0.4978230000000  0.5106770000000 1.0
C      1  0.4282580000000  0.5160300000000  0.4604120000000 1.0
C      1  0.5287500000000  0.4127650000000  0.4494590000000 1.0
C      1  0.5539640000000  0.5367020000000  0.4720380000000 1.0
C      1  0.4706170000000  0.5529860000000  0.4370100000000 1.0
C      1  0.5064810000000  0.5239390000000  0.6018650000000 1.0
C      1  0.5209670000000  0.5221180000000  0.4391620000000 1.0
C      1  0.5163260000000  0.5311820000000  0.3939530000000 1.0
C      1  0.5616490000000  0.5711110000000  0.5350220000000 1.0
C      1  0.4136610000000  0.4641090000000  0.5245420000000 1.0
C      1  0.5327720000000  0.5149490000000  0.4662780000000 1.0
C      1  0.4479630000000  0.5705150000000  0.4284660000000 1.0
C      1  0.5196640000000  0.5564350000000  0.5532740000000 1.0
C      1  0.4111340000000  0.4957980000000  0.4743470000000 1.0
C      1  0.4827340000000  0.5948040000000  0.4844970000000 1.0
C      1  0.5253520000000  0.5952680000000  0.5175570000000 1.0
C      1  0.5168310000000  0.5513710000000  0.4420490000000 1.0
C      1  0.5053170000000  0.5159230000000  0.4828600000000 1.0
C      1  0.4637530000000  0.5337720000000  0.5268550000000 1.0
C      1  0.4398920000000  0.5857250000000  0.4551790000000 1.0
C      1  0.5323190000000  0.5441970000000  0.5097510000000 1.0
C      1  0.4926700000000  0.4116890000000  0.5483230000000 1.0
C      1  0.4667760000000  0.5435160000000  0.4666390000000 1.0
C      1  0.4504760000000  0.5650640000000  0.5287260000000 1.0
C      1  0.4491250000000  0.5059210000000  0.5065660000000 1.0
C      1  0.4861870000000  0.4356710000000  0.5895930000000 1.0
C      1  0.5456750000000  0.4761680000000  0.5056580000000 1.0
C      1  0.5020690000000  0.4684940000000  0.5029280000000 1.0
C      1  0.5862020000000  0.5182700000000  0.5510000000000 1.0
C      1  0.5425340000000  0.5640150000000  0.4777900000000 1.0
C      1  0.5527280000000  0.5257630000000  0.5180920000000 1.0
C      1  0.4446390000000  0.5142680000000  0.5755100000000 1.0
C      1  0.4872940000000  0.5470130000000  0.5137940000000 1.0
C      1  0.4961820000000  0.4862330000000  0.4466580000000 1.0
C      1  0.4962920000000  0.5551660000000  0.5722370000000 1.0
C      1  0.5965610000000  0.4752340000000  0.4859120000000 1.0
C      1  0.5340000000000  0.4878040000000  0.6122780000000 1.0
C      1  0.4956410000000  0.5665260000000  0.4295840000000 1.0
C      1  0.4933460000000  0.5440180000000  0.4848900000000 1.0
C      1  0.5392990000000  0.4019750000000  0.4773980000000 1.0
C      1  0.4996740000000  0.4268260000000  0.4467200000000 1.0
C      1  0.4998320000000  0.5876950000000  0.4618210000000 1.0
C      1  0.6032560000000  0.4967910000000  0.5033740000000 1.0
C      1  0.5802340000000  0.4804860000000  0.4405550000000 1.0
C      1  0.4963420000000  0.5939960000000  0.5117940000000 1.0
C      1  0.4875250000000  0.5094380000000  0.5855440000000 1.0
C      1  0.4477960000000  0.4659440000000  0.5783280000000 1.0
C      1  0.5493190000000  0.5788830000000  0.5056940000000 1.0
C      1  0.5386770000000  0.4666590000000  0.5676970000000 1.0
C      1  0.5232740000000  0.4722500000000  0.4576050000000 1.0
C      1  0.5436040000000  0.5403660000000  0.5625810000000 1.0
C      1  0.5228620000000  0.4706740000000  0.5930330000000 1.0
C      1  0.4264180000000  0.4682420000000  0.4375200000000 1.0
C      1  0.4500210000000  0.4010690000000  0.5005580000000 1.0
C      1  0.5618550000000  0.4190830000000  0.4872000000000 1.0
C      1  0.5589300000000  0.4298540000000  0.5159520000000 1.0
C      1  0.4447720000000  0.5418570000000  0.5658730000000 1.0
C      1  0.5362080000000  0.4985870000000  0.5234250000000 1.0
C      1  0.4125400000000  0.4857520000000  0.5454570000000 1.0
C      1  0.5204180000000  0.4551710000000  0.4105860000000 1.0
C      1  0.4927730000000  0.4720730000000  0.5530130000000 1.0
C      1  0.5288250000000  0.4393810000000  0.5577070000000 1.0
C      1  0.4871150000000  0.4970720000000  0.5367880000000 1.0
C      1  0.6026170000000  0.5184040000000  0.4595970000000 1.0
C      1  0.5045880000000  0.4264590000000  0.5697920000000 1.0
C      1  0.4524460000000  0.4649640000000  0.4293790000000 1.0
C      1  0.5111340000000  0.5431670000000  0.5282810000000 1.0
C      1  0.5977470000000  0.5204740000000  0.4873380000000 1.0
C      1  0.4285300000000  0.4386460000000  0.5247040000000 1.0
END
