TITL C-950532-2784-323 -6.67284320166438e-07 125000 -430.83308199405 0 0 72 (C1) n - 1
REM
REM in /home/bkarasulu/work/CARBON/AIRSS/Generating-Clusters/EDIP-Nigel-Params/with-SteepDescent/Only-C1/SD-CG/HFTN-CG
REM
REM
REM
REM
REM
REM ./C.cell (11c1c37f851c82e70ff6c80c92926a4b)
REM
REM compiler GCC version 9.2.1 20190827 (Red Hat 9.2.1-1)
REM options -cpp -mtune=generic -march=x86-64 -g -O0 -fpre-include=/usr/include/finclude/math-vector-fortran.h
REM seed 212884568 -481462024 72374839 2105575531 -1531485466 754215143 1351307544 13602226 -1851248325 986101249 -86644532 2046835343 1642060621 -181475092 -1118266363 -1280968830 -1736660298 1363368424 1924713477 1600289376 -2098963736 -2027880068 -1640679980 -459903153 -1854686894 1571271424 1457907530 -1332362725 -552883378 403945034 -1188111143 2092606148 1666141330
REM
CELL 1.54180   50.00000   50.00000   50.00000   90.00000   90.00000   90.00000
LATT -1
SFAC C  
C      1  0.4414200000000  0.5575570000000  0.5147360000000 1.0
C      1  0.4581680000000  0.5800740000000  0.5194760000000 1.0
C      1  0.4353890000000  0.5060710000000  0.4753590000000 1.0
C      1  0.5519370000000  0.5510100000000  0.5019780000000 1.0
C      1  0.5373800000000  0.4462990000000  0.5494710000000 1.0
C      1  0.5376510000000  0.5463330000000  0.5713700000000 1.0
C      1  0.3983080000000  0.5348180000000  0.5172060000000 1.0
C      1  0.5836130000000  0.4825810000000  0.4915510000000 1.0
C      1  0.5721680000000  0.4551980000000  0.5015140000000 1.0
C      1  0.4764790000000  0.5507410000000  0.4717450000000 1.0
C      1  0.4424660000000  0.5209150000000  0.4531750000000 1.0
C      1  0.4517150000000  0.4960740000000  0.5469610000000 1.0
C      1  0.4573580000000  0.5314390000000  0.5139770000000 1.0
C      1  0.5187670000000  0.5380470000000  0.4691050000000 1.0
C      1  0.4917780000000  0.4961690000000  0.4964350000000 1.0
C      1  0.5195690000000  0.4874620000000  0.4733930000000 1.0
C      1  0.5273390000000  0.5593570000000  0.5174790000000 1.0
C      1  0.5099250000000  0.5815910000000  0.5133180000000 1.0
C      1  0.5354660000000  0.4622300000000  0.4653230000000 1.0
C      1  0.5129440000000  0.4901630000000  0.5715080000000 1.0
C      1  0.5112580000000  0.5481270000000  0.5630700000000 1.0
C      1  0.5383610000000  0.4715950000000  0.5128150000000 1.0
C      1  0.4546700000000  0.4293720000000  0.4760850000000 1.0
C      1  0.4907290000000  0.4547680000000  0.5310340000000 1.0
C      1  0.5153690000000  0.5205450000000  0.4445530000000 1.0
C      1  0.5061180000000  0.4998410000000  0.5459620000000 1.0
C      1  0.5075370000000  0.5248090000000  0.4986280000000 1.0
C      1  0.5476770000000  0.5469680000000  0.4725300000000 1.0
C      1  0.5643270000000  0.5066520000000  0.4896370000000 1.0
C      1  0.4142930000000  0.5561440000000  0.5197690000000 1.0
C      1  0.5577290000000  0.5283880000000  0.5630830000000 1.0
C      1  0.5563700000000  0.5156480000000  0.5380520000000 1.0
C      1  0.4618910000000  0.5407520000000  0.5626080000000 1.0
C      1  0.4124760000000  0.4902020000000  0.5220940000000 1.0
C      1  0.3988730000000  0.5090170000000  0.5070700000000 1.0
C      1  0.4917300000000  0.4739390000000  0.4101630000000 1.0
C      1  0.4768570000000  0.4554500000000  0.5563710000000 1.0
C      1  0.5010460000000  0.4215330000000  0.4895180000000 1.0
C      1  0.4082600000000  0.5070370000000  0.4811560000000 1.0
C      1  0.4366780000000  0.4427350000000  0.4923570000000 1.0
C      1  0.4821640000000  0.4305150000000  0.4709370000000 1.0
C      1  0.5638880000000  0.4872000000000  0.4318680000000 1.0
C      1  0.5647650000000  0.5241450000000  0.4641820000000 1.0
C      1  0.4981740000000  0.4831050000000  0.5234920000000 1.0
C      1  0.5233730000000  0.4283370000000  0.5051510000000 1.0
C      1  0.5621170000000  0.4670780000000  0.4508030000000 1.0
C      1  0.5855610000000  0.4667870000000  0.4672140000000 1.0
C      1  0.4711500000000  0.4450010000000  0.5113520000000 1.0
C      1  0.4691560000000  0.5273920000000  0.4560490000000 1.0
C      1  0.5658420000000  0.5260890000000  0.5123910000000 1.0
C      1  0.5623490000000  0.4913850000000  0.5515200000000 1.0
C      1  0.5196930000000  0.4455300000000  0.4485420000000 1.0
C      1  0.5422420000000  0.4486880000000  0.4926440000000 1.0
C      1  0.4867480000000  0.4951760000000  0.5791070000000 1.0
C      1  0.5352290000000  0.5242150000000  0.4250230000000 1.0
C      1  0.5526450000000  0.4674650000000  0.5388770000000 1.0
C      1  0.4876970000000  0.5177830000000  0.4363350000000 1.0
C      1  0.5015440000000  0.5611510000000  0.4630000000000 1.0
C      1  0.5356210000000  0.4976750000000  0.4967080000000 1.0
C      1  0.4450880000000  0.4556630000000  0.5160700000000 1.0
C      1  0.4659730000000  0.4793610000000  0.5668420000000 1.0
C      1  0.5196520000000  0.5403650000000  0.5375490000000 1.0
C      1  0.5160650000000  0.4375990000000  0.5323620000000 1.0
C      1  0.4617330000000  0.5231520000000  0.5426780000000 1.0
C      1  0.4407800000000  0.4850010000000  0.5209990000000 1.0
C      1  0.4547420000000  0.5031210000000  0.4986550000000 1.0
C      1  0.4842800000000  0.5699380000000  0.5146870000000 1.0
C      1  0.5584470000000  0.5139370000000  0.4369090000000 1.0
C      1  0.4782970000000  0.4957030000000  0.4206290000000 1.0
C      1  0.4925990000000  0.4418700000000  0.4469330000000 1.0
C      1  0.4782390000000  0.4576940000000  0.4282080000000 1.0
C      1  0.4820610000000  0.5442250000000  0.5006480000000 1.0
END
