TITL C-950522-5749-446 -1.83943635630485e-06 125000 -657.393917069946 0 0 107 (C1) n - 1
REM
REM in /home/bkarasulu/work/CARBON/AIRSS/Generating-Clusters/EDIP-Nigel-Params/with-SteepDescent/Only-C1/SD-CG/HFTN-CG
REM
REM
REM
REM
REM
REM ./C.cell (11c1c37f851c82e70ff6c80c92926a4b)
REM
REM compiler GCC version 9.2.1 20190827 (Red Hat 9.2.1-1)
REM options -cpp -mtune=generic -march=x86-64 -g -O0 -fpre-include=/usr/include/finclude/math-vector-fortran.h
REM seed -1364561595 420283177 593637897 -61468771 1621390918 1423263234 -2108145142 -1812759259 1035566725 569621107 1094823215 -33612312 1328114642 -1580963769 -342619869 -413229871 534654470 2017631164 -977480517 276254153 665216253 -1699687061 1742334795 2020323077 -1096215833 -1450765427 -1156295833 991848181 -1749880196 664088682 401544201 1233169641 -2129281587
REM
CELL 1.54180   50.00000   50.00000   50.00000   90.00000   90.00000   90.00000
LATT -1
SFAC C  
C      1  0.4662520000000  0.4814040000000  0.4046260000000 1.0
C      1  0.5716700000000  0.4498820000000  0.4749340000000 1.0
C      1  0.5798540000000  0.4479360000000  0.5035860000000 1.0
C      1  0.5287560000000  0.4992740000000  0.4266030000000 1.0
C      1  0.5385720000000  0.5489190000000  0.4499270000000 1.0
C      1  0.5077820000000  0.5646810000000  0.5756520000000 1.0
C      1  0.4796480000000  0.4556860000000  0.4913730000000 1.0
C      1  0.5341800000000  0.5504380000000  0.5760090000000 1.0
C      1  0.5206660000000  0.5090500000000  0.4002820000000 1.0
C      1  0.5196790000000  0.5761870000000  0.4856330000000 1.0
C      1  0.5483750000000  0.4341510000000  0.4652740000000 1.0
C      1  0.4630930000000  0.4951420000000  0.5192430000000 1.0
C      1  0.4258430000000  0.5539360000000  0.5417840000000 1.0
C      1  0.4724530000000  0.4853170000000  0.5859050000000 1.0
C      1  0.4425830000000  0.4135840000000  0.4749770000000 1.0
C      1  0.4928920000000  0.4535990000000  0.5186170000000 1.0
C      1  0.5390760000000  0.4878570000000  0.5009060000000 1.0
C      1  0.5416730000000  0.4753600000000  0.4744050000000 1.0
C      1  0.4452710000000  0.4277340000000  0.5233700000000 1.0
C      1  0.4887010000000  0.4810180000000  0.4836330000000 1.0
C      1  0.5320540000000  0.4208090000000  0.4861990000000 1.0
C      1  0.4673200000000  0.5697860000000  0.4668700000000 1.0
C      1  0.4892130000000  0.5314790000000  0.5430270000000 1.0
C      1  0.5595660000000  0.4810770000000  0.5808140000000 1.0
C      1  0.5712980000000  0.5141110000000  0.4520930000000 1.0
C      1  0.5017580000000  0.4962370000000  0.4433790000000 1.0
C      1  0.4343560000000  0.4806230000000  0.5189740000000 1.0
C      1  0.5452120000000  0.5208400000000  0.4408910000000 1.0
C      1  0.4579610000000  0.4175820000000  0.4982620000000 1.0
C      1  0.4946610000000  0.5875160000000  0.5332730000000 1.0
C      1  0.5434790000000  0.5275540000000  0.5913080000000 1.0
C      1  0.5639430000000  0.5111880000000  0.5773270000000 1.0
C      1  0.4760420000000  0.4770280000000  0.4331130000000 1.0
C      1  0.5794500000000  0.4851690000000  0.5415280000000 1.0
C      1  0.5100760000000  0.4743600000000  0.4639800000000 1.0
C      1  0.4140910000000  0.4670850000000  0.4672280000000 1.0
C      1  0.4174470000000  0.5298110000000  0.5282950000000 1.0
C      1  0.5411990000000  0.4714610000000  0.4246080000000 1.0
C      1  0.4605150000000  0.5113350000000  0.4684430000000 1.0
C      1  0.5466340000000  0.5685700000000  0.4947420000000 1.0
C      1  0.4870310000000  0.4486130000000  0.4372690000000 1.0
C      1  0.4235470000000  0.5112470000000  0.5045150000000 1.0
C      1  0.5068140000000  0.4483210000000  0.5768870000000 1.0
C      1  0.4950240000000  0.4966470000000  0.5065250000000 1.0
C      1  0.4317150000000  0.4526340000000  0.5213400000000 1.0
C      1  0.4143690000000  0.4935710000000  0.4568210000000 1.0
C      1  0.4850340000000  0.5440480000000  0.4036600000000 1.0
C      1  0.4345510000000  0.5183040000000  0.4141310000000 1.0
C      1  0.4813190000000  0.5535960000000  0.5631760000000 1.0
C      1  0.5277740000000  0.4391950000000  0.5596730000000 1.0
C      1  0.5681880000000  0.4273940000000  0.5184690000000 1.0
C      1  0.5184360000000  0.4823100000000  0.5206760000000 1.0
C      1  0.5121140000000  0.5177200000000  0.5562790000000 1.0
C      1  0.5821340000000  0.4958390000000  0.4942230000000 1.0
C      1  0.4885350000000  0.4688260000000  0.5676290000000 1.0
C      1  0.5052530000000  0.5063620000000  0.5835490000000 1.0
C      1  0.4521430000000  0.4848610000000  0.4528680000000 1.0
C      1  0.5049960000000  0.5220590000000  0.4934290000000 1.0
C      1  0.4898180000000  0.5218630000000  0.4642190000000 1.0
C      1  0.4459890000000  0.5344590000000  0.4336980000000 1.0
C      1  0.5123740000000  0.4455480000000  0.4240590000000 1.0
C      1  0.5321700000000  0.4762170000000  0.5687940000000 1.0
C      1  0.5782980000000  0.4679670000000  0.5639300000000 1.0
C      1  0.4416440000000  0.4946130000000  0.4035830000000 1.0
C      1  0.4863510000000  0.4082440000000  0.5017010000000 1.0
C      1  0.4697980000000  0.5773270000000  0.5472860000000 1.0
C      1  0.4423280000000  0.5232520000000  0.5573330000000 1.0
C      1  0.4867900000000  0.5520060000000  0.4535030000000 1.0
C      1  0.5725930000000  0.4872310000000  0.4668530000000 1.0
C      1  0.4857410000000  0.4958000000000  0.3896280000000 1.0
C      1  0.5617760000000  0.5094270000000  0.5457870000000 1.0
C      1  0.4634060000000  0.5409250000000  0.5068660000000 1.0
C      1  0.4419690000000  0.4612330000000  0.4689900000000 1.0
C      1  0.4969900000000  0.5736520000000  0.5059490000000 1.0
C      1  0.4714920000000  0.5482300000000  0.4279040000000 1.0
C      1  0.4343320000000  0.4351390000000  0.4597500000000 1.0
C      1  0.4663620000000  0.4298980000000  0.5443890000000 1.0
C      1  0.5497230000000  0.5566250000000  0.5223970000000 1.0
C      1  0.4943420000000  0.5178660000000  0.4050580000000 1.0
C      1  0.5298520000000  0.4966840000000  0.5456890000000 1.0
C      1  0.4921570000000  0.5429870000000  0.5125320000000 1.0
C      1  0.5775940000000  0.5352660000000  0.4733210000000 1.0
C      1  0.5041000000000  0.4151320000000  0.4785130000000 1.0
C      1  0.5791770000000  0.4752310000000  0.5143530000000 1.0
C      1  0.5361630000000  0.5163750000000  0.4948060000000 1.0
C      1  0.4753610000000  0.5140950000000  0.5938190000000 1.0
C      1  0.4331170000000  0.5368770000000  0.4597540000000 1.0
C      1  0.4943040000000  0.4235290000000  0.5266520000000 1.0
C      1  0.4499400000000  0.5662100000000  0.5015340000000 1.0
C      1  0.4741390000000  0.4595650000000  0.5432320000000 1.0
C      1  0.5673510000000  0.5218810000000  0.4983280000000 1.0
C      1  0.5427680000000  0.5718370000000  0.5458170000000 1.0
C      1  0.5224480000000  0.4222620000000  0.5365840000000 1.0
C      1  0.4604670000000  0.5366140000000  0.5795080000000 1.0
C      1  0.5358980000000  0.4473050000000  0.4406650000000 1.0
C      1  0.5593320000000  0.5577010000000  0.4692460000000 1.0
C      1  0.5240640000000  0.5123400000000  0.6050160000000 1.0
C      1  0.4444900000000  0.5734230000000  0.5305540000000 1.0
C      1  0.4532910000000  0.5152970000000  0.4983550000000 1.0
C      1  0.5166650000000  0.5841240000000  0.5536280000000 1.0
C      1  0.4914820000000  0.4405980000000  0.4671150000000 1.0
C      1  0.5414370000000  0.4207090000000  0.5143290000000 1.0
C      1  0.5144430000000  0.5642240000000  0.4581970000000 1.0
C      1  0.4163940000000  0.5169180000000  0.4735230000000 1.0
C      1  0.4725740000000  0.5833970000000  0.4915120000000 1.0
C      1  0.4661330000000  0.5117780000000  0.5433750000000 1.0
C      1  0.5683020000000  0.5337950000000  0.5261480000000 1.0
END
