TITL C-951333-8791-176 -2.13918940110513e-06 125000 -1109.7395532037 0 0 175 (C1) n - 1
REM
REM in /home/bkarasulu/work/CARBON/AIRSS/Generating-Clusters/EDIP-Nigel-Params/with-SteepDescent/Only-C1/SD-CG/HFTN-CG
REM
REM
REM
REM
REM
REM ./C.cell (11c1c37f851c82e70ff6c80c92926a4b)
REM
REM compiler GCC version 9.2.1 20190827 (Red Hat 9.2.1-1)
REM options -cpp -mtune=generic -march=x86-64 -g -O0 -fpre-include=/usr/include/finclude/math-vector-fortran.h
REM seed -164808472 -211136398 -967101259 1367130452 1341212057 133629397 -1714058960 2008107624 -364045223 -256346117 -688892975 513704517 1418035588 767016686 -1599272701 2081471858 1824936973 1153544469 181107796 1956617688 2063773543 2096548729 713454210 738808773 -2135969146 314879774 -1341383050 -1274010599 -1306328196 115827995 654476544 1376270525 -26010702
REM
CELL 1.54180   50.00000   50.00000   50.00000   90.00000   90.00000   90.00000
LATT -1
SFAC C  
C      1  0.4721530000000  0.3859980000000  0.4896540000000 1.0
C      1  0.4156140000000  0.4571010000000  0.4791880000000 1.0
C      1  0.4455710000000  0.4652100000000  0.4086790000000 1.0
C      1  0.4980070000000  0.6066700000000  0.4600270000000 1.0
C      1  0.5402050000000  0.5648360000000  0.5853410000000 1.0
C      1  0.5239670000000  0.4560380000000  0.4248950000000 1.0
C      1  0.5120510000000  0.4428710000000  0.5242390000000 1.0
C      1  0.5230020000000  0.5453110000000  0.6025250000000 1.0
C      1  0.5087160000000  0.4046060000000  0.5185400000000 1.0
C      1  0.5396840000000  0.5415790000000  0.4674210000000 1.0
C      1  0.4848170000000  0.6020130000000  0.5156880000000 1.0
C      1  0.4651960000000  0.4237200000000  0.5482850000000 1.0
C      1  0.4401440000000  0.4105490000000  0.4355920000000 1.0
C      1  0.5205310000000  0.4747650000000  0.5625950000000 1.0
C      1  0.5271080000000  0.4618060000000  0.4552310000000 1.0
C      1  0.4542540000000  0.5649120000000  0.5784800000000 1.0
C      1  0.4871330000000  0.4626230000000  0.5284930000000 1.0
C      1  0.4622060000000  0.5781460000000  0.4382890000000 1.0
C      1  0.4826880000000  0.4496660000000  0.4810220000000 1.0
C      1  0.3923640000000  0.4973820000000  0.4965740000000 1.0
C      1  0.5865630000000  0.5557840000000  0.4683020000000 1.0
C      1  0.4365250000000  0.5112130000000  0.5958460000000 1.0
C      1  0.5133320000000  0.5948110000000  0.5187140000000 1.0
C      1  0.5459850000000  0.4924960000000  0.5061950000000 1.0
C      1  0.3913150000000  0.5624640000000  0.5053910000000 1.0
C      1  0.5459250000000  0.5177270000000  0.5225050000000 1.0
C      1  0.5374760000000  0.5739070000000  0.4195260000000 1.0
C      1  0.5775570000000  0.5564350000000  0.5742750000000 1.0
C      1  0.4208200000000  0.5316790000000  0.4773180000000 1.0
C      1  0.5729280000000  0.4745340000000  0.5642610000000 1.0
C      1  0.5905010000000  0.4648200000000  0.5441040000000 1.0
C      1  0.4810690000000  0.4536360000000  0.5818030000000 1.0
C      1  0.5045560000000  0.5218630000000  0.4360360000000 1.0
C      1  0.5781940000000  0.5029120000000  0.4305750000000 1.0
C      1  0.4950810000000  0.4982720000000  0.6036430000000 1.0
C      1  0.5193160000000  0.5321170000000  0.3927810000000 1.0
C      1  0.4568360000000  0.4537380000000  0.5167490000000 1.0
C      1  0.5982560000000  0.4876340000000  0.5285630000000 1.0
C      1  0.4280440000000  0.5942310000000  0.5010330000000 1.0
C      1  0.5917470000000  0.4332060000000  0.4967380000000 1.0
C      1  0.5234740000000  0.4509550000000  0.4990360000000 1.0
C      1  0.4124710000000  0.4874200000000  0.5380190000000 1.0
C      1  0.6032600000000  0.4701520000000  0.4537750000000 1.0
C      1  0.4644260000000  0.5914350000000  0.5354730000000 1.0
C      1  0.6016530000000  0.5353970000000  0.5361510000000 1.0
C      1  0.5367050000000  0.3983440000000  0.5197110000000 1.0
C      1  0.4577130000000  0.4396310000000  0.5718030000000 1.0
C      1  0.4988500000000  0.5237750000000  0.4854980000000 1.0
C      1  0.4430930000000  0.4178910000000  0.5321670000000 1.0
C      1  0.5468830000000  0.4383530000000  0.4179550000000 1.0
C      1  0.5594890000000  0.5429860000000  0.5106630000000 1.0
C      1  0.5682360000000  0.5651510000000  0.5304260000000 1.0
C      1  0.5585830000000  0.4684320000000  0.5229740000000 1.0
C      1  0.5754650000000  0.5316060000000  0.4238390000000 1.0
C      1  0.4962400000000  0.4870520000000  0.5136380000000 1.0
C      1  0.5564240000000  0.5897970000000  0.5359690000000 1.0
C      1  0.4928380000000  0.4851420000000  0.4032230000000 1.0
C      1  0.4628880000000  0.4465580000000  0.4590490000000 1.0
C      1  0.4658090000000  0.5098340000000  0.5358410000000 1.0
C      1  0.4486670000000  0.5737100000000  0.4656550000000 1.0
C      1  0.4210870000000  0.5608750000000  0.4673220000000 1.0
C      1  0.4540880000000  0.5287410000000  0.6087160000000 1.0
C      1  0.5934930000000  0.5468880000000  0.4410710000000 1.0
C      1  0.4582800000000  0.5265010000000  0.3914190000000 1.0
C      1  0.5214890000000  0.4820670000000  0.4064900000000 1.0
C      1  0.4125940000000  0.4337310000000  0.4986000000000 1.0
C      1  0.5587990000000  0.5585140000000  0.4538980000000 1.0
C      1  0.5826780000000  0.4138430000000  0.5154820000000 1.0
C      1  0.4988080000000  0.5625960000000  0.5613200000000 1.0
C      1  0.5375260000000  0.4112280000000  0.5687760000000 1.0
C      1  0.5013240000000  0.5624930000000  0.4601060000000 1.0
C      1  0.4768100000000  0.4602580000000  0.4384840000000 1.0
C      1  0.5191900000000  0.5181530000000  0.5354160000000 1.0
C      1  0.5104610000000  0.4182580000000  0.5674890000000 1.0
C      1  0.4921150000000  0.5350550000000  0.4587960000000 1.0
C      1  0.5190340000000  0.4807280000000  0.4969760000000 1.0
C      1  0.4151530000000  0.4437360000000  0.4512260000000 1.0
C      1  0.5718130000000  0.4531090000000  0.4226580000000 1.0
C      1  0.4939480000000  0.5692440000000  0.4882720000000 1.0
C      1  0.4965980000000  0.5432200000000  0.5856800000000 1.0
C      1  0.4409930000000  0.5768660000000  0.5231640000000 1.0
C      1  0.5732060000000  0.5030960000000  0.5666040000000 1.0
C      1  0.3911000000000  0.4745930000000  0.4769580000000 1.0
C      1  0.4597030000000  0.4942440000000  0.4779350000000 1.0
C      1  0.5772210000000  0.4600240000000  0.4979140000000 1.0
C      1  0.4477370000000  0.6010040000000  0.4790710000000 1.0
C      1  0.4748970000000  0.4613010000000  0.3994330000000 1.0
C      1  0.4765920000000  0.6084140000000  0.4864590000000 1.0
C      1  0.4370640000000  0.4433550000000  0.4294430000000 1.0
C      1  0.4365240000000  0.4603350000000  0.5710880000000 1.0
C      1  0.5222400000000  0.5061350000000  0.5620910000000 1.0
C      1  0.5198560000000  0.4443200000000  0.6067180000000 1.0
C      1  0.5213060000000  0.5804460000000  0.5671710000000 1.0
C      1  0.5510680000000  0.4346320000000  0.5603850000000 1.0
C      1  0.5392120000000  0.5183260000000  0.6041840000000 1.0
C      1  0.4570600000000  0.4098650000000  0.4836960000000 1.0
C      1  0.5290850000000  0.5862010000000  0.4940370000000 1.0
C      1  0.4750570000000  0.4978610000000  0.5613570000000 1.0
C      1  0.5312840000000  0.4669700000000  0.5922990000000 1.0
C      1  0.4207670000000  0.5638360000000  0.5420820000000 1.0
C      1  0.5304950000000  0.5138670000000  0.4558970000000 1.0
C      1  0.4525960000000  0.5501970000000  0.5113990000000 1.0
C      1  0.5486010000000  0.5441890000000  0.4138480000000 1.0
C      1  0.5367940000000  0.5538680000000  0.4938060000000 1.0
C      1  0.5822640000000  0.4270970000000  0.4685810000000 1.0
C      1  0.4363380000000  0.4926000000000  0.4186230000000 1.0
C      1  0.5480840000000  0.5174130000000  0.5753030000000 1.0
C      1  0.4549870000000  0.5675290000000  0.4136330000000 1.0
C      1  0.5301030000000  0.5944070000000  0.5427830000000 1.0
C      1  0.5081670000000  0.5759720000000  0.4156110000000 1.0
C      1  0.4699940000000  0.4324570000000  0.5002230000000 1.0
C      1  0.5357610000000  0.4544820000000  0.5419710000000 1.0
C      1  0.4214130000000  0.5248250000000  0.5750660000000 1.0
C      1  0.4988330000000  0.5509140000000  0.4033470000000 1.0
C      1  0.4967620000000  0.4404700000000  0.4245030000000 1.0
C      1  0.5572010000000  0.4138450000000  0.4770240000000 1.0
C      1  0.4240340000000  0.4618820000000  0.5447050000000 1.0
C      1  0.4485170000000  0.4848940000000  0.5866880000000 1.0
C      1  0.5578800000000  0.4559970000000  0.5807810000000 1.0
C      1  0.4839110000000  0.5024020000000  0.4258970000000 1.0
C      1  0.6089380000000  0.5393760000000  0.5090820000000 1.0
C      1  0.4987250000000  0.3957990000000  0.4907450000000 1.0
C      1  0.5592650000000  0.4037190000000  0.5040760000000 1.0
C      1  0.5902910000000  0.5595920000000  0.5484410000000 1.0
C      1  0.5963190000000  0.4833510000000  0.4993230000000 1.0
C      1  0.4331750000000  0.5497210000000  0.5643780000000 1.0
C      1  0.4573520000000  0.5135190000000  0.4166010000000 1.0
C      1  0.4834560000000  0.4863040000000  0.4527040000000 1.0
C      1  0.5382130000000  0.4053430000000  0.4573540000000 1.0
C      1  0.5085480000000  0.5465070000000  0.5023160000000 1.0
C      1  0.4407290000000  0.5134490000000  0.4631480000000 1.0
C      1  0.4916520000000  0.5828040000000  0.4410760000000 1.0
C      1  0.4697020000000  0.5496060000000  0.5985810000000 1.0
C      1  0.5860520000000  0.5050120000000  0.4802340000000 1.0
C      1  0.3940390000000  0.5183190000000  0.4739620000000 1.0
C      1  0.4737960000000  0.5795440000000  0.5612850000000 1.0
C      1  0.5102550000000  0.4116580000000  0.4659990000000 1.0
C      1  0.4263180000000  0.4932180000000  0.4467630000000 1.0
C      1  0.4963060000000  0.5133430000000  0.5775150000000 1.0
C      1  0.5563430000000  0.4669010000000  0.4665900000000 1.0
C      1  0.5465540000000  0.5864520000000  0.4460900000000 1.0
C      1  0.5859730000000  0.5359140000000  0.4916360000000 1.0
C      1  0.4269880000000  0.5309460000000  0.5077740000000 1.0
C      1  0.4923040000000  0.4108170000000  0.5457410000000 1.0
C      1  0.5858660000000  0.5112370000000  0.5407780000000 1.0
C      1  0.4191090000000  0.4967330000000  0.5107010000000 1.0
C      1  0.4638240000000  0.4168590000000  0.4534200000000 1.0
C      1  0.3970620000000  0.4949580000000  0.4530920000000 1.0
C      1  0.4719100000000  0.5368400000000  0.5306460000000 1.0
C      1  0.5330660000000  0.5095380000000  0.4049380000000 1.0
C      1  0.4654220000000  0.5579410000000  0.4855210000000 1.0
C      1  0.4253290000000  0.4101420000000  0.4843540000000 1.0
C      1  0.5797820000000  0.4530980000000  0.4518500000000 1.0
C      1  0.4920420000000  0.4140130000000  0.4417240000000 1.0
C      1  0.5724060000000  0.4803300000000  0.4142400000000 1.0
C      1  0.4702250000000  0.5510540000000  0.3969870000000 1.0
C      1  0.5451680000000  0.4141650000000  0.4318360000000 1.0
C      1  0.4169040000000  0.4137380000000  0.4554630000000 1.0
C      1  0.5012430000000  0.4343370000000  0.5892600000000 1.0
C      1  0.5013550000000  0.5433810000000  0.5325940000000 1.0
C      1  0.4094820000000  0.5066800000000  0.5577800000000 1.0
C      1  0.4900920000000  0.4708970000000  0.5581660000000 1.0
C      1  0.5238020000000  0.4926100000000  0.6095720000000 1.0
C      1  0.5131690000000  0.4870940000000  0.4650460000000 1.0
C      1  0.4741970000000  0.4758120000000  0.6022230000000 1.0
C      1  0.4784990000000  0.5068160000000  0.4997390000000 1.0
C      1  0.4397530000000  0.4752100000000  0.4955110000000 1.0
C      1  0.4067320000000  0.5777750000000  0.4873230000000 1.0
C      1  0.5965740000000  0.4975890000000  0.4527640000000 1.0
C      1  0.4058350000000  0.5465450000000  0.5232130000000 1.0
C      1  0.5271270000000  0.6006950000000  0.4671880000000 1.0
C      1  0.5106920000000  0.4415210000000  0.4743700000000 1.0
C      1  0.4215480000000  0.4362460000000  0.5276600000000 1.0
C      1  0.5572110000000  0.4961480000000  0.4774460000000 1.0
C      1  0.5526830000000  0.5455120000000  0.5672280000000 1.0
END
