TITL C-950525-1983-206 3.02920103256873e-05 125000 -149.010285594447 0 0 26 (C1) n - 1
REM
REM in /home/bkarasulu/work/CARBON/AIRSS/Generating-Clusters/EDIP-Nigel-Params/with-SteepDescent/Only-C1/SD-CG/HFTN-CG
REM
REM
REM
REM
REM
REM ./C.cell (11c1c37f851c82e70ff6c80c92926a4b)
REM
REM compiler GCC version 9.2.1 20190827 (Red Hat 9.2.1-1)
REM options -cpp -mtune=generic -march=x86-64 -g -O0 -fpre-include=/usr/include/finclude/math-vector-fortran.h
REM seed -1936467133 -51614272 1879205196 -1111259548 -525513060 1012710905 -1185725391 1070636995 -1617339313 1821778425 -492768802 -594696848 2108414295 364245549 -1221722482 285847794 233120960 245635618 628868711 1871913660 -356907337 1166476867 1034990302 -2038948767 -1657471865 365078687 -1135321598 -1960894162 2049195260 777939768 1621071318 1062020669 1913630001
REM
CELL 1.54180   50.00000   50.00000   50.00000   90.00000   90.00000   90.00000
LATT -1
SFAC C  
C      1  0.5662490000000  0.5080850000000  0.4330910000000 1.0
C      1  0.4736780000000  0.5367190000000  0.4950860000000 1.0
C      1  0.5232490000000  0.4519370000000  0.5097550000000 1.0
C      1  0.5482350000000  0.5331940000000  0.5001870000000 1.0
C      1  0.4476990000000  0.4872670000000  0.5095400000000 1.0
C      1  0.5230590000000  0.4993320000000  0.4577370000000 1.0
C      1  0.4450040000000  0.5133680000000  0.5507850000000 1.0
C      1  0.5035020000000  0.4789460000000  0.4603220000000 1.0
C      1  0.5113870000000  0.5253330000000  0.4659640000000 1.0
C      1  0.5060820000000  0.4862130000000  0.5425520000000 1.0
C      1  0.4986590000000  0.4392980000000  0.5120080000000 1.0
C      1  0.5393830000000  0.4990190000000  0.4339790000000 1.0
C      1  0.4664990000000  0.4747870000000  0.4937280000000 1.0
C      1  0.4845870000000  0.5191690000000  0.4763180000000 1.0
C      1  0.4921750000000  0.4859150000000  0.5650740000000 1.0
C      1  0.4972980000000  0.5326390000000  0.5354530000000 1.0
C      1  0.5331840000000  0.5124460000000  0.5105110000000 1.0
C      1  0.5265870000000  0.5411470000000  0.4850170000000 1.0
C      1  0.4756680000000  0.4497450000000  0.5009900000000 1.0
C      1  0.5615220000000  0.4817060000000  0.4301190000000 1.0
C      1  0.4494440000000  0.5362840000000  0.5357840000000 1.0
C      1  0.5151580000000  0.5116100000000  0.5326010000000 1.0
C      1  0.4844410000000  0.4903420000000  0.4775920000000 1.0
C      1  0.4338690000000  0.5018840000000  0.5280990000000 1.0
C      1  0.5191200000000  0.4619200000000  0.5352560000000 1.0
C      1  0.4742630000000  0.5416950000000  0.5224510000000 1.0
END
