TITL C-951335-1172-71 -4.01169593531645e-07 125000 -354.665510275693 0 0 58 (C1) n - 1
REM
REM in /home/bkarasulu/work/CARBON/AIRSS/Generating-Clusters/EDIP-Nigel-Params/with-SteepDescent/Only-C1/SD-CG/HFTN-CG
REM
REM
REM
REM
REM
REM ./C.cell (11c1c37f851c82e70ff6c80c92926a4b)
REM
REM compiler GCC version 9.2.1 20190827 (Red Hat 9.2.1-1)
REM options -cpp -mtune=generic -march=x86-64 -g -O0 -fpre-include=/usr/include/finclude/math-vector-fortran.h
REM seed 1200065890 1948679354 -1805232600 -526708606 882556923 -153896442 -1045650596 -811477534 601718298 -77446134 780474149 -1902333269 -214609022 -341728710 -357666847 257064729 16333644 1719334044 -628253682 -2032575904 -1862256194 2085240455 1701413736 751819187 -1639416614 2028494419 1759084293 734089722 -890490544 -405463885 -2044374632 2134774468 376092376
REM
CELL 1.54180   50.00000   50.00000   50.00000   90.00000   90.00000   90.00000
LATT -1
SFAC C  
C      1  0.4993420000000  0.4826090000000  0.4794960000000 1.0
C      1  0.5326030000000  0.5450010000000  0.4667400000000 1.0
C      1  0.4696530000000  0.5203590000000  0.4267020000000 1.0
C      1  0.5041380000000  0.5374730000000  0.4268250000000 1.0
C      1  0.5045370000000  0.4400310000000  0.5212880000000 1.0
C      1  0.5372000000000  0.4777920000000  0.5383100000000 1.0
C      1  0.5689010000000  0.4785090000000  0.5075280000000 1.0
C      1  0.4567400000000  0.4896500000000  0.5548890000000 1.0
C      1  0.5173150000000  0.5242490000000  0.4500440000000 1.0
C      1  0.5402110000000  0.4618240000000  0.4281160000000 1.0
C      1  0.4902200000000  0.5233020000000  0.5682960000000 1.0
C      1  0.4345050000000  0.4632270000000  0.5076950000000 1.0
C      1  0.4764920000000  0.5634590000000  0.5119280000000 1.0
C      1  0.5634470000000  0.4672560000000  0.4589770000000 1.0
C      1  0.5149410000000  0.4592600000000  0.4379160000000 1.0
C      1  0.4764460000000  0.4378310000000  0.5078290000000 1.0
C      1  0.4508220000000  0.5340380000000  0.5383620000000 1.0
C      1  0.4912930000000  0.5651830000000  0.4859950000000 1.0
C      1  0.5278800000000  0.5416190000000  0.5135390000000 1.0
C      1  0.4553560000000  0.5431560000000  0.5102160000000 1.0
C      1  0.5547320000000  0.4837220000000  0.4809850000000 1.0
C      1  0.4781780000000  0.5466410000000  0.4372380000000 1.0
C      1  0.5521350000000  0.5277950000000  0.5056470000000 1.0
C      1  0.5027020000000  0.4741420000000  0.5649760000000 1.0
C      1  0.5283460000000  0.4496850000000  0.5050690000000 1.0
C      1  0.4526600000000  0.4532080000000  0.4652060000000 1.0
C      1  0.5390560000000  0.5094250000000  0.5685540000000 1.0
C      1  0.4691400000000  0.4707820000000  0.4470320000000 1.0
C      1  0.5568340000000  0.4837450000000  0.4364760000000 1.0
C      1  0.4950750000000  0.5000000000000  0.5242920000000 1.0
C      1  0.5264340000000  0.4787220000000  0.4933060000000 1.0
C      1  0.5249370000000  0.4978760000000  0.5176640000000 1.0
C      1  0.5542680000000  0.5274170000000  0.4763200000000 1.0
C      1  0.5620790000000  0.5070890000000  0.5515290000000 1.0
C      1  0.5187090000000  0.5504720000000  0.5398770000000 1.0
C      1  0.4245330000000  0.4937390000000  0.4723830000000 1.0
C      1  0.5046220000000  0.4517420000000  0.5475940000000 1.0
C      1  0.4726540000000  0.5448600000000  0.5560570000000 1.0
C      1  0.5198360000000  0.5573840000000  0.4902260000000 1.0
C      1  0.4859610000000  0.4967240000000  0.5534450000000 1.0
C      1  0.4690260000000  0.5024930000000  0.4507430000000 1.0
C      1  0.4907060000000  0.5622670000000  0.5388580000000 1.0
C      1  0.4391900000000  0.5099250000000  0.5466860000000 1.0
C      1  0.4626640000000  0.4630420000000  0.5150830000000 1.0
C      1  0.4307000000000  0.4672570000000  0.4797970000000 1.0
C      1  0.4527210000000  0.4646620000000  0.5423150000000 1.0
C      1  0.5185040000000  0.5309240000000  0.5629230000000 1.0
C      1  0.4689550000000  0.4343540000000  0.4803300000000 1.0
C      1  0.4516130000000  0.5370070000000  0.4808170000000 1.0
C      1  0.4954510000000  0.4613870000000  0.4574960000000 1.0
C      1  0.4758600000000  0.5475660000000  0.4672710000000 1.0
C      1  0.5424010000000  0.5074160000000  0.4456300000000 1.0
C      1  0.5645640000000  0.5056790000000  0.5222590000000 1.0
C      1  0.4462860000000  0.5108130000000  0.4686730000000 1.0
C      1  0.5280550000000  0.4832240000000  0.5755390000000 1.0
C      1  0.5527410000000  0.4569530000000  0.5221330000000 1.0
C      1  0.4958570000000  0.5082330000000  0.4648790000000 1.0
C      1  0.4797720000000  0.4858000000000  0.5039970000000 1.0
END
