TITL C-950528-5794-733 -5.96626744765162e-07 125000 -1173.59341164177 0 0 185 (C1) n - 1
REM
REM in /home/bkarasulu/work/CARBON/AIRSS/Generating-Clusters/EDIP-Nigel-Params/with-SteepDescent/Only-C1/SD-CG/HFTN-CG
REM
REM
REM
REM
REM
REM ./C.cell (11c1c37f851c82e70ff6c80c92926a4b)
REM
REM compiler GCC version 9.2.1 20190827 (Red Hat 9.2.1-1)
REM options -cpp -mtune=generic -march=x86-64 -g -O0 -fpre-include=/usr/include/finclude/math-vector-fortran.h
REM seed 1025709649 -490260169 2038793481 -1441442728 964971419 491249746 -874544716 1462812069 -2047819912 2014033237 -576393676 -1533484345 -508659149 1287029746 864909354 -1012950594 -1860400397 -1008297065 -1834293153 647319274 1967547358 -680883127 1650969421 -1443379270 -1108714161 1596301489 1869086134 546362679 -1156703367 1478753060 -138424442 1292990664 1384400456
REM
CELL 1.54180   50.00000   50.00000   50.00000   90.00000   90.00000   90.00000
LATT -1
SFAC C  
C      1  0.5159640000000  0.4671930000000  0.4661580000000 1.0
C      1  0.4132510000000  0.4144420000000  0.5577250000000 1.0
C      1  0.4227840000000  0.4980960000000  0.5392490000000 1.0
C      1  0.4478760000000  0.5187270000000  0.4395080000000 1.0
C      1  0.5073310000000  0.3962910000000  0.4762200000000 1.0
C      1  0.4683320000000  0.5726080000000  0.4397860000000 1.0
C      1  0.5351800000000  0.4054530000000  0.4718170000000 1.0
C      1  0.5859920000000  0.5728030000000  0.5125310000000 1.0
C      1  0.4980860000000  0.5087120000000  0.5676180000000 1.0
C      1  0.4666810000000  0.5890630000000  0.4710780000000 1.0
C      1  0.5301600000000  0.5129950000000  0.6039990000000 1.0
C      1  0.5435180000000  0.4960290000000  0.5008360000000 1.0
C      1  0.4602080000000  0.4168580000000  0.5306100000000 1.0
C      1  0.4596620000000  0.4014850000000  0.4819010000000 1.0
C      1  0.5900670000000  0.5194000000000  0.5617270000000 1.0
C      1  0.4968170000000  0.6112630000000  0.5308810000000 1.0
C      1  0.4375730000000  0.5667720000000  0.4408020000000 1.0
C      1  0.5061710000000  0.5779740000000  0.4073070000000 1.0
C      1  0.5127440000000  0.4295170000000  0.5079320000000 1.0
C      1  0.5023570000000  0.4171960000000  0.5802060000000 1.0
C      1  0.3984640000000  0.4663320000000  0.4447720000000 1.0
C      1  0.4042650000000  0.5572700000000  0.4725830000000 1.0
C      1  0.5554190000000  0.4955040000000  0.5496360000000 1.0
C      1  0.5715170000000  0.4846390000000  0.5942510000000 1.0
C      1  0.4658220000000  0.4896990000000  0.3876130000000 1.0
C      1  0.5656670000000  0.4282960000000  0.4399860000000 1.0
C      1  0.4149190000000  0.5734500000000  0.5217820000000 1.0
C      1  0.4070660000000  0.4789740000000  0.5557960000000 1.0
C      1  0.5410730000000  0.5125720000000  0.4533430000000 1.0
C      1  0.5586970000000  0.4906330000000  0.4597170000000 1.0
C      1  0.5442560000000  0.5263140000000  0.5463670000000 1.0
C      1  0.4000340000000  0.4416240000000  0.4577880000000 1.0
C      1  0.5402270000000  0.4843700000000  0.5979500000000 1.0
C      1  0.4545210000000  0.5469160000000  0.5267280000000 1.0
C      1  0.5040010000000  0.3764610000000  0.5484000000000 1.0
C      1  0.5238180000000  0.4372230000000  0.5853050000000 1.0
C      1  0.4968540000000  0.4971310000000  0.4331020000000 1.0
C      1  0.5773320000000  0.4451440000000  0.4635630000000 1.0
C      1  0.5005140000000  0.5157500000000  0.5972740000000 1.0
C      1  0.4231250000000  0.4724790000000  0.4318440000000 1.0
C      1  0.5488250000000  0.5577700000000  0.5770540000000 1.0
C      1  0.5452380000000  0.5909200000000  0.4528700000000 1.0
C      1  0.4903190000000  0.4504690000000  0.5068580000000 1.0
C      1  0.5488500000000  0.4284060000000  0.5713650000000 1.0
C      1  0.4873580000000  0.5446630000000  0.5995830000000 1.0
C      1  0.4620480000000  0.4157810000000  0.4157240000000 1.0
C      1  0.4444850000000  0.5146000000000  0.4690350000000 1.0
C      1  0.4296260000000  0.5957590000000  0.5085910000000 1.0
C      1  0.4125700000000  0.5120450000000  0.4916810000000 1.0
C      1  0.4736360000000  0.5411420000000  0.5465890000000 1.0
C      1  0.5260380000000  0.6096350000000  0.5362330000000 1.0
C      1  0.5289020000000  0.5988220000000  0.5621190000000 1.0
C      1  0.4702830000000  0.4439030000000  0.4833860000000 1.0
C      1  0.4175070000000  0.4889560000000  0.5103260000000 1.0
C      1  0.4863100000000  0.5838540000000  0.5380600000000 1.0
C      1  0.5211730000000  0.4597420000000  0.6042870000000 1.0
C      1  0.5554620000000  0.4511630000000  0.4862970000000 1.0
C      1  0.5974100000000  0.4791710000000  0.5008050000000 1.0
C      1  0.5674310000000  0.5843040000000  0.5320820000000 1.0
C      1  0.5400240000000  0.4250570000000  0.4942810000000 1.0
C      1  0.4810360000000  0.5235390000000  0.4296740000000 1.0
C      1  0.5152480000000  0.3942810000000  0.5674270000000 1.0
C      1  0.5357200000000  0.4814660000000  0.5687560000000 1.0
C      1  0.4469180000000  0.4857100000000  0.4742550000000 1.0
C      1  0.5023860000000  0.5964760000000  0.4286350000000 1.0
C      1  0.4842820000000  0.6131080000000  0.4804140000000 1.0
C      1  0.3928440000000  0.5115670000000  0.4690020000000 1.0
C      1  0.5592240000000  0.4138430000000  0.5153710000000 1.0
C      1  0.5258370000000  0.5760770000000  0.5782250000000 1.0
C      1  0.5574310000000  0.4439850000000  0.4162910000000 1.0
C      1  0.5316690000000  0.4392230000000  0.4059370000000 1.0
C      1  0.4432670000000  0.4788770000000  0.5016880000000 1.0
C      1  0.5538000000000  0.5905170000000  0.4814270000000 1.0
C      1  0.4265600000000  0.4962580000000  0.4159890000000 1.0
C      1  0.5654430000000  0.5479770000000  0.4434940000000 1.0
C      1  0.4448120000000  0.5089850000000  0.3970070000000 1.0
C      1  0.4534900000000  0.5986800000000  0.5234540000000 1.0
C      1  0.4889090000000  0.4570510000000  0.5667300000000 1.0
C      1  0.5508930000000  0.5301310000000  0.5902140000000 1.0
C      1  0.4935160000000  0.5004930000000  0.3874310000000 1.0
C      1  0.5407740000000  0.4895440000000  0.4062060000000 1.0
C      1  0.4624110000000  0.4623320000000  0.3956490000000 1.0
C      1  0.6025110000000  0.4496820000000  0.5045200000000 1.0
C      1  0.4548830000000  0.4931370000000  0.5451590000000 1.0
C      1  0.5952030000000  0.5246660000000  0.4784440000000 1.0
C      1  0.4353510000000  0.4081030000000  0.5723960000000 1.0
C      1  0.5195370000000  0.6048010000000  0.4501300000000 1.0
C      1  0.5754750000000  0.5716390000000  0.4856050000000 1.0
C      1  0.4275530000000  0.5409630000000  0.4303650000000 1.0
C      1  0.5243760000000  0.5359560000000  0.4044410000000 1.0
C      1  0.5408400000000  0.5415940000000  0.5173600000000 1.0
C      1  0.4950640000000  0.5298630000000  0.4001380000000 1.0
C      1  0.4214900000000  0.5774900000000  0.4620400000000 1.0
C      1  0.4949970000000  0.5077520000000  0.4791000000000 1.0
C      1  0.5078680000000  0.4808410000000  0.5587270000000 1.0
C      1  0.6011620000000  0.5255730000000  0.5068980000000 1.0
C      1  0.5326130000000  0.5215660000000  0.4981370000000 1.0
C      1  0.4701530000000  0.5282000000000  0.4818160000000 1.0
C      1  0.4133090000000  0.5277830000000  0.5402290000000 1.0
C      1  0.6065720000000  0.4994700000000  0.5483590000000 1.0
C      1  0.6068030000000  0.4745570000000  0.5607210000000 1.0
C      1  0.5394660000000  0.5636060000000  0.4420730000000 1.0
C      1  0.5911230000000  0.5466070000000  0.5514670000000 1.0
C      1  0.5905190000000  0.5084240000000  0.4261560000000 1.0
C      1  0.5141350000000  0.5518770000000  0.4615760000000 1.0
C      1  0.5024310000000  0.4010240000000  0.5057090000000 1.0
C      1  0.4999580000000  0.5423580000000  0.5336900000000 1.0
C      1  0.4602310000000  0.5228540000000  0.5087740000000 1.0
C      1  0.5457330000000  0.5176530000000  0.4096120000000 1.0
C      1  0.5070790000000  0.5697170000000  0.4865290000000 1.0
C      1  0.5443830000000  0.5960550000000  0.5172220000000 1.0
C      1  0.5606770000000  0.4721230000000  0.4197560000000 1.0
C      1  0.5718210000000  0.4422690000000  0.5586300000000 1.0
C      1  0.5993310000000  0.5493710000000  0.5234620000000 1.0
C      1  0.4735550000000  0.4181210000000  0.5788130000000 1.0
C      1  0.5969700000000  0.4694550000000  0.4540850000000 1.0
C      1  0.4871400000000  0.5484140000000  0.4466850000000 1.0
C      1  0.6019700000000  0.4384830000000  0.4777850000000 1.0
C      1  0.4431410000000  0.4521470000000  0.4401770000000 1.0
C      1  0.4760540000000  0.5800130000000  0.5673650000000 1.0
C      1  0.5788620000000  0.4707750000000  0.5671560000000 1.0
C      1  0.4261050000000  0.4313020000000  0.4564330000000 1.0
C      1  0.5875590000000  0.4806870000000  0.4275640000000 1.0
C      1  0.4826820000000  0.4120550000000  0.4649570000000 1.0
C      1  0.5167060000000  0.5615230000000  0.5164610000000 1.0
C      1  0.5613200000000  0.4581340000000  0.5151490000000 1.0
C      1  0.4335360000000  0.4142800000000  0.4796180000000 1.0
C      1  0.5299780000000  0.5627090000000  0.4132060000000 1.0
C      1  0.4296580000000  0.5542120000000  0.5429330000000 1.0
C      1  0.4444440000000  0.4708930000000  0.5873220000000 1.0
C      1  0.4020100000000  0.4561490000000  0.5407930000000 1.0
C      1  0.4771900000000  0.5653090000000  0.4872950000000 1.0
C      1  0.5142290000000  0.4798010000000  0.5300600000000 1.0
C      1  0.4655990000000  0.4666500000000  0.4614910000000 1.0
C      1  0.4571020000000  0.5457290000000  0.5943400000000 1.0
C      1  0.4978040000000  0.5674040000000  0.5833260000000 1.0
C      1  0.5153560000000  0.5272420000000  0.5518030000000 1.0
C      1  0.4862460000000  0.6227510000000  0.5070110000000 1.0
C      1  0.4597540000000  0.5628960000000  0.4031630000000 1.0
C      1  0.4530080000000  0.4424150000000  0.4138620000000 1.0
C      1  0.4724310000000  0.3992250000000  0.5093070000000 1.0
C      1  0.5427140000000  0.4014900000000  0.5610740000000 1.0
C      1  0.4173340000000  0.4741100000000  0.5811100000000 1.0
C      1  0.4341520000000  0.4258290000000  0.5159550000000 1.0
C      1  0.4503600000000  0.5188950000000  0.5843240000000 1.0
C      1  0.4493130000000  0.5659200000000  0.5722910000000 1.0
C      1  0.4113430000000  0.4305970000000  0.5353410000000 1.0
C      1  0.6063600000000  0.5001980000000  0.5190920000000 1.0
C      1  0.4930120000000  0.4660560000000  0.6031640000000 1.0
C      1  0.5411870000000  0.4143140000000  0.4453940000000 1.0
C      1  0.4686420000000  0.5151970000000  0.5608790000000 1.0
C      1  0.5775020000000  0.4361180000000  0.5280780000000 1.0
C      1  0.5700170000000  0.5272200000000  0.4230680000000 1.0
C      1  0.4591830000000  0.4665510000000  0.5605630000000 1.0
C      1  0.5698410000000  0.5663270000000  0.5572320000000 1.0
C      1  0.4010900000000  0.5300740000000  0.5129930000000 1.0
C      1  0.5759610000000  0.5140080000000  0.5871590000000 1.0
C      1  0.4462350000000  0.4498170000000  0.5019210000000 1.0
C      1  0.4649240000000  0.4940590000000  0.5169170000000 1.0
C      1  0.5438980000000  0.4813380000000  0.5249770000000 1.0
C      1  0.5067150000000  0.4527590000000  0.4068950000000 1.0
C      1  0.4590680000000  0.4048950000000  0.5584590000000 1.0
C      1  0.5182450000000  0.3831230000000  0.5246490000000 1.0
C      1  0.4839830000000  0.4929950000000  0.6089230000000 1.0
C      1  0.5801640000000  0.5482110000000  0.4685950000000 1.0
C      1  0.4828530000000  0.4169670000000  0.4344420000000 1.0
C      1  0.4008100000000  0.5566070000000  0.5022390000000 1.0
C      1  0.5102190000000  0.4837410000000  0.4077310000000 1.0
C      1  0.5212980000000  0.5241010000000  0.4714400000000 1.0
C      1  0.4931030000000  0.4844200000000  0.4592400000000 1.0
C      1  0.3859400000000  0.4879290000000  0.4563500000000 1.0
C      1  0.5455560000000  0.3939270000000  0.5326410000000 1.0
C      1  0.5172320000000  0.4438240000000  0.4508040000000 1.0
C      1  0.5100740000000  0.5997100000000  0.4780140000000 1.0
C      1  0.4861930000000  0.5587890000000  0.3946780000000 1.0
C      1  0.4378940000000  0.5928150000000  0.4797820000000 1.0
C      1  0.4549380000000  0.4953150000000  0.6023330000000 1.0
C      1  0.5889550000000  0.4932370000000  0.4733190000000 1.0
C      1  0.4664670000000  0.5720090000000  0.5154170000000 1.0
C      1  0.4405240000000  0.5403510000000  0.4017240000000 1.0
C      1  0.4760060000000  0.4432130000000  0.5341060000000 1.0
C      1  0.4938440000000  0.4825910000000  0.5083780000000 1.0
C      1  0.5413430000000  0.4759370000000  0.4784340000000 1.0
C      1  0.4959080000000  0.4426290000000  0.4324510000000 1.0
C      1  0.3982360000000  0.5355000000000  0.4538340000000 1.0
END
