TITL C-951342-2639-107 -1.1332240124568e-06 125000 -640.102295347103 0 0 105 (C1) n - 1
REM
REM in /home/bkarasulu/work/CARBON/AIRSS/Generating-Clusters/EDIP-Nigel-Params/with-SteepDescent/Only-C1/SD-CG/HFTN-CG
REM
REM
REM
REM
REM
REM ./C.cell (11c1c37f851c82e70ff6c80c92926a4b)
REM
REM compiler GCC version 9.2.1 20190827 (Red Hat 9.2.1-1)
REM options -cpp -mtune=generic -march=x86-64 -g -O0 -fpre-include=/usr/include/finclude/math-vector-fortran.h
REM seed 1699249403 -2144511618 1846452497 -1739499720 802942074 913500057 -62139299 -1178222827 315667972 956614085 1386334466 -2079548874 1647823141 -608572941 -630494506 -2088223237 -360126615 161888654 1168149561 226071780 258977312 -648368201 -1448567431 -546867440 -1810832762 -1595464601 255316258 1609628886 -1325293319 1496079202 1701283614 -896215709 790921183
REM
CELL 1.54180   50.00000   50.00000   50.00000   90.00000   90.00000   90.00000
LATT -1
SFAC C  
C      1  0.5579760000000  0.5370410000000  0.5070480000000 1.0
C      1  0.5355180000000  0.5465670000000  0.5765260000000 1.0
C      1  0.4258770000000  0.5494700000000  0.4908170000000 1.0
C      1  0.5253060000000  0.5041150000000  0.4544570000000 1.0
C      1  0.4870860000000  0.4367120000000  0.4454450000000 1.0
C      1  0.4737900000000  0.5110080000000  0.4486830000000 1.0
C      1  0.4496380000000  0.4720340000000  0.4393130000000 1.0
C      1  0.4434150000000  0.4359360000000  0.5465970000000 1.0
C      1  0.5115200000000  0.5024820000000  0.5879820000000 1.0
C      1  0.5074580000000  0.5209520000000  0.5135760000000 1.0
C      1  0.5523670000000  0.5664340000000  0.4988780000000 1.0
C      1  0.5686170000000  0.4857450000000  0.5450630000000 1.0
C      1  0.4290770000000  0.4526000000000  0.4856280000000 1.0
C      1  0.5261400000000  0.4717380000000  0.5283770000000 1.0
C      1  0.4568810000000  0.4485940000000  0.5672510000000 1.0
C      1  0.5784360000000  0.4531240000000  0.4920070000000 1.0
C      1  0.4564040000000  0.4421580000000  0.4453130000000 1.0
C      1  0.5391840000000  0.5739390000000  0.4739920000000 1.0
C      1  0.4858740000000  0.5098010000000  0.4200370000000 1.0
C      1  0.5033050000000  0.4592700000000  0.4318220000000 1.0
C      1  0.5083980000000  0.5571050000000  0.5828270000000 1.0
C      1  0.4563110000000  0.5632890000000  0.5337970000000 1.0
C      1  0.4999810000000  0.5415550000000  0.4749540000000 1.0
C      1  0.4912030000000  0.5739880000000  0.4356810000000 1.0
C      1  0.5475570000000  0.4225900000000  0.5137510000000 1.0
C      1  0.4268650000000  0.4952250000000  0.4431470000000 1.0
C      1  0.4983090000000  0.5141020000000  0.4649420000000 1.0
C      1  0.4714390000000  0.4846890000000  0.5265010000000 1.0
C      1  0.4705470000000  0.4322530000000  0.4861750000000 1.0
C      1  0.5230290000000  0.5959470000000  0.4833730000000 1.0
C      1  0.5544200000000  0.5106820000000  0.5524340000000 1.0
C      1  0.4318710000000  0.5334670000000  0.4688450000000 1.0
C      1  0.4651550000000  0.4845060000000  0.4633830000000 1.0
C      1  0.4431130000000  0.4946710000000  0.4858760000000 1.0
C      1  0.5397640000000  0.4216630000000  0.4640310000000 1.0
C      1  0.4784610000000  0.5866920000000  0.4573440000000 1.0
C      1  0.5414220000000  0.5829760000000  0.5431150000000 1.0
C      1  0.4415740000000  0.4819740000000  0.5162890000000 1.0
C      1  0.4802460000000  0.5982470000000  0.5053000000000 1.0
C      1  0.4921130000000  0.4793640000000  0.4132980000000 1.0
C      1  0.5020150000000  0.4540710000000  0.5177330000000 1.0
C      1  0.4062680000000  0.4651420000000  0.4749130000000 1.0
C      1  0.5115960000000  0.4249680000000  0.4729510000000 1.0
C      1  0.4510110000000  0.5819100000000  0.4627830000000 1.0
C      1  0.4731970000000  0.5653260000000  0.5573630000000 1.0
C      1  0.5433330000000  0.5884430000000  0.5154930000000 1.0
C      1  0.4616710000000  0.5261020000000  0.4998580000000 1.0
C      1  0.4247150000000  0.5005950000000  0.5341050000000 1.0
C      1  0.5038860000000  0.4700310000000  0.5732960000000 1.0
C      1  0.5102180000000  0.4314330000000  0.5367000000000 1.0
C      1  0.5235980000000  0.5971330000000  0.5589910000000 1.0
C      1  0.5563290000000  0.4325770000000  0.4871070000000 1.0
C      1  0.5109600000000  0.4523410000000  0.4874160000000 1.0
C      1  0.5113130000000  0.5315320000000  0.4164690000000 1.0
C      1  0.5213540000000  0.4094280000000  0.5189330000000 1.0
C      1  0.5408780000000  0.5248770000000  0.4687570000000 1.0
C      1  0.4963800000000  0.5088960000000  0.5405310000000 1.0
C      1  0.5134610000000  0.5567000000000  0.4331310000000 1.0
C      1  0.5252800000000  0.5511600000000  0.4612500000000 1.0
C      1  0.4244970000000  0.4523470000000  0.5322800000000 1.0
C      1  0.4699510000000  0.4487400000000  0.5131720000000 1.0
C      1  0.4646980000000  0.4967220000000  0.5683580000000 1.0
C      1  0.5587920000000  0.4592830000000  0.5551520000000 1.0
C      1  0.4632860000000  0.4790210000000  0.4139620000000 1.0
C      1  0.4133150000000  0.4449860000000  0.5074450000000 1.0
C      1  0.5721980000000  0.4836500000000  0.4518580000000 1.0
C      1  0.5431670000000  0.4333950000000  0.4393030000000 1.0
C      1  0.5787430000000  0.5219410000000  0.4780960000000 1.0
C      1  0.5417820000000  0.4783560000000  0.4551440000000 1.0
C      1  0.4942370000000  0.5953440000000  0.4810100000000 1.0
C      1  0.4759460000000  0.4053860000000  0.4987360000000 1.0
C      1  0.5605940000000  0.5229960000000  0.4292490000000 1.0
C      1  0.4159120000000  0.4920350000000  0.4704590000000 1.0
C      1  0.4739680000000  0.4698370000000  0.5718680000000 1.0
C      1  0.5453450000000  0.4502970000000  0.5781530000000 1.0
C      1  0.5345940000000  0.5159830000000  0.5002190000000 1.0
C      1  0.4626650000000  0.4247960000000  0.5290830000000 1.0
C      1  0.5894590000000  0.4992040000000  0.4940700000000 1.0
C      1  0.5376400000000  0.4664920000000  0.4828190000000 1.0
C      1  0.4428540000000  0.5204290000000  0.4465980000000 1.0
C      1  0.5602890000000  0.5354250000000  0.5373070000000 1.0
C      1  0.4880100000000  0.5420090000000  0.5683660000000 1.0
C      1  0.5192480000000  0.4442270000000  0.5685430000000 1.0
C      1  0.4792170000000  0.5490380000000  0.4941910000000 1.0
C      1  0.5164330000000  0.4894280000000  0.5512800000000 1.0
C      1  0.5777530000000  0.5124400000000  0.4487390000000 1.0
C      1  0.4839710000000  0.5159200000000  0.5807920000000 1.0
C      1  0.4512270000000  0.5349460000000  0.5267180000000 1.0
C      1  0.5525990000000  0.4434330000000  0.5326130000000 1.0
C      1  0.5892220000000  0.4750720000000  0.4750870000000 1.0
C      1  0.4648520000000  0.5732720000000  0.5061260000000 1.0
C      1  0.5030760000000  0.5839540000000  0.5722150000000 1.0
C      1  0.4234530000000  0.5280250000000  0.5223790000000 1.0
C      1  0.5374080000000  0.5210660000000  0.4154270000000 1.0
C      1  0.4875360000000  0.4646700000000  0.4723090000000 1.0
C      1  0.4452070000000  0.4336620000000  0.4712060000000 1.0
C      1  0.5045050000000  0.4044680000000  0.4939100000000 1.0
C      1  0.4384080000000  0.5015370000000  0.5590450000000 1.0
C      1  0.4823640000000  0.5042750000000  0.5044470000000 1.0
C      1  0.4405720000000  0.5751620000000  0.4885020000000 1.0
C      1  0.5442160000000  0.5554500000000  0.5503920000000 1.0
C      1  0.5709940000000  0.4826130000000  0.5139910000000 1.0
C      1  0.5380630000000  0.5168220000000  0.5775510000000 1.0
C      1  0.5420810000000  0.4857630000000  0.5058130000000 1.0
C      1  0.5325400000000  0.4587090000000  0.4343630000000 1.0
END
