TITL C-950529-3362-47 -2.1188082021389e-06 125000 -685.623974587534 0 0 110 (C1) n - 1
REM
REM in /home/bkarasulu/work/CARBON/AIRSS/Generating-Clusters/EDIP-Nigel-Params/with-SteepDescent/Only-C1/SD-CG/HFTN-CG
REM
REM
REM
REM
REM
REM ./C.cell (11c1c37f851c82e70ff6c80c92926a4b)
REM
REM compiler GCC version 9.2.1 20190827 (Red Hat 9.2.1-1)
REM options -cpp -mtune=generic -march=x86-64 -g -O0 -fpre-include=/usr/include/finclude/math-vector-fortran.h
REM seed -1190084412 957228264 816943145 -458095224 -714004813 1656415419 1919571221 -446139173 -1034700748 -73585475 -1370340859 147519523 -24795620 -1590482935 -1240025985 230621793 1570620754 829061186 -424687883 1404011688 -1077095381 174536214 46391319 1187340662 1526301180 -1309992990 259160695 2118833167 1047720454 251061580 98691068 1906886174 959568019
REM
CELL 1.54180   50.00000   50.00000   50.00000   90.00000   90.00000   90.00000
LATT -1
SFAC C  
C      1  0.5463860000000  0.5423100000000  0.5860340000000 1.0
C      1  0.4355420000000  0.5390870000000  0.5370320000000 1.0
C      1  0.4413270000000  0.4651820000000  0.5733010000000 1.0
C      1  0.4970560000000  0.5068750000000  0.5006540000000 1.0
C      1  0.5679650000000  0.5168700000000  0.4621830000000 1.0
C      1  0.5360920000000  0.4273070000000  0.4631690000000 1.0
C      1  0.5281800000000  0.4778100000000  0.4697160000000 1.0
C      1  0.4650360000000  0.5704010000000  0.4774590000000 1.0
C      1  0.4895470000000  0.4453860000000  0.5567750000000 1.0
C      1  0.5599580000000  0.5240470000000  0.5128490000000 1.0
C      1  0.4444240000000  0.4373600000000  0.4587060000000 1.0
C      1  0.4301880000000  0.4620110000000  0.4540850000000 1.0
C      1  0.5396680000000  0.5054420000000  0.4574280000000 1.0
C      1  0.4070920000000  0.4603320000000  0.4995500000000 1.0
C      1  0.4873080000000  0.4192420000000  0.4718540000000 1.0
C      1  0.4729430000000  0.4363460000000  0.4527440000000 1.0
C      1  0.5528470000000  0.4903690000000  0.5163230000000 1.0
C      1  0.5026070000000  0.4915620000000  0.5256120000000 1.0
C      1  0.4417750000000  0.4293880000000  0.4862870000000 1.0
C      1  0.4801950000000  0.4950990000000  0.4535280000000 1.0
C      1  0.4361700000000  0.4732940000000  0.4274760000000 1.0
C      1  0.5241890000000  0.4934410000000  0.4097270000000 1.0
C      1  0.4803300000000  0.4656960000000  0.4973820000000 1.0
C      1  0.4003970000000  0.4994780000000  0.5244100000000 1.0
C      1  0.4972230000000  0.5218900000000  0.5923130000000 1.0
C      1  0.5571490000000  0.5061520000000  0.5782330000000 1.0
C      1  0.4875770000000  0.4995360000000  0.5492820000000 1.0
C      1  0.5601710000000  0.5633010000000  0.5338440000000 1.0
C      1  0.5443270000000  0.4095190000000  0.5244200000000 1.0
C      1  0.5118640000000  0.5343530000000  0.5022110000000 1.0
C      1  0.4080870000000  0.5009490000000  0.4755350000000 1.0
C      1  0.5155700000000  0.5725440000000  0.5492230000000 1.0
C      1  0.5729270000000  0.4738100000000  0.5309810000000 1.0
C      1  0.4481370000000  0.5086400000000  0.5803790000000 1.0
C      1  0.4676960000000  0.5129340000000  0.4958520000000 1.0
C      1  0.5125960000000  0.5809000000000  0.4637750000000 1.0
C      1  0.4948510000000  0.5385080000000  0.4545970000000 1.0
C      1  0.5464110000000  0.4994370000000  0.4276650000000 1.0
C      1  0.6015180000000  0.5238990000000  0.4946480000000 1.0
C      1  0.4435180000000  0.5482770000000  0.4840040000000 1.0
C      1  0.4989100000000  0.4321410000000  0.5311560000000 1.0
C      1  0.5376410000000  0.5550470000000  0.4589590000000 1.0
C      1  0.4164310000000  0.4710020000000  0.5613200000000 1.0
C      1  0.5810560000000  0.5653820000000  0.5146230000000 1.0
C      1  0.4273060000000  0.5370060000000  0.5072900000000 1.0
C      1  0.5129280000000  0.4532780000000  0.4249700000000 1.0
C      1  0.5684590000000  0.4822260000000  0.4244000000000 1.0
C      1  0.4359340000000  0.4554770000000  0.5040740000000 1.0
C      1  0.5146040000000  0.4227030000000  0.4828310000000 1.0
C      1  0.4889240000000  0.5789890000000  0.5414380000000 1.0
C      1  0.5622830000000  0.4316920000000  0.4772590000000 1.0
C      1  0.4329060000000  0.5402740000000  0.4578510000000 1.0
C      1  0.5652070000000  0.4257140000000  0.5335050000000 1.0
C      1  0.5200070000000  0.4667910000000  0.4014240000000 1.0
C      1  0.4685370000000  0.5290910000000  0.5870550000000 1.0
C      1  0.4127340000000  0.4958580000000  0.5490250000000 1.0
C      1  0.5402140000000  0.4711530000000  0.4968110000000 1.0
C      1  0.4758160000000  0.4984080000000  0.4235380000000 1.0
C      1  0.5896420000000  0.5037600000000  0.4774830000000 1.0
C      1  0.4806950000000  0.5840600000000  0.4980110000000 1.0
C      1  0.5656970000000  0.5459570000000  0.4690720000000 1.0
C      1  0.4485200000000  0.4835360000000  0.5932340000000 1.0
C      1  0.5589790000000  0.4510960000000  0.5446410000000 1.0
C      1  0.4102090000000  0.5134150000000  0.5022390000000 1.0
C      1  0.5173040000000  0.5404560000000  0.5801120000000 1.0
C      1  0.4682570000000  0.4169490000000  0.4941380000000 1.0
C      1  0.5103730000000  0.4599740000000  0.5715380000000 1.0
C      1  0.5080580000000  0.5364560000000  0.4276700000000 1.0
C      1  0.4650080000000  0.5449630000000  0.5616980000000 1.0
C      1  0.4235370000000  0.5132120000000  0.4549650000000 1.0
C      1  0.4873630000000  0.5669440000000  0.4575620000000 1.0
C      1  0.5619620000000  0.4597500000000  0.4398310000000 1.0
C      1  0.4290280000000  0.5022350000000  0.4281310000000 1.0
C      1  0.4524930000000  0.5179370000000  0.4192290000000 1.0
C      1  0.5652290000000  0.5519850000000  0.5611480000000 1.0
C      1  0.4656250000000  0.4701110000000  0.4157400000000 1.0
C      1  0.5367440000000  0.5806500000000  0.5310690000000 1.0
C      1  0.5776890000000  0.4539980000000  0.4645810000000 1.0
C      1  0.4085230000000  0.4716730000000  0.4731870000000 1.0
C      1  0.4836510000000  0.4494890000000  0.4289690000000 1.0
C      1  0.5320690000000  0.5300570000000  0.5257300000000 1.0
C      1  0.4697450000000  0.5374600000000  0.5182480000000 1.0
C      1  0.5333750000000  0.4537650000000  0.4482230000000 1.0
C      1  0.5202610000000  0.5323910000000  0.4712290000000 1.0
C      1  0.4321770000000  0.5154340000000  0.5559730000000 1.0
C      1  0.5749310000000  0.5248620000000  0.5661850000000 1.0
C      1  0.4615520000000  0.4559150000000  0.5543630000000 1.0
C      1  0.4888850000000  0.5626970000000  0.5155520000000 1.0
C      1  0.4527020000000  0.5412100000000  0.4368370000000 1.0
C      1  0.5778740000000  0.5416230000000  0.4978650000000 1.0
C      1  0.5336420000000  0.4968890000000  0.5636810000000 1.0
C      1  0.5071650000000  0.5947690000000  0.4885640000000 1.0
C      1  0.4977400000000  0.4826830000000  0.4756170000000 1.0
C      1  0.5365630000000  0.4529250000000  0.5624590000000 1.0
C      1  0.5276590000000  0.5934430000000  0.5078390000000 1.0
C      1  0.5866000000000  0.4750570000000  0.4847950000000 1.0
C      1  0.5344310000000  0.5478700000000  0.4300890000000 1.0
C      1  0.5927140000000  0.4672610000000  0.5115700000000 1.0
C      1  0.5053070000000  0.4911080000000  0.5733550000000 1.0
C      1  0.4710010000000  0.5728540000000  0.5621360000000 1.0
C      1  0.4559940000000  0.4824630000000  0.4993840000000 1.0
C      1  0.5297320000000  0.4999960000000  0.5344330000000 1.0
C      1  0.5135130000000  0.5431840000000  0.5510860000000 1.0
C      1  0.4853260000000  0.5298230000000  0.5453850000000 1.0
C      1  0.5015290000000  0.5112890000000  0.4133100000000 1.0
C      1  0.5187480000000  0.4178260000000  0.5131450000000 1.0
C      1  0.4505620000000  0.4437490000000  0.5305510000000 1.0
C      1  0.5495370000000  0.4423660000000  0.5022220000000 1.0
C      1  0.4711930000000  0.5204770000000  0.4636580000000 1.0
C      1  0.4761490000000  0.4387320000000  0.5134970000000 1.0
END
