TITL C-950522-5749-666 -1.22281814412908e-06 125000 -461.52034560669 0 0 75 (C1) n - 1
REM
REM in /home/bkarasulu/work/CARBON/AIRSS/Generating-Clusters/EDIP-Nigel-Params/with-SteepDescent/Only-C1/SD-CG/HFTN-CG
REM
REM
REM
REM
REM
REM ./C.cell (11c1c37f851c82e70ff6c80c92926a4b)
REM
REM compiler GCC version 9.2.1 20190827 (Red Hat 9.2.1-1)
REM options -cpp -mtune=generic -march=x86-64 -g -O0 -fpre-include=/usr/include/finclude/math-vector-fortran.h
REM seed 196829498 1651165947 834176117 1027876819 2060950348 618515555 -852426612 1675131763 -289430861 -1286909870 -1210723951 -1045950737 535606720 -106131112 10155482 868961325 844404585 1600234346 -1545924322 -1441478755 -984584387 245251558 -1114540425 819829496 1596362717 111835360 -458113760 597890371 1387364590 330671121 -403940681 -534605675 -190456976
REM
CELL 1.54180   50.00000   50.00000   50.00000   90.00000   90.00000   90.00000
LATT -1
SFAC C  
C      1  0.5645220000000  0.5026950000000  0.5380640000000 1.0
C      1  0.4362520000000  0.4941370000000  0.4484570000000 1.0
C      1  0.4977150000000  0.4646460000000  0.4175420000000 1.0
C      1  0.4747650000000  0.4270550000000  0.5167550000000 1.0
C      1  0.4686560000000  0.4499450000000  0.4791840000000 1.0
C      1  0.4400420000000  0.5235320000000  0.5327150000000 1.0
C      1  0.5092920000000  0.5546340000000  0.5720890000000 1.0
C      1  0.4788700000000  0.4836950000000  0.5726740000000 1.0
C      1  0.5279150000000  0.5533600000000  0.4823100000000 1.0
C      1  0.5104990000000  0.5094790000000  0.4607860000000 1.0
C      1  0.5238390000000  0.5451430000000  0.4320670000000 1.0
C      1  0.5017010000000  0.4189260000000  0.5179470000000 1.0
C      1  0.4862460000000  0.4432440000000  0.4324740000000 1.0
C      1  0.4631810000000  0.5357670000000  0.4443310000000 1.0
C      1  0.5568040000000  0.5459560000000  0.4852800000000 1.0
C      1  0.4798230000000  0.5060390000000  0.4617120000000 1.0
C      1  0.4659810000000  0.4858480000000  0.4428610000000 1.0
C      1  0.4714410000000  0.4973050000000  0.4889350000000 1.0
C      1  0.4395670000000  0.5233340000000  0.4562740000000 1.0
C      1  0.4883250000000  0.4995760000000  0.5324390000000 1.0
C      1  0.5246340000000  0.4455370000000  0.4812120000000 1.0
C      1  0.4770000000000  0.5629100000000  0.4842270000000 1.0
C      1  0.5190690000000  0.5655890000000  0.5481710000000 1.0
C      1  0.5831670000000  0.5063020000000  0.4917850000000 1.0
C      1  0.5243350000000  0.4733770000000  0.5228720000000 1.0
C      1  0.5486710000000  0.4489890000000  0.4629450000000 1.0
C      1  0.5071600000000  0.4457720000000  0.5649510000000 1.0
C      1  0.5275340000000  0.4287510000000  0.5064910000000 1.0
C      1  0.4456120000000  0.4595430000000  0.5400910000000 1.0
C      1  0.5259350000000  0.4699240000000  0.4238500000000 1.0
C      1  0.5815460000000  0.4777430000000  0.4897570000000 1.0
C      1  0.5204350000000  0.5204280000000  0.4191420000000 1.0
C      1  0.4498450000000  0.5509300000000  0.5248230000000 1.0
C      1  0.5208050000000  0.5416710000000  0.5112270000000 1.0
C      1  0.4951670000000  0.5122930000000  0.4106650000000 1.0
C      1  0.5140280000000  0.4714370000000  0.4937290000000 1.0
C      1  0.5650520000000  0.5456330000000  0.5142060000000 1.0
C      1  0.5125440000000  0.5401510000000  0.4582780000000 1.0
C      1  0.5105380000000  0.5133090000000  0.5112690000000 1.0
C      1  0.4691350000000  0.5636020000000  0.5422350000000 1.0
C      1  0.4805770000000  0.4703600000000  0.5277450000000 1.0
C      1  0.5288040000000  0.5119520000000  0.5725900000000 1.0
C      1  0.4399080000000  0.5283150000000  0.4852650000000 1.0
C      1  0.5464270000000  0.4409890000000  0.5254410000000 1.0
C      1  0.4286820000000  0.5115570000000  0.5063590000000 1.0
C      1  0.5401170000000  0.4491130000000  0.4360220000000 1.0
C      1  0.4994120000000  0.5724190000000  0.5012060000000 1.0
C      1  0.5529570000000  0.4991710000000  0.4561250000000 1.0
C      1  0.5049980000000  0.5273980000000  0.5777320000000 1.0
C      1  0.4497240000000  0.4404400000000  0.5183720000000 1.0
C      1  0.5638490000000  0.4744570000000  0.4676060000000 1.0
C      1  0.4564210000000  0.5292640000000  0.5670930000000 1.0
C      1  0.5541180000000  0.4690430000000  0.5270430000000 1.0
C      1  0.5666540000000  0.5207170000000  0.4719370000000 1.0
C      1  0.5407880000000  0.5464490000000  0.5341400000000 1.0
C      1  0.4415090000000  0.4509520000000  0.4915420000000 1.0
C      1  0.4830860000000  0.4709350000000  0.4961500000000 1.0
C      1  0.4530710000000  0.5518190000000  0.4961920000000 1.0
C      1  0.4633260000000  0.5565870000000  0.5691680000000 1.0
C      1  0.4232290000000  0.4844480000000  0.4978400000000 1.0
C      1  0.4955100000000  0.5714450000000  0.5310230000000 1.0
C      1  0.4236810000000  0.4780110000000  0.4700430000000 1.0
C      1  0.4689530000000  0.4566990000000  0.4502930000000 1.0
C      1  0.5047870000000  0.4519080000000  0.5367170000000 1.0
C      1  0.5038980000000  0.4700650000000  0.5772720000000 1.0
C      1  0.4803600000000  0.4889280000000  0.4158980000000 1.0
C      1  0.4721390000000  0.5156490000000  0.5125200000000 1.0
C      1  0.5340100000000  0.4973810000000  0.4321060000000 1.0
C      1  0.5791740000000  0.5191830000000  0.5183620000000 1.0
C      1  0.5443920000000  0.5203060000000  0.5494340000000 1.0
C      1  0.4569600000000  0.4683030000000  0.5640030000000 1.0
C      1  0.5208460000000  0.4990410000000  0.4866520000000 1.0
C      1  0.4793200000000  0.5130830000000  0.5735450000000 1.0
C      1  0.4840080000000  0.5499280000000  0.4590480000000 1.0
C      1  0.5266560000000  0.4854800000000  0.5806940000000 1.0
END
