TITL C-951341-1326-265 4.55382575074128e-07 125000 -437.412061662208 0 0 72 (C1) n - 1
REM
REM in /home/bkarasulu/work/CARBON/AIRSS/Generating-Clusters/EDIP-Nigel-Params/with-SteepDescent/Only-C1/SD-CG/HFTN-CG
REM
REM
REM
REM
REM
REM ./C.cell (11c1c37f851c82e70ff6c80c92926a4b)
REM
REM compiler GCC version 9.2.1 20190827 (Red Hat 9.2.1-1)
REM options -cpp -mtune=generic -march=x86-64 -g -O0 -fpre-include=/usr/include/finclude/math-vector-fortran.h
REM seed -1559330406 -155212892 -758562699 1185385330 2087504232 1882803593 -2075851957 -1003897065 1074155568 -1284176507 -554547457 -742199501 1497593085 270227842 580884022 752890308 431095426 341328853 -84162812 -2072437096 477259657 -711164294 -1406707759 -1558751070 78708191 1413079878 328908360 -357251497 -1312566616 614366440 -19533846 1336895361 -441123405
REM
CELL 1.54180   50.00000   50.00000   50.00000   90.00000   90.00000   90.00000
LATT -1
SFAC C  
C      1  0.5172650000000  0.4360600000000  0.4603510000000 1.0
C      1  0.4560650000000  0.5517240000000  0.5174160000000 1.0
C      1  0.5142490000000  0.5563310000000  0.4541440000000 1.0
C      1  0.5710590000000  0.5220250000000  0.5409550000000 1.0
C      1  0.5375380000000  0.5114980000000  0.4886830000000 1.0
C      1  0.5329720000000  0.4993570000000  0.5783050000000 1.0
C      1  0.5162140000000  0.5303960000000  0.4389280000000 1.0
C      1  0.4665000000000  0.4913000000000  0.5062650000000 1.0
C      1  0.4637320000000  0.4526980000000  0.5613590000000 1.0
C      1  0.4733000000000  0.4909840000000  0.4387960000000 1.0
C      1  0.4443560000000  0.4889060000000  0.4547330000000 1.0
C      1  0.4860390000000  0.4445160000000  0.5186230000000 1.0
C      1  0.5552880000000  0.4966240000000  0.5464040000000 1.0
C      1  0.5026560000000  0.5715050000000  0.5280290000000 1.0
C      1  0.5654920000000  0.5470420000000  0.5119050000000 1.0
C      1  0.4619520000000  0.4626830000000  0.5129530000000 1.0
C      1  0.4754040000000  0.5444340000000  0.4952810000000 1.0
C      1  0.4977410000000  0.5140660000000  0.4205030000000 1.0
C      1  0.4716140000000  0.4311850000000  0.4710880000000 1.0
C      1  0.5101100000000  0.4636060000000  0.5153940000000 1.0
C      1  0.5150680000000  0.4902920000000  0.4176050000000 1.0
C      1  0.5274760000000  0.5050890000000  0.5355600000000 1.0
C      1  0.5500670000000  0.5401840000000  0.5529020000000 1.0
C      1  0.5047820000000  0.4860340000000  0.5354090000000 1.0
C      1  0.4346020000000  0.4661950000000  0.4712690000000 1.0
C      1  0.5025930000000  0.4663370000000  0.4103870000000 1.0
C      1  0.4873170000000  0.5061040000000  0.4629760000000 1.0
C      1  0.5383750000000  0.4519830000000  0.5508520000000 1.0
C      1  0.4949000000000  0.5277190000000  0.5116250000000 1.0
C      1  0.5403470000000  0.5491820000000  0.5259700000000 1.0
C      1  0.5572690000000  0.4882850000000  0.4954670000000 1.0
C      1  0.4669120000000  0.5484270000000  0.4468850000000 1.0
C      1  0.4409330000000  0.5136930000000  0.4703940000000 1.0
C      1  0.4815700000000  0.5061820000000  0.5283640000000 1.0
C      1  0.4669440000000  0.5290790000000  0.4688490000000 1.0
C      1  0.5295950000000  0.4869220000000  0.4443510000000 1.0
C      1  0.4373260000000  0.5065810000000  0.4997420000000 1.0
C      1  0.4824970000000  0.4972910000000  0.5715670000000 1.0
C      1  0.4442860000000  0.5237240000000  0.5417140000000 1.0
C      1  0.5107300000000  0.4761270000000  0.4894330000000 1.0
C      1  0.4866840000000  0.5534310000000  0.5588880000000 1.0
C      1  0.5574070000000  0.4747510000000  0.5239350000000 1.0
C      1  0.4747580000000  0.5681360000000  0.5370350000000 1.0
C      1  0.5295490000000  0.5258100000000  0.5679620000000 1.0
C      1  0.5366680000000  0.4526940000000  0.5231110000000 1.0
C      1  0.4878220000000  0.4236180000000  0.4952230000000 1.0
C      1  0.5100540000000  0.5747310000000  0.4992910000000 1.0
C      1  0.4336890000000  0.5312310000000  0.5165010000000 1.0
C      1  0.4452690000000  0.4406810000000  0.4702840000000 1.0
C      1  0.5604330000000  0.4862440000000  0.4468490000000 1.0
C      1  0.5083910000000  0.4830730000000  0.5785350000000 1.0
C      1  0.4869610000000  0.4417930000000  0.5497370000000 1.0
C      1  0.4831340000000  0.5250970000000  0.5621070000000 1.0
C      1  0.5714240000000  0.5113110000000  0.4522950000000 1.0
C      1  0.5587000000000  0.4690180000000  0.4726490000000 1.0
C      1  0.5673330000000  0.5344680000000  0.4654520000000 1.0
C      1  0.5111890000000  0.4574950000000  0.5612690000000 1.0
C      1  0.5271200000000  0.4639810000000  0.4673200000000 1.0
C      1  0.4868210000000  0.5667390000000  0.4557030000000 1.0
C      1  0.4835780000000  0.4624700000000  0.4308420000000 1.0
C      1  0.4897950000000  0.4394400000000  0.4495850000000 1.0
C      1  0.5250070000000  0.5252000000000  0.5135380000000 1.0
C      1  0.4333480000000  0.4582710000000  0.5090050000000 1.0
C      1  0.4851650000000  0.4870960000000  0.4838030000000 1.0
C      1  0.5198940000000  0.5103710000000  0.4604680000000 1.0
C      1  0.4615900000000  0.4807530000000  0.5591500000000 1.0
C      1  0.4237740000000  0.4842060000000  0.5191250000000 1.0
C      1  0.4398500000000  0.4950140000000  0.5444670000000 1.0
C      1  0.5270560000000  0.5577330000000  0.4810900000000 1.0
C      1  0.5136780000000  0.4200360000000  0.4837290000000 1.0
C      1  0.5560290000000  0.5514200000000  0.4845850000000 1.0
C      1  0.4846990000000  0.5713170000000  0.4850330000000 1.0
END
