TITL C-950535-5962-181 -4.74925630126881e-06 125000 -1081.45444387608 0 0 173 (C1) n - 1
REM
REM in /home/bkarasulu/work/CARBON/AIRSS/Generating-Clusters/EDIP-Nigel-Params/with-SteepDescent/Only-C1/SD-CG/HFTN-CG
REM
REM
REM
REM
REM
REM ./C.cell (11c1c37f851c82e70ff6c80c92926a4b)
REM
REM compiler GCC version 9.2.1 20190827 (Red Hat 9.2.1-1)
REM options -cpp -mtune=generic -march=x86-64 -g -O0 -fpre-include=/usr/include/finclude/math-vector-fortran.h
REM seed -1441332031 -1013348537 793730911 949655906 792976352 -867360903 -922528337 644506044 -1172212221 -395402581 699139019 -1096027142 1040545396 181866164 -1366311120 1685670065 -428049755 1389090727 1466145619 1798164882 2034946557 676715215 -967748190 -718164639 871553992 -1129942751 1730744443 -364940024 239992161 -1375377746 -1158505759 2048272168 1449757088
REM
CELL 1.54180   50.00000   50.00000   50.00000   90.00000   90.00000   90.00000
LATT -1
SFAC C  
C      1  0.5340610000000  0.5258320000000  0.4369640000000 1.0
C      1  0.5804990000000  0.4527850000000  0.5419330000000 1.0
C      1  0.5447860000000  0.5361130000000  0.5265500000000 1.0
C      1  0.5575620000000  0.5056080000000  0.4115090000000 1.0
C      1  0.4853180000000  0.5428940000000  0.4307710000000 1.0
C      1  0.4522360000000  0.4744330000000  0.4160160000000 1.0
C      1  0.5032870000000  0.4291830000000  0.5732770000000 1.0
C      1  0.4325790000000  0.4262610000000  0.5312810000000 1.0
C      1  0.4169130000000  0.4326880000000  0.4834060000000 1.0
C      1  0.4537280000000  0.5847910000000  0.4297150000000 1.0
C      1  0.4661140000000  0.4172970000000  0.4568120000000 1.0
C      1  0.4764100000000  0.4628910000000  0.5993910000000 1.0
C      1  0.5405650000000  0.4208440000000  0.4458640000000 1.0
C      1  0.5277580000000  0.5300860000000  0.5044790000000 1.0
C      1  0.4502730000000  0.4940450000000  0.5528850000000 1.0
C      1  0.5374090000000  0.5498940000000  0.4597250000000 1.0
C      1  0.4493280000000  0.5853230000000  0.5459900000000 1.0
C      1  0.5321720000000  0.5054740000000  0.3979090000000 1.0
C      1  0.6080140000000  0.4669320000000  0.5008380000000 1.0
C      1  0.5040880000000  0.5741940000000  0.4166120000000 1.0
C      1  0.5455670000000  0.4981950000000  0.5539590000000 1.0
C      1  0.5845110000000  0.4300910000000  0.5229650000000 1.0
C      1  0.4434220000000  0.5291140000000  0.5193820000000 1.0
C      1  0.5740120000000  0.5709310000000  0.5142770000000 1.0
C      1  0.4222570000000  0.4052310000000  0.4788860000000 1.0
C      1  0.4135210000000  0.5061690000000  0.5799190000000 1.0
C      1  0.3910780000000  0.4419230000000  0.4996430000000 1.0
C      1  0.4933850000000  0.4086020000000  0.4940660000000 1.0
C      1  0.4130890000000  0.5469350000000  0.5452520000000 1.0
C      1  0.5116980000000  0.4696970000000  0.4435390000000 1.0
C      1  0.4557420000000  0.5752670000000  0.5019960000000 1.0
C      1  0.4476430000000  0.5916760000000  0.4781630000000 1.0
C      1  0.4659650000000  0.4494550000000  0.4091130000000 1.0
C      1  0.4780720000000  0.5739360000000  0.4018440000000 1.0
C      1  0.5090450000000  0.4200410000000  0.5157790000000 1.0
C      1  0.5525570000000  0.4756250000000  0.5017340000000 1.0
C      1  0.4388870000000  0.5508480000000  0.4174650000000 1.0
C      1  0.5471860000000  0.4162220000000  0.5493010000000 1.0
C      1  0.5530590000000  0.4027680000000  0.4947690000000 1.0
C      1  0.4348000000000  0.5343510000000  0.4407530000000 1.0
C      1  0.5015080000000  0.4498000000000  0.4650930000000 1.0
C      1  0.5283940000000  0.4887190000000  0.4598110000000 1.0
C      1  0.4912560000000  0.6048540000000  0.5132640000000 1.0
C      1  0.5821880000000  0.4617120000000  0.4575430000000 1.0
C      1  0.5980630000000  0.4924700000000  0.5726230000000 1.0
C      1  0.3754710000000  0.5096250000000  0.4806780000000 1.0
C      1  0.4467280000000  0.4303190000000  0.4199610000000 1.0
C      1  0.4818520000000  0.5469610000000  0.5022740000000 1.0
C      1  0.5860620000000  0.5306750000000  0.4464600000000 1.0
C      1  0.5619280000000  0.4108850000000  0.5223970000000 1.0
C      1  0.4597720000000  0.4674850000000  0.5441670000000 1.0
C      1  0.5811260000000  0.5462490000000  0.5667180000000 1.0
C      1  0.4888250000000  0.5137030000000  0.5929100000000 1.0
C      1  0.3918720000000  0.5324170000000  0.4702200000000 1.0
C      1  0.3952360000000  0.5365220000000  0.5224280000000 1.0
C      1  0.5207810000000  0.4541390000000  0.4087630000000 1.0
C      1  0.4695550000000  0.5181770000000  0.5695250000000 1.0
C      1  0.5437700000000  0.4446700000000  0.4280300000000 1.0
C      1  0.4751380000000  0.5025170000000  0.4810270000000 1.0
C      1  0.4347990000000  0.5382330000000  0.4911650000000 1.0
C      1  0.4778860000000  0.4809480000000  0.6205790000000 1.0
C      1  0.5107990000000  0.5561400000000  0.5030350000000 1.0
C      1  0.5872790000000  0.5058080000000  0.4870620000000 1.0
C      1  0.5488520000000  0.4912860000000  0.5839330000000 1.0
C      1  0.5934360000000  0.4791480000000  0.5267680000000 1.0
C      1  0.5052790000000  0.5964440000000  0.4378030000000 1.0
C      1  0.4343670000000  0.4441830000000  0.5061900000000 1.0
C      1  0.5778170000000  0.4579910000000  0.5991090000000 1.0
C      1  0.4003730000000  0.4711240000000  0.4976760000000 1.0
C      1  0.4543210000000  0.4036000000000  0.5275590000000 1.0
C      1  0.4659020000000  0.4956720000000  0.4033670000000 1.0
C      1  0.5194870000000  0.5872590000000  0.5763770000000 1.0
C      1  0.5952480000000  0.5503180000000  0.4665410000000 1.0
C      1  0.5097350000000  0.5726990000000  0.5542410000000 1.0
C      1  0.5619400000000  0.5146980000000  0.5346280000000 1.0
C      1  0.4347630000000  0.4870250000000  0.5767970000000 1.0
C      1  0.5838760000000  0.5396960000000  0.5936550000000 1.0
C      1  0.4121710000000  0.4918020000000  0.4523930000000 1.0
C      1  0.5475210000000  0.4523980000000  0.5188590000000 1.0
C      1  0.5545420000000  0.4951610000000  0.4490860000000 1.0
C      1  0.4383460000000  0.5764460000000  0.4552430000000 1.0
C      1  0.5364730000000  0.6140060000000  0.5100340000000 1.0
C      1  0.5534820000000  0.4474200000000  0.5895570000000 1.0
C      1  0.5157310000000  0.4818090000000  0.3967780000000 1.0
C      1  0.4949470000000  0.4123830000000  0.4210660000000 1.0
C      1  0.4778930000000  0.5506060000000  0.4586510000000 1.0
C      1  0.4272870000000  0.4728930000000  0.4341610000000 1.0
C      1  0.5512500000000  0.5644460000000  0.5325600000000 1.0
C      1  0.6007520000000  0.4807210000000  0.4746720000000 1.0
C      1  0.5249100000000  0.4594470000000  0.5403510000000 1.0
C      1  0.3678710000000  0.5123460000000  0.5090540000000 1.0
C      1  0.3966000000000  0.4366590000000  0.5285600000000 1.0
C      1  0.5419170000000  0.6007680000000  0.4860290000000 1.0
C      1  0.4763450000000  0.4635680000000  0.5191200000000 1.0
C      1  0.5456730000000  0.5805860000000  0.5788440000000 1.0
C      1  0.4784280000000  0.4270040000000  0.5599770000000 1.0
C      1  0.4892370000000  0.4881060000000  0.3905480000000 1.0
C      1  0.4331240000000  0.5646120000000  0.5323660000000 1.0
C      1  0.5729090000000  0.5439850000000  0.4257700000000 1.0
C      1  0.5648930000000  0.5824950000000  0.4881970000000 1.0
C      1  0.6036350000000  0.5011050000000  0.5468710000000 1.0
C      1  0.4076740000000  0.4599450000000  0.5443060000000 1.0
C      1  0.5148100000000  0.5234330000000  0.5936730000000 1.0
C      1  0.5145340000000  0.5001970000000  0.5109550000000 1.0
C      1  0.5146790000000  0.6143140000000  0.5267830000000 1.0
C      1  0.4058840000000  0.4849610000000  0.5260810000000 1.0
C      1  0.4781090000000  0.5076470000000  0.6179700000000 1.0
C      1  0.4589720000000  0.4549190000000  0.4654110000000 1.0
C      1  0.4697980000000  0.6083660000000  0.4684580000000 1.0
C      1  0.5136660000000  0.4064650000000  0.4451280000000 1.0
C      1  0.5962350000000  0.4395830000000  0.4976640000000 1.0
C      1  0.4655880000000  0.4074740000000  0.4286410000000 1.0
C      1  0.4893900000000  0.4899530000000  0.4335840000000 1.0
C      1  0.5262770000000  0.5564540000000  0.4061200000000 1.0
C      1  0.5311000000000  0.4340140000000  0.5010000000000 1.0
C      1  0.4844480000000  0.5297560000000  0.4774680000000 1.0
C      1  0.5302280000000  0.4646480000000  0.5957460000000 1.0
C      1  0.4650970000000  0.5940450000000  0.5227530000000 1.0
C      1  0.5697590000000  0.4587590000000  0.4301550000000 1.0
C      1  0.4065640000000  0.5426030000000  0.4943860000000 1.0
C      1  0.5161790000000  0.5939940000000  0.4683480000000 1.0
C      1  0.5451950000000  0.5301270000000  0.4794900000000 1.0
C      1  0.4372100000000  0.4491750000000  0.5535680000000 1.0
C      1  0.5121140000000  0.5638200000000  0.4720530000000 1.0
C      1  0.4736050000000  0.5251980000000  0.5214830000000 1.0
C      1  0.4979090000000  0.4443680000000  0.5324630000000 1.0
C      1  0.5511520000000  0.5585260000000  0.4186340000000 1.0
C      1  0.5025080000000  0.3923550000000  0.5410370000000 1.0
C      1  0.4499960000000  0.4012880000000  0.4773010000000 1.0
C      1  0.5777440000000  0.4843810000000  0.5898950000000 1.0
C      1  0.5882800000000  0.5282940000000  0.5428590000000 1.0
C      1  0.4613940000000  0.4454820000000  0.4970300000000 1.0
C      1  0.5719130000000  0.4951890000000  0.5118900000000 1.0
C      1  0.4090240000000  0.5205720000000  0.4463990000000 1.0
C      1  0.6014090000000  0.5337050000000  0.4917460000000 1.0
C      1  0.5938060000000  0.5472780000000  0.5172060000000 1.0
C      1  0.5580850000000  0.4184680000000  0.4705630000000 1.0
C      1  0.4462620000000  0.5492030000000  0.4634120000000 1.0
C      1  0.5606200000000  0.5657810000000  0.5605520000000 1.0
C      1  0.5143660000000  0.4559570000000  0.4893360000000 1.0
C      1  0.5220610000000  0.4888560000000  0.5394820000000 1.0
C      1  0.4941040000000  0.6067050000000  0.4842400000000 1.0
C      1  0.4485980000000  0.4625720000000  0.5878560000000 1.0
C      1  0.4838430000000  0.5593880000000  0.5548660000000 1.0
C      1  0.5034440000000  0.4542560000000  0.5880550000000 1.0
C      1  0.5196050000000  0.4097340000000  0.5570370000000 1.0
C      1  0.4760010000000  0.6034220000000  0.4401370000000 1.0
C      1  0.5271670000000  0.4819220000000  0.4893540000000 1.0
C      1  0.5226490000000  0.5767930000000  0.5271400000000 1.0
C      1  0.4845430000000  0.5312650000000  0.5480160000000 1.0
C      1  0.5037930000000  0.5188710000000  0.4292270000000 1.0
C      1  0.5710050000000  0.5674770000000  0.4652900000000 1.0
C      1  0.4654970000000  0.5487140000000  0.4078060000000 1.0
C      1  0.3822840000000  0.5017500000000  0.5312060000000 1.0
C      1  0.4221510000000  0.5320080000000  0.5703350000000 1.0
C      1  0.4752420000000  0.4012570000000  0.5481520000000 1.0
C      1  0.4627440000000  0.5644250000000  0.5750040000000 1.0
C      1  0.5187280000000  0.5306190000000  0.3954780000000 1.0
C      1  0.5713720000000  0.4810620000000  0.4134580000000 1.0
C      1  0.4346640000000  0.4458050000000  0.4450090000000 1.0
C      1  0.4653310000000  0.4126430000000  0.5009240000000 1.0
C      1  0.3913230000000  0.4849850000000  0.4728630000000 1.0
C      1  0.5801990000000  0.4373340000000  0.4731100000000 1.0
C      1  0.5679880000000  0.5150980000000  0.4661670000000 1.0
C      1  0.4318740000000  0.5028030000000  0.5301840000000 1.0
C      1  0.4836430000000  0.4967570000000  0.5091150000000 1.0
C      1  0.4942160000000  0.4408390000000  0.4146290000000 1.0
C      1  0.4952410000000  0.4199070000000  0.4655750000000 1.0
C      1  0.5404340000000  0.5148770000000  0.5996090000000 1.0
C      1  0.5608940000000  0.5324420000000  0.6058160000000 1.0
C      1  0.4497360000000  0.5386600000000  0.5799900000000 1.0
C      1  0.4730960000000  0.4830880000000  0.4594860000000 1.0
C      1  0.5547330000000  0.4433810000000  0.5599830000000 1.0
END
