TITL C-950535-5962-603 -4.69056953523127e-06 125000 -1191.44558764158 0 0 191 (C1) n - 1
REM
REM in /home/bkarasulu/work/CARBON/AIRSS/Generating-Clusters/EDIP-Nigel-Params/with-SteepDescent/Only-C1/SD-CG/HFTN-CG
REM
REM
REM
REM
REM
REM ./C.cell (11c1c37f851c82e70ff6c80c92926a4b)
REM
REM compiler GCC version 9.2.1 20190827 (Red Hat 9.2.1-1)
REM options -cpp -mtune=generic -march=x86-64 -g -O0 -fpre-include=/usr/include/finclude/math-vector-fortran.h
REM seed -1278279183 668183500 -927633640 490496951 -444616998 -901490366 -889896358 860464179 1215561616 579328020 531641578 1752516097 401120543 1654457900 1663997761 -41909199 -2119475441 1070349224 -465998433 -478314030 -1597607641 -224234218 -1164162243 1199817958 1772405540 -1752097615 -2102326952 -819780498 1504878351 -2123932853 -1964266137 -1922471769 -257574736
REM
CELL 1.54180   50.00000   50.00000   50.00000   90.00000   90.00000   90.00000
LATT -1
SFAC C  
C      1  0.4297160000000  0.4731600000000  0.4198170000000 1.0
C      1  0.4729420000000  0.6112890000000  0.5407040000000 1.0
C      1  0.4756690000000  0.4693050000000  0.4896660000000 1.0
C      1  0.4085840000000  0.5596630000000  0.5183390000000 1.0
C      1  0.5518240000000  0.5538340000000  0.5153300000000 1.0
C      1  0.5734180000000  0.5158540000000  0.4288730000000 1.0
C      1  0.4037790000000  0.5738470000000  0.4931600000000 1.0
C      1  0.4811760000000  0.4211020000000  0.5481220000000 1.0
C      1  0.5040900000000  0.4293100000000  0.4253260000000 1.0
C      1  0.5728980000000  0.4587120000000  0.4889320000000 1.0
C      1  0.5316410000000  0.3849000000000  0.5125040000000 1.0
C      1  0.4128050000000  0.5658350000000  0.5457920000000 1.0
C      1  0.5448680000000  0.5064880000000  0.5386770000000 1.0
C      1  0.5127650000000  0.5296060000000  0.4418170000000 1.0
C      1  0.6080380000000  0.5261350000000  0.4665070000000 1.0
C      1  0.5635240000000  0.4665110000000  0.4075540000000 1.0
C      1  0.4301960000000  0.5079200000000  0.5859610000000 1.0
C      1  0.5824400000000  0.4759690000000  0.5413930000000 1.0
C      1  0.5823670000000  0.5140530000000  0.5877880000000 1.0
C      1  0.4092800000000  0.5593750000000  0.4265080000000 1.0
C      1  0.4536750000000  0.5536180000000  0.5773860000000 1.0
C      1  0.4652730000000  0.3857080000000  0.4681470000000 1.0
C      1  0.5187020000000  0.6022380000000  0.5228010000000 1.0
C      1  0.5629010000000  0.4972870000000  0.4068300000000 1.0
C      1  0.4769240000000  0.5445820000000  0.5940530000000 1.0
C      1  0.5554390000000  0.4361620000000  0.4453310000000 1.0
C      1  0.4103020000000  0.4953030000000  0.5675170000000 1.0
C      1  0.5141300000000  0.3861060000000  0.4885660000000 1.0
C      1  0.5297470000000  0.5256400000000  0.4664880000000 1.0
C      1  0.4667250000000  0.3903540000000  0.5151340000000 1.0
C      1  0.5861280000000  0.4316430000000  0.4896900000000 1.0
C      1  0.5107910000000  0.4946930000000  0.3907200000000 1.0
C      1  0.5237080000000  0.4491620000000  0.4826080000000 1.0
C      1  0.4039720000000  0.4577560000000  0.5631390000000 1.0
C      1  0.5594990000000  0.4273740000000  0.5549910000000 1.0
C      1  0.5210750000000  0.4018990000000  0.4630440000000 1.0
C      1  0.4298890000000  0.4749000000000  0.4959790000000 1.0
C      1  0.5010320000000  0.5788670000000  0.5640150000000 1.0
C      1  0.5278920000000  0.4378820000000  0.5878230000000 1.0
C      1  0.4904790000000  0.6152540000000  0.5176320000000 1.0
C      1  0.4013840000000  0.5083850000000  0.4989350000000 1.0
C      1  0.4968100000000  0.4740660000000  0.5542340000000 1.0
C      1  0.5167980000000  0.5216250000000  0.4937290000000 1.0
C      1  0.4567160000000  0.4684420000000  0.6019270000000 1.0
C      1  0.4704650000000  0.4576570000000  0.4138060000000 1.0
C      1  0.5475890000000  0.5473000000000  0.4685730000000 1.0
C      1  0.4681880000000  0.5090630000000  0.4143780000000 1.0
C      1  0.6010100000000  0.4638170000000  0.4376510000000 1.0
C      1  0.5797140000000  0.5175060000000  0.4903990000000 1.0
C      1  0.4883040000000  0.5150930000000  0.3917930000000 1.0
C      1  0.4649150000000  0.4590460000000  0.4636030000000 1.0
C      1  0.5661530000000  0.4712610000000  0.5671920000000 1.0
C      1  0.4476500000000  0.5995190000000  0.5341040000000 1.0
C      1  0.4714090000000  0.6059230000000  0.4964910000000 1.0
C      1  0.5494520000000  0.5821030000000  0.5543520000000 1.0
C      1  0.6095800000000  0.5408280000000  0.5120210000000 1.0
C      1  0.5275850000000  0.4838440000000  0.4370090000000 1.0
C      1  0.5025910000000  0.5579710000000  0.5858520000000 1.0
C      1  0.4829740000000  0.5117170000000  0.5235880000000 1.0
C      1  0.4333690000000  0.5783730000000  0.4842370000000 1.0
C      1  0.4925640000000  0.4452280000000  0.4003340000000 1.0
C      1  0.4877000000000  0.5275400000000  0.5490510000000 1.0
C      1  0.5615650000000  0.5802990000000  0.5265090000000 1.0
C      1  0.5175460000000  0.4936230000000  0.5022500000000 1.0
C      1  0.5009650000000  0.4014370000000  0.4375580000000 1.0
C      1  0.5982920000000  0.4519790000000  0.5326030000000 1.0
C      1  0.5176790000000  0.4415070000000  0.5260710000000 1.0
C      1  0.4734270000000  0.5183980000000  0.4667730000000 1.0
C      1  0.6130050000000  0.4891840000000  0.4985220000000 1.0
C      1  0.4649850000000  0.5504560000000  0.5478700000000 1.0
C      1  0.5288940000000  0.5332100000000  0.4131200000000 1.0
C      1  0.5234160000000  0.5449580000000  0.5184380000000 1.0
C      1  0.4525290000000  0.3972590000000  0.4906720000000 1.0
C      1  0.5011550000000  0.4808510000000  0.4501040000000 1.0
C      1  0.3924380000000  0.5163900000000  0.5244470000000 1.0
C      1  0.4541010000000  0.4919100000000  0.4964040000000 1.0
C      1  0.4533310000000  0.4216970000000  0.4428250000000 1.0
C      1  0.5944950000000  0.4808800000000  0.4588920000000 1.0
C      1  0.6123580000000  0.5109160000000  0.5176970000000 1.0
C      1  0.4916370000000  0.4298790000000  0.5210440000000 1.0
C      1  0.5457670000000  0.4941140000000  0.6072990000000 1.0
C      1  0.5704960000000  0.5163540000000  0.5266040000000 1.0
C      1  0.6144910000000  0.4978180000000  0.4712220000000 1.0
C      1  0.4719240000000  0.3988240000000  0.4443630000000 1.0
C      1  0.4830040000000  0.5746810000000  0.5406480000000 1.0
C      1  0.4727550000000  0.6031080000000  0.4676610000000 1.0
C      1  0.5094720000000  0.4554090000000  0.6026710000000 1.0
C      1  0.5582570000000  0.5415100000000  0.4227800000000 1.0
C      1  0.4855670000000  0.5624360000000  0.3999960000000 1.0
C      1  0.5353430000000  0.5076970000000  0.4004730000000 1.0
C      1  0.5327770000000  0.4367570000000  0.4259390000000 1.0
C      1  0.6087070000000  0.4592620000000  0.5051930000000 1.0
C      1  0.4555890000000  0.5615800000000  0.4409570000000 1.0
C      1  0.4507850000000  0.4575990000000  0.5591810000000 1.0
C      1  0.5703910000000  0.4874570000000  0.5911790000000 1.0
C      1  0.6104280000000  0.5495040000000  0.4838110000000 1.0
C      1  0.4086930000000  0.5424710000000  0.5628770000000 1.0
C      1  0.6019340000000  0.5008890000000  0.5439640000000 1.0
C      1  0.4382590000000  0.5463050000000  0.4879480000000 1.0
C      1  0.3922920000000  0.4781460000000  0.4579250000000 1.0
C      1  0.5167420000000  0.5408230000000  0.5481670000000 1.0
C      1  0.5306770000000  0.6036660000000  0.4344420000000 1.0
C      1  0.5802570000000  0.5393630000000  0.5457370000000 1.0
C      1  0.5861080000000  0.5685210000000  0.4859970000000 1.0
C      1  0.4561970000000  0.4820130000000  0.4078600000000 1.0
C      1  0.4790900000000  0.4832030000000  0.5320070000000 1.0
C      1  0.5442450000000  0.4506220000000  0.5651360000000 1.0
C      1  0.5555030000000  0.5624630000000  0.4443840000000 1.0
C      1  0.4879050000000  0.5287040000000  0.4910810000000 1.0
C      1  0.5235060000000  0.4630480000000  0.5436660000000 1.0
C      1  0.4106660000000  0.5321030000000  0.4815570000000 1.0
C      1  0.5057390000000  0.5600340000000  0.4433260000000 1.0
C      1  0.4782990000000  0.4493120000000  0.5656270000000 1.0
C      1  0.4237060000000  0.4381200000000  0.5078630000000 1.0
C      1  0.5175250000000  0.3902210000000  0.5368560000000 1.0
C      1  0.5234080000000  0.5948750000000  0.5520270000000 1.0
C      1  0.4557120000000  0.4061720000000  0.5384140000000 1.0
C      1  0.5511410000000  0.4099000000000  0.4600420000000 1.0
C      1  0.4903980000000  0.4438000000000  0.4509510000000 1.0
C      1  0.4448490000000  0.5816780000000  0.5799850000000 1.0
C      1  0.4994940000000  0.5678750000000  0.4699100000000 1.0
C      1  0.5937080000000  0.5594180000000  0.5290920000000 1.0
C      1  0.4491430000000  0.5862830000000  0.4579940000000 1.0
C      1  0.5311540000000  0.5504670000000  0.5906220000000 1.0
C      1  0.5299730000000  0.5168130000000  0.5621730000000 1.0
C      1  0.4798140000000  0.4499290000000  0.5956010000000 1.0
C      1  0.4821720000000  0.5645360000000  0.4272650000000 1.0
C      1  0.4540270000000  0.5157300000000  0.5157920000000 1.0
C      1  0.4484220000000  0.4282600000000  0.4908010000000 1.0
C      1  0.5662200000000  0.5461990000000  0.4906120000000 1.0
C      1  0.5051880000000  0.4268360000000  0.4737630000000 1.0
C      1  0.4034340000000  0.4666520000000  0.5346120000000 1.0
C      1  0.5966700000000  0.5228460000000  0.5643350000000 1.0
C      1  0.4434460000000  0.5431390000000  0.5238190000000 1.0
C      1  0.3907710000000  0.5540040000000  0.4759060000000 1.0
C      1  0.5718440000000  0.5864430000000  0.4662210000000 1.0
C      1  0.5167210000000  0.4135590000000  0.5794020000000 1.0
C      1  0.5362840000000  0.4835710000000  0.5239640000000 1.0
C      1  0.5007720000000  0.5043800000000  0.6082060000000 1.0
C      1  0.5677890000000  0.4091860000000  0.4844100000000 1.0
C      1  0.5019010000000  0.5023570000000  0.5690860000000 1.0
C      1  0.4033880000000  0.5373050000000  0.4438100000000 1.0
C      1  0.4343320000000  0.4650660000000  0.4666820000000 1.0
C      1  0.4710910000000  0.4445120000000  0.5049360000000 1.0
C      1  0.5189070000000  0.4830800000000  0.6038880000000 1.0
C      1  0.4503980000000  0.5354320000000  0.4609040000000 1.0
C      1  0.5790950000000  0.4498800000000  0.4273580000000 1.0
C      1  0.4879860000000  0.5090290000000  0.4429580000000 1.0
C      1  0.5141510000000  0.4647290000000  0.3923290000000 1.0
C      1  0.4157750000000  0.4414290000000  0.4645090000000 1.0
C      1  0.5638530000000  0.4739510000000  0.5155230000000 1.0
C      1  0.4329600000000  0.4218210000000  0.5302540000000 1.0
C      1  0.5306230000000  0.5748420000000  0.4328030000000 1.0
C      1  0.5721400000000  0.5018550000000  0.4582230000000 1.0
C      1  0.4296700000000  0.5364670000000  0.5817090000000 1.0
C      1  0.4328060000000  0.5853010000000  0.5543820000000 1.0
C      1  0.5496770000000  0.4570440000000  0.4676360000000 1.0
C      1  0.4512330000000  0.4795820000000  0.5413900000000 1.0
C      1  0.5461510000000  0.5237840000000  0.5967550000000 1.0
C      1  0.4290070000000  0.4567560000000  0.5778920000000 1.0
C      1  0.5463490000000  0.4852250000000  0.4593540000000 1.0
C      1  0.5345620000000  0.4632140000000  0.4146710000000 1.0
C      1  0.5460010000000  0.6010740000000  0.5085580000000 1.0
C      1  0.4486890000000  0.4406990000000  0.4215020000000 1.0
C      1  0.4216080000000  0.4855260000000  0.4461810000000 1.0
C      1  0.4468300000000  0.5948930000000  0.5057820000000 1.0
C      1  0.3882520000000  0.4838250000000  0.4878960000000 1.0
C      1  0.4359350000000  0.5549080000000  0.4189970000000 1.0
C      1  0.5268190000000  0.6121460000000  0.4620780000000 1.0
C      1  0.5022240000000  0.5676720000000  0.5157380000000 1.0
C      1  0.5470330000000  0.5979670000000  0.4791970000000 1.0
C      1  0.4413200000000  0.5250190000000  0.4166520000000 1.0
C      1  0.5603430000000  0.3927880000000  0.5082080000000 1.0
C      1  0.4236960000000  0.4885240000000  0.5314390000000 1.0
C      1  0.5780380000000  0.4300590000000  0.5333780000000 1.0
C      1  0.4298700000000  0.4175540000000  0.4581120000000 1.0
C      1  0.4547520000000  0.4970890000000  0.5962980000000 1.0
C      1  0.3976540000000  0.5175930000000  0.5520650000000 1.0
C      1  0.4931280000000  0.4042490000000  0.5040580000000 1.0
C      1  0.5027060000000  0.5408890000000  0.3954320000000 1.0
C      1  0.3918680000000  0.4603300000000  0.5074210000000 1.0
C      1  0.4874370000000  0.5580660000000  0.4925450000000 1.0
C      1  0.5028590000000  0.4026150000000  0.5578330000000 1.0
C      1  0.5756050000000  0.4011830000000  0.5313120000000 1.0
C      1  0.5357510000000  0.4405120000000  0.5065010000000 1.0
C      1  0.5056240000000  0.4747150000000  0.4827310000000 1.0
C      1  0.5465320000000  0.5566240000000  0.5672080000000 1.0
C      1  0.4286050000000  0.5186390000000  0.4437040000000 1.0
C      1  0.4976380000000  0.6094530000000  0.4539540000000 1.0
C      1  0.4761750000000  0.5159870000000  0.6015820000000 1.0
C      1  0.3902610000000  0.4496170000000  0.4545410000000 1.0
END
