TITL C-951348-1603-357 1.10089740777371e-06 125000 -371.639387160264 0 0 61 (C1) n - 1
REM
REM in /home/bkarasulu/work/CARBON/AIRSS/Generating-Clusters/EDIP-Nigel-Params/with-SteepDescent/Only-C1/SD-CG/HFTN-CG
REM
REM
REM
REM
REM
REM ./C.cell (11c1c37f851c82e70ff6c80c92926a4b)
REM
REM compiler GCC version 9.2.1 20190827 (Red Hat 9.2.1-1)
REM options -cpp -mtune=generic -march=x86-64 -g -O0 -fpre-include=/usr/include/finclude/math-vector-fortran.h
REM seed 795617057 1382978110 -1217557175 1385596321 -560355033 -1219739382 -1184920050 1310581949 -1850444374 981253497 -100762192 1384084347 622664667 47753208 -197639572 1690628471 612749755 -379831205 587139567 -1978309698 -1638680428 -1958057327 -1857844735 -235524772 1173553715 23768748 -1990178778 -1724529208 -1728800392 -1307154075 -1883838682 1943332674 -1389648811
REM
CELL 1.54180   50.00000   50.00000   50.00000   90.00000   90.00000   90.00000
LATT -1
SFAC C  
C      1  0.5367570000000  0.4634220000000  0.5473380000000 1.0
C      1  0.5324930000000  0.5290780000000  0.4980560000000 1.0
C      1  0.5026280000000  0.4910300000000  0.5469350000000 1.0
C      1  0.5030840000000  0.4925070000000  0.4450010000000 1.0
C      1  0.5498160000000  0.4829160000000  0.5634690000000 1.0
C      1  0.5031980000000  0.4226110000000  0.4769240000000 1.0
C      1  0.4950970000000  0.4467740000000  0.4649990000000 1.0
C      1  0.4445890000000  0.5350620000000  0.5264650000000 1.0
C      1  0.5411070000000  0.4669790000000  0.4519680000000 1.0
C      1  0.4716330000000  0.4384470000000  0.5259850000000 1.0
C      1  0.5546350000000  0.4905780000000  0.5154530000000 1.0
C      1  0.4902120000000  0.5287090000000  0.4798710000000 1.0
C      1  0.4900530000000  0.4591200000000  0.5656980000000 1.0
C      1  0.4926860000000  0.5012610000000  0.5759940000000 1.0
C      1  0.4788110000000  0.4835970000000  0.5040070000000 1.0
C      1  0.5078350000000  0.4846010000000  0.4948880000000 1.0
C      1  0.4657870000000  0.4902470000000  0.5756950000000 1.0
C      1  0.4641530000000  0.4519900000000  0.5513720000000 1.0
C      1  0.4444950000000  0.5475840000000  0.4789510000000 1.0
C      1  0.4896170000000  0.5431830000000  0.4436080000000 1.0
C      1  0.5293860000000  0.4567670000000  0.4976560000000 1.0
C      1  0.4858260000000  0.5676970000000  0.4618820000000 1.0
C      1  0.5446200000000  0.5281470000000  0.5461880000000 1.0
C      1  0.4463150000000  0.4464780000000  0.4852350000000 1.0
C      1  0.4539340000000  0.4293780000000  0.5061980000000 1.0
C      1  0.5142340000000  0.5580190000000  0.5173170000000 1.0
C      1  0.5065460000000  0.5040280000000  0.4726180000000 1.0
C      1  0.5143050000000  0.5223360000000  0.5436270000000 1.0
C      1  0.5103310000000  0.5800790000000  0.4722690000000 1.0
C      1  0.5470980000000  0.4627830000000  0.5210380000000 1.0
C      1  0.5567170000000  0.5002970000000  0.4641020000000 1.0
C      1  0.5443000000000  0.5457410000000  0.5213020000000 1.0
C      1  0.5396730000000  0.5453360000000  0.4500690000000 1.0
C      1  0.4604030000000  0.5228490000000  0.4725000000000 1.0
C      1  0.4660520000000  0.5227880000000  0.4426500000000 1.0
C      1  0.4612070000000  0.5699930000000  0.4768460000000 1.0
C      1  0.5654300000000  0.4832940000000  0.4859550000000 1.0
C      1  0.5117860000000  0.4482500000000  0.5492790000000 1.0
C      1  0.5157200000000  0.4307770000000  0.5008370000000 1.0
C      1  0.5171840000000  0.5339230000000  0.4341420000000 1.0
C      1  0.4575830000000  0.4782660000000  0.4559380000000 1.0
C      1  0.4757840000000  0.4945100000000  0.5313750000000 1.0
C      1  0.4706200000000  0.5386940000000  0.5550720000000 1.0
C      1  0.4951880000000  0.5299780000000  0.5670810000000 1.0
C      1  0.4741070000000  0.4946730000000  0.4372350000000 1.0
C      1  0.5329730000000  0.5710710000000  0.4589960000000 1.0
C      1  0.5197360000000  0.5070210000000  0.4260550000000 1.0
C      1  0.5591930000000  0.5018950000000  0.5441560000000 1.0
C      1  0.4554400000000  0.4807480000000  0.5500710000000 1.0
C      1  0.4716440000000  0.5254960000000  0.5291430000000 1.0
C      1  0.5512400000000  0.4584820000000  0.4770740000000 1.0
C      1  0.5496110000000  0.5273400000000  0.4720470000000 1.0
C      1  0.4389140000000  0.5526730000000  0.5056790000000 1.0
C      1  0.4659590000000  0.4506740000000  0.4624130000000 1.0
C      1  0.4551970000000  0.4900530000000  0.4847000000000 1.0
C      1  0.4333620000000  0.4713410000000  0.4926710000000 1.0
C      1  0.5262920000000  0.5024130000000  0.5123260000000 1.0
C      1  0.5129620000000  0.5807900000000  0.4999810000000 1.0
C      1  0.5003310000000  0.4332280000000  0.5262370000000 1.0
C      1  0.4916960000000  0.5379300000000  0.5095450000000 1.0
C      1  0.5124150000000  0.4640660000000  0.4478200000000 1.0
END
