TITL C-951340-9809-673 -2.98067813014984e-05 125000 -135.882285465579 0 0 23 (C1) n - 1
REM
REM in /home/bkarasulu/work/CARBON/AIRSS/Generating-Clusters/EDIP-Nigel-Params/with-SteepDescent/Only-C1/SD-CG/HFTN-CG
REM
REM
REM
REM
REM
REM ./C.cell (11c1c37f851c82e70ff6c80c92926a4b)
REM
REM compiler GCC version 9.2.1 20190827 (Red Hat 9.2.1-1)
REM options -cpp -mtune=generic -march=x86-64 -g -O0 -fpre-include=/usr/include/finclude/math-vector-fortran.h
REM seed -1764074461 1680902422 1654261125 2105645727 -1950321917 234595776 742123875 1133646742 -1454417228 1976220492 1891341901 -588966706 -1454382665 704506412 1020197952 -826563160 396924131 285304474 1618839522 -575186639 -406442133 941533781 -211172278 -371496915 -555107058 279828740 524566330 25797446 1617682651 -1222330087 -1701359163 -182526720 -1811778254
REM
CELL 1.54180   50.00000   50.00000   50.00000   90.00000   90.00000   90.00000
LATT -1
SFAC C  
C      1  0.4748670000000  0.4807280000000  0.5208020000000 1.0
C      1  0.5353900000000  0.4574700000000  0.5047320000000 1.0
C      1  0.5189560000000  0.4628360000000  0.5255100000000 1.0
C      1  0.5184700000000  0.5159860000000  0.4610960000000 1.0
C      1  0.5173700000000  0.5298200000000  0.5225550000000 1.0
C      1  0.4851700000000  0.4411490000000  0.4913910000000 1.0
C      1  0.5302890000000  0.5368720000000  0.4757190000000 1.0
C      1  0.4679110000000  0.4575660000000  0.5056880000000 1.0
C      1  0.4989630000000  0.5188870000000  0.4410880000000 1.0
C      1  0.4871070000000  0.4941820000000  0.4384290000000 1.0
C      1  0.4794530000000  0.4562430000000  0.4688540000000 1.0
C      1  0.4549430000000  0.4979460000000  0.5287830000000 1.0
C      1  0.5512200000000  0.5024660000000  0.5011450000000 1.0
C      1  0.5022950000000  0.5528820000000  0.5246490000000 1.0
C      1  0.5007440000000  0.4823020000000  0.5333210000000 1.0
C      1  0.5158880000000  0.4902370000000  0.4732850000000 1.0
C      1  0.4542690000000  0.5479290000000  0.5334540000000 1.0
C      1  0.4461720000000  0.5226170000000  0.5332250000000 1.0
C      1  0.5114180000000  0.5075670000000  0.5383580000000 1.0
C      1  0.4967920000000  0.4758380000000  0.4574250000000 1.0
C      1  0.4773320000000  0.5606510000000  0.5296810000000 1.0
C      1  0.5371630000000  0.5270200000000  0.5013220000000 1.0
C      1  0.5378180000000  0.4808070000000  0.4894880000000 1.0
END
