TITL C-951341-1326-599 -6.75134290666434e-07 125000 -649.030220246717 0 0 104 (C1) n - 1
REM
REM in /home/bkarasulu/work/CARBON/AIRSS/Generating-Clusters/EDIP-Nigel-Params/with-SteepDescent/Only-C1/SD-CG/HFTN-CG
REM
REM
REM
REM
REM
REM ./C.cell (11c1c37f851c82e70ff6c80c92926a4b)
REM
REM compiler GCC version 9.2.1 20190827 (Red Hat 9.2.1-1)
REM options -cpp -mtune=generic -march=x86-64 -g -O0 -fpre-include=/usr/include/finclude/math-vector-fortran.h
REM seed 293474840 1867276373 -1808267902 -1132638292 1960887867 1013143816 321674956 -1240925388 -1544193763 275032296 -837287705 -528939792 -747918940 1800810844 -361061181 602538604 1040719405 -1989843379 1133190599 -1058857701 73929815 817636371 -1010993615 239944419 -1824771035 -1534202805 1301457600 306856367 -854263215 243290812 194496208 -11688816 -775966054
REM
CELL 1.54180   50.00000   50.00000   50.00000   90.00000   90.00000   90.00000
LATT -1
SFAC C  
C      1  0.5474450000000  0.5041470000000  0.5815370000000 1.0
C      1  0.5753550000000  0.5251120000000  0.4976050000000 1.0
C      1  0.4155200000000  0.4792360000000  0.4964740000000 1.0
C      1  0.4141570000000  0.5036600000000  0.4810810000000 1.0
C      1  0.4510690000000  0.5652850000000  0.4628440000000 1.0
C      1  0.4579500000000  0.4900980000000  0.5035270000000 1.0
C      1  0.5809380000000  0.5015240000000  0.4798270000000 1.0
C      1  0.5446080000000  0.5597780000000  0.5072280000000 1.0
C      1  0.4479130000000  0.5333590000000  0.4283290000000 1.0
C      1  0.4325680000000  0.5651230000000  0.5240190000000 1.0
C      1  0.5106730000000  0.5706640000000  0.5714400000000 1.0
C      1  0.4576410000000  0.5189610000000  0.4943690000000 1.0
C      1  0.4265490000000  0.5492030000000  0.4686380000000 1.0
C      1  0.4596710000000  0.5626110000000  0.5184040000000 1.0
C      1  0.4877900000000  0.5571460000000  0.5703630000000 1.0
C      1  0.5496780000000  0.4784140000000  0.5697930000000 1.0
C      1  0.4242900000000  0.5297890000000  0.4449330000000 1.0
C      1  0.5786800000000  0.4891130000000  0.5347590000000 1.0
C      1  0.4760570000000  0.4784740000000  0.5979860000000 1.0
C      1  0.4628900000000  0.4919960000000  0.5509300000000 1.0
C      1  0.4730280000000  0.4695720000000  0.4897070000000 1.0
C      1  0.5790430000000  0.5458880000000  0.4763510000000 1.0
C      1  0.5636330000000  0.4543820000000  0.4675890000000 1.0
C      1  0.5037820000000  0.5311400000000  0.4816740000000 1.0
C      1  0.4670520000000  0.5463650000000  0.4471880000000 1.0
C      1  0.4941440000000  0.5422730000000  0.4103840000000 1.0
C      1  0.5360020000000  0.5639270000000  0.4612090000000 1.0
C      1  0.4861170000000  0.4208240000000  0.4759920000000 1.0
C      1  0.5033670000000  0.4775180000000  0.5891890000000 1.0
C      1  0.5050490000000  0.5127120000000  0.5640530000000 1.0
C      1  0.4705000000000  0.5334890000000  0.5186060000000 1.0
C      1  0.4529090000000  0.4582220000000  0.4683170000000 1.0
C      1  0.4577920000000  0.5093510000000  0.4163970000000 1.0
C      1  0.5296290000000  0.5171950000000  0.4767210000000 1.0
C      1  0.5266930000000  0.5229170000000  0.5468030000000 1.0
C      1  0.4402610000000  0.4517940000000  0.5322220000000 1.0
C      1  0.5310460000000  0.4663620000000  0.5509810000000 1.0
C      1  0.5591560000000  0.5686960000000  0.5323310000000 1.0
C      1  0.4875790000000  0.5598520000000  0.4310000000000 1.0
C      1  0.5105110000000  0.4035800000000  0.4734450000000 1.0
C      1  0.4194360000000  0.4949910000000  0.5309270000000 1.0
C      1  0.5900340000000  0.5310690000000  0.5223010000000 1.0
C      1  0.4809320000000  0.5307280000000  0.5667820000000 1.0
C      1  0.5306570000000  0.5049100000000  0.4295100000000 1.0
C      1  0.4809270000000  0.4241230000000  0.5041580000000 1.0
C      1  0.4340670000000  0.4377650000000  0.5084170000000 1.0
C      1  0.5458170000000  0.4816920000000  0.4314500000000 1.0
C      1  0.5332510000000  0.4159890000000  0.4573450000000 1.0
C      1  0.5351460000000  0.4764200000000  0.5225700000000 1.0
C      1  0.5359090000000  0.5761820000000  0.5624930000000 1.0
C      1  0.5657150000000  0.4705390000000  0.5179550000000 1.0
C      1  0.5251970000000  0.5114120000000  0.5208670000000 1.0
C      1  0.5160470000000  0.5718220000000  0.5046090000000 1.0
C      1  0.4960650000000  0.5946200000000  0.4980430000000 1.0
C      1  0.4774780000000  0.5241250000000  0.4672340000000 1.0
C      1  0.4871380000000  0.4498360000000  0.5434240000000 1.0
C      1  0.5541870000000  0.4274030000000  0.4773130000000 1.0
C      1  0.4889480000000  0.4520390000000  0.5109100000000 1.0
C      1  0.4600210000000  0.5217690000000  0.5465200000000 1.0
C      1  0.4629930000000  0.5891730000000  0.4757900000000 1.0
C      1  0.4591980000000  0.4413220000000  0.5522760000000 1.0
C      1  0.5184440000000  0.5044800000000  0.5907180000000 1.0
C      1  0.4208940000000  0.5405510000000  0.5184400000000 1.0
C      1  0.4284980000000  0.5288230000000  0.4913220000000 1.0
C      1  0.5721170000000  0.5152110000000  0.4543280000000 1.0
C      1  0.5247870000000  0.4399510000000  0.4417480000000 1.0
C      1  0.5369710000000  0.4296070000000  0.5021620000000 1.0
C      1  0.5583080000000  0.5658660000000  0.4802780000000 1.0
C      1  0.5535840000000  0.5256250000000  0.5588910000000 1.0
C      1  0.5054740000000  0.4254740000000  0.5455750000000 1.0
C      1  0.4993870000000  0.5259420000000  0.5106900000000 1.0
C      1  0.4767920000000  0.4322290000000  0.4312440000000 1.0
C      1  0.5047350000000  0.5795760000000  0.4448830000000 1.0
C      1  0.5575340000000  0.5567880000000  0.5595480000000 1.0
C      1  0.5005980000000  0.4975490000000  0.4267610000000 1.0
C      1  0.4511180000000  0.4853960000000  0.4457750000000 1.0
C      1  0.4283660000000  0.4545790000000  0.4865080000000 1.0
C      1  0.5712750000000  0.4748300000000  0.4883920000000 1.0
C      1  0.4541890000000  0.4528220000000  0.5783240000000 1.0
C      1  0.5520680000000  0.4289640000000  0.5275010000000 1.0
C      1  0.5389170000000  0.4636630000000  0.4530470000000 1.0
C      1  0.4455240000000  0.4812210000000  0.5294340000000 1.0
C      1  0.5208180000000  0.4041320000000  0.5017420000000 1.0
C      1  0.4994290000000  0.4708870000000  0.4161040000000 1.0
C      1  0.5430940000000  0.5214660000000  0.4511550000000 1.0
C      1  0.4557300000000  0.4815250000000  0.5775730000000 1.0
C      1  0.5025910000000  0.4743500000000  0.5585610000000 1.0
C      1  0.4929720000000  0.4804400000000  0.4719670000000 1.0
C      1  0.4855690000000  0.5153750000000  0.4087330000000 1.0
C      1  0.5747740000000  0.4445210000000  0.5267350000000 1.0
C      1  0.5201100000000  0.4575300000000  0.5024130000000 1.0
C      1  0.4245490000000  0.5012850000000  0.4534640000000 1.0
C      1  0.4814580000000  0.4978730000000  0.4523010000000 1.0
C      1  0.5110110000000  0.5597720000000  0.4777210000000 1.0
C      1  0.4665960000000  0.4326130000000  0.4572650000000 1.0
C      1  0.4714760000000  0.5883920000000  0.5134410000000 1.0
C      1  0.5449810000000  0.5269270000000  0.5022610000000 1.0
C      1  0.4988900000000  0.4076700000000  0.5212390000000 1.0
C      1  0.5764560000000  0.5155540000000  0.5412000000000 1.0
C      1  0.4267530000000  0.5218140000000  0.5399280000000 1.0
C      1  0.5205840000000  0.4737710000000  0.4761400000000 1.0
C      1  0.4901910000000  0.5968180000000  0.4656700000000 1.0
C      1  0.5010750000000  0.4444090000000  0.4244910000000 1.0
C      1  0.5334130000000  0.4360460000000  0.5491840000000 1.0
END
