TITL C-950535-5962-316 -5.01934794725459e-06 125000 -912.154083805404 0 0 145 (C1) n - 1
REM
REM in /home/bkarasulu/work/CARBON/AIRSS/Generating-Clusters/EDIP-Nigel-Params/with-SteepDescent/Only-C1/SD-CG/HFTN-CG
REM
REM
REM
REM
REM
REM ./C.cell (11c1c37f851c82e70ff6c80c92926a4b)
REM
REM compiler GCC version 9.2.1 20190827 (Red Hat 9.2.1-1)
REM options -cpp -mtune=generic -march=x86-64 -g -O0 -fpre-include=/usr/include/finclude/math-vector-fortran.h
REM seed 1931297136 1907325586 -1405196741 514813597 865655354 1342141188 419332130 -1748328307 1825185342 2124690701 -975787737 -1824373882 -2044219130 -1843061187 1579650146 426916743 -918839673 -158671514 128916739 4124990 -1424812975 -1489014988 -1878624254 -2133783138 1251048919 -280940150 514075619 612294697 552920730 2085996843 2133523867 1620599951 -734128234
REM
CELL 1.54180   50.00000   50.00000   50.00000   90.00000   90.00000   90.00000
LATT -1
SFAC C  
C      1  0.4711520000000  0.4885820000000  0.4874830000000 1.0
C      1  0.5126040000000  0.5481100000000  0.5075460000000 1.0
C      1  0.5730710000000  0.4912790000000  0.4805550000000 1.0
C      1  0.4957150000000  0.5988220000000  0.5210180000000 1.0
C      1  0.4629760000000  0.5604880000000  0.5415910000000 1.0
C      1  0.5262220000000  0.5964630000000  0.5223840000000 1.0
C      1  0.4517030000000  0.5194390000000  0.5691820000000 1.0
C      1  0.5067600000000  0.5178730000000  0.6125690000000 1.0
C      1  0.4346540000000  0.5112650000000  0.5163070000000 1.0
C      1  0.4030250000000  0.5151970000000  0.5090930000000 1.0
C      1  0.4687360000000  0.5440090000000  0.5669830000000 1.0
C      1  0.5854320000000  0.5181370000000  0.4956870000000 1.0
C      1  0.6009640000000  0.4847290000000  0.5296900000000 1.0
C      1  0.4063930000000  0.4892360000000  0.4660180000000 1.0
C      1  0.4311660000000  0.5170220000000  0.5473190000000 1.0
C      1  0.4469480000000  0.4594230000000  0.5705820000000 1.0
C      1  0.5373510000000  0.5212620000000  0.5344890000000 1.0
C      1  0.4895780000000  0.5956090000000  0.4595370000000 1.0
C      1  0.4736520000000  0.6126790000000  0.5101570000000 1.0
C      1  0.4524390000000  0.4536750000000  0.4195410000000 1.0
C      1  0.4743030000000  0.4493100000000  0.5653430000000 1.0
C      1  0.4690510000000  0.4758620000000  0.4071500000000 1.0
C      1  0.4870650000000  0.4036660000000  0.5249540000000 1.0
C      1  0.5002080000000  0.5413210000000  0.5629580000000 1.0
C      1  0.4657480000000  0.4088810000000  0.4414080000000 1.0
C      1  0.4862680000000  0.5800390000000  0.5405590000000 1.0
C      1  0.5422150000000  0.4430780000000  0.5836610000000 1.0
C      1  0.5086930000000  0.4761690000000  0.5875960000000 1.0
C      1  0.5336600000000  0.5804000000000  0.4405420000000 1.0
C      1  0.4706280000000  0.5592570000000  0.4381390000000 1.0
C      1  0.5733790000000  0.5638300000000  0.5220230000000 1.0
C      1  0.5643810000000  0.4218670000000  0.5206950000000 1.0
C      1  0.4942330000000  0.4506850000000  0.5873000000000 1.0
C      1  0.5906860000000  0.4608440000000  0.5192480000000 1.0
C      1  0.4073330000000  0.4989890000000  0.5501440000000 1.0
C      1  0.5741790000000  0.4792520000000  0.5697200000000 1.0
C      1  0.5285510000000  0.4499480000000  0.5245270000000 1.0
C      1  0.5067210000000  0.5253170000000  0.4469080000000 1.0
C      1  0.5247710000000  0.4966980000000  0.4997590000000 1.0
C      1  0.5038850000000  0.4753350000000  0.4940990000000 1.0
C      1  0.4784800000000  0.5350830000000  0.3928010000000 1.0
C      1  0.5839890000000  0.5366470000000  0.5212120000000 1.0
C      1  0.4300670000000  0.4522990000000  0.5474530000000 1.0
C      1  0.5449380000000  0.4280100000000  0.4477570000000 1.0
C      1  0.5374370000000  0.4703590000000  0.5433380000000 1.0
C      1  0.4487670000000  0.4161230000000  0.4817290000000 1.0
C      1  0.4628650000000  0.4952750000000  0.4301240000000 1.0
C      1  0.4927070000000  0.4962340000000  0.6028250000000 1.0
C      1  0.5562290000000  0.4907510000000  0.5898860000000 1.0
C      1  0.5421980000000  0.5100680000000  0.4150200000000 1.0
C      1  0.4182150000000  0.4623850000000  0.4620300000000 1.0
C      1  0.4408460000000  0.4319140000000  0.5288580000000 1.0
C      1  0.5469500000000  0.5479480000000  0.4747960000000 1.0
C      1  0.4902630000000  0.4288230000000  0.5061370000000 1.0
C      1  0.3883110000000  0.5135210000000  0.5347170000000 1.0
C      1  0.4711440000000  0.4300420000000  0.4211420000000 1.0
C      1  0.4935900000000  0.4684980000000  0.4494860000000 1.0
C      1  0.4469810000000  0.5214930000000  0.4255910000000 1.0
C      1  0.4917010000000  0.4985100000000  0.4415370000000 1.0
C      1  0.5142220000000  0.4304030000000  0.5790970000000 1.0
C      1  0.4457040000000  0.4666420000000  0.4473000000000 1.0
C      1  0.5981850000000  0.5154120000000  0.4472750000000 1.0
C      1  0.4308460000000  0.4290810000000  0.5010930000000 1.0
C      1  0.5835600000000  0.4923670000000  0.4525760000000 1.0
C      1  0.4191990000000  0.5611120000000  0.4893710000000 1.0
C      1  0.5683630000000  0.5810040000000  0.4998900000000 1.0
C      1  0.4721960000000  0.4899520000000  0.5319270000000 1.0
C      1  0.5025320000000  0.5225260000000  0.3873170000000 1.0
C      1  0.5277490000000  0.5310440000000  0.5999870000000 1.0
C      1  0.5047310000000  0.3925870000000  0.4678920000000 1.0
C      1  0.5197730000000  0.5533950000000  0.5830650000000 1.0
C      1  0.4526480000000  0.4858690000000  0.5112750000000 1.0
C      1  0.5785250000000  0.4955240000000  0.5444060000000 1.0
C      1  0.5134640000000  0.5720220000000  0.4228330000000 1.0
C      1  0.5366070000000  0.4694720000000  0.5979650000000 1.0
C      1  0.5112580000000  0.4827300000000  0.5570770000000 1.0
C      1  0.4277560000000  0.5080650000000  0.4661830000000 1.0
C      1  0.4616330000000  0.5433760000000  0.4136610000000 1.0
C      1  0.5079030000000  0.5599980000000  0.5390740000000 1.0
C      1  0.5752970000000  0.5543720000000  0.4652470000000 1.0
C      1  0.5812120000000  0.5249320000000  0.5482170000000 1.0
C      1  0.5139830000000  0.4633730000000  0.4687300000000 1.0
C      1  0.5839630000000  0.5786550000000  0.4765550000000 1.0
C      1  0.4309340000000  0.5556530000000  0.4629690000000 1.0
C      1  0.4404830000000  0.4103710000000  0.4552410000000 1.0
C      1  0.5509870000000  0.4934620000000  0.5286960000000 1.0
C      1  0.5362440000000  0.4220010000000  0.5290210000000 1.0
C      1  0.5385090000000  0.5826070000000  0.5455270000000 1.0
C      1  0.4643780000000  0.4985190000000  0.5992870000000 1.0
C      1  0.5015810000000  0.4108020000000  0.5600890000000 1.0
C      1  0.5565840000000  0.4747710000000  0.4118600000000 1.0
C      1  0.4745240000000  0.4307910000000  0.4796350000000 1.0
C      1  0.4631270000000  0.5195430000000  0.4769310000000 1.0
C      1  0.5302330000000  0.4839560000000  0.4250340000000 1.0
C      1  0.5641160000000  0.4497520000000  0.4498620000000 1.0
C      1  0.4688880000000  0.4626470000000  0.4669760000000 1.0
C      1  0.5284840000000  0.5718810000000  0.4679490000000 1.0
C      1  0.4999610000000  0.5638610000000  0.4791770000000 1.0
C      1  0.4894870000000  0.4144960000000  0.4585860000000 1.0
C      1  0.5348210000000  0.5239490000000  0.4610990000000 1.0
C      1  0.5435260000000  0.4204690000000  0.4756720000000 1.0
C      1  0.4445940000000  0.4843900000000  0.5846020000000 1.0
C      1  0.5362600000000  0.4759070000000  0.4552230000000 1.0
C      1  0.5754320000000  0.4703080000000  0.4337930000000 1.0
C      1  0.5218020000000  0.4275930000000  0.4311940000000 1.0
C      1  0.4013140000000  0.4681140000000  0.5083470000000 1.0
C      1  0.5635130000000  0.4339840000000  0.4932400000000 1.0
C      1  0.4006460000000  0.5418410000000  0.4982590000000 1.0
C      1  0.5436790000000  0.5448200000000  0.5061600000000 1.0
C      1  0.5278190000000  0.5293930000000  0.3999280000000 1.0
C      1  0.4707710000000  0.5402220000000  0.5209630000000 1.0
C      1  0.4125530000000  0.4729590000000  0.5358700000000 1.0
C      1  0.4619350000000  0.5943270000000  0.4678390000000 1.0
C      1  0.4489090000000  0.5740010000000  0.4513780000000 1.0
C      1  0.5432100000000  0.5613000000000  0.5655200000000 1.0
C      1  0.5442850000000  0.5161070000000  0.5816270000000 1.0
C      1  0.5092360000000  0.5149780000000  0.5484000000000 1.0
C      1  0.5590270000000  0.4554930000000  0.5599270000000 1.0
C      1  0.5424280000000  0.4983610000000  0.4745130000000 1.0
C      1  0.5535010000000  0.5326100000000  0.5583980000000 1.0
C      1  0.4849710000000  0.5415170000000  0.4616790000000 1.0
C      1  0.4985820000000  0.4675060000000  0.4108580000000 1.0
C      1  0.5256460000000  0.3998830000000  0.4849200000000 1.0
C      1  0.4584810000000  0.4110750000000  0.5391880000000 1.0
C      1  0.4994120000000  0.4389590000000  0.4178430000000 1.0
C      1  0.4369750000000  0.5733790000000  0.5349910000000 1.0
C      1  0.4306990000000  0.5296330000000  0.4489250000000 1.0
C      1  0.5786540000000  0.4412070000000  0.5384320000000 1.0
C      1  0.4339600000000  0.5799960000000  0.5075050000000 1.0
C      1  0.5015410000000  0.4546630000000  0.5168710000000 1.0
C      1  0.4882890000000  0.4674070000000  0.5419900000000 1.0
C      1  0.4179560000000  0.4527770000000  0.4901840000000 1.0
C      1  0.4557450000000  0.5961310000000  0.4958760000000 1.0
C      1  0.5188930000000  0.4025780000000  0.5137820000000 1.0
C      1  0.5099220000000  0.5421270000000  0.4205800000000 1.0
C      1  0.4888460000000  0.5822040000000  0.4336020000000 1.0
C      1  0.3932710000000  0.4917030000000  0.4926850000000 1.0
C      1  0.5935680000000  0.5319040000000  0.4701610000000 1.0
C      1  0.4877900000000  0.5151980000000  0.5267340000000 1.0
C      1  0.5765040000000  0.4618610000000  0.4937990000000 1.0
C      1  0.5448890000000  0.5983430000000  0.4997880000000 1.0
C      1  0.4740580000000  0.4197910000000  0.5624800000000 1.0
C      1  0.4505220000000  0.5326110000000  0.5018660000000 1.0
C      1  0.5340820000000  0.6006630000000  0.4737760000000 1.0
C      1  0.5054730000000  0.5186990000000  0.5037740000000 1.0
END
