TITL C-951334-9093-91 1.19335589881067e-06 125000 -1219.76236352421 0 0 195 (C1) n - 1
REM
REM in /home/bkarasulu/work/CARBON/AIRSS/Generating-Clusters/EDIP-Nigel-Params/with-SteepDescent/Only-C1/SD-CG/HFTN-CG
REM
REM
REM
REM
REM
REM ./C.cell (11c1c37f851c82e70ff6c80c92926a4b)
REM
REM compiler GCC version 9.2.1 20190827 (Red Hat 9.2.1-1)
REM options -cpp -mtune=generic -march=x86-64 -g -O0 -fpre-include=/usr/include/finclude/math-vector-fortran.h
REM seed 1003292341 -2135263471 1053922354 1898528658 -1956973030 -100650903 -1136661591 219243843 -467029418 357069797 1853541996 -34454449 -248454015 -1904110468 1440131260 -629477789 -1463385173 -1909226743 -400007922 -489738288 450007097 -1663508722 -348097869 -427589929 -1136438363 -1150768093 -1294988096 122504318 -2130920322 263617843 -1604230988 -658801213 -286154816
REM
CELL 1.54180   50.00000   50.00000   50.00000   90.00000   90.00000   90.00000
LATT -1
SFAC C  
C      1  0.4634730000000  0.5618430000000  0.4885120000000 1.0
C      1  0.4281620000000  0.5495650000000  0.5462970000000 1.0
C      1  0.4607040000000  0.4005550000000  0.5432950000000 1.0
C      1  0.5491560000000  0.4858700000000  0.5086780000000 1.0
C      1  0.5125860000000  0.5855920000000  0.5802960000000 1.0
C      1  0.5293460000000  0.5107160000000  0.4184520000000 1.0
C      1  0.4976780000000  0.4354380000000  0.4637740000000 1.0
C      1  0.4149790000000  0.4608150000000  0.5650610000000 1.0
C      1  0.4496320000000  0.3885150000000  0.5191170000000 1.0
C      1  0.4875260000000  0.5390440000000  0.4093210000000 1.0
C      1  0.5645300000000  0.5457380000000  0.5252570000000 1.0
C      1  0.5734570000000  0.5812460000000  0.5006780000000 1.0
C      1  0.5699230000000  0.4716520000000  0.5737580000000 1.0
C      1  0.5312310000000  0.4735370000000  0.4699300000000 1.0
C      1  0.5317830000000  0.4802220000000  0.4311460000000 1.0
C      1  0.4901310000000  0.5331500000000  0.5683720000000 1.0
C      1  0.5590020000000  0.5332570000000  0.5525850000000 1.0
C      1  0.4240790000000  0.4855980000000  0.4793120000000 1.0
C      1  0.4931940000000  0.3898740000000  0.5101940000000 1.0
C      1  0.5334950000000  0.4636610000000  0.4055400000000 1.0
C      1  0.5134220000000  0.4426770000000  0.4066610000000 1.0
C      1  0.5519720000000  0.5509500000000  0.5757930000000 1.0
C      1  0.6230120000000  0.5105330000000  0.5103930000000 1.0
C      1  0.5402280000000  0.4339460000000  0.5899490000000 1.0
C      1  0.4774830000000  0.5145240000000  0.5369930000000 1.0
C      1  0.3871130000000  0.5180130000000  0.4702670000000 1.0
C      1  0.4549070000000  0.5869530000000  0.5316750000000 1.0
C      1  0.5159280000000  0.3996590000000  0.4935570000000 1.0
C      1  0.5480850000000  0.4265730000000  0.4407500000000 1.0
C      1  0.4091920000000  0.5055630000000  0.4226090000000 1.0
C      1  0.5140190000000  0.4191950000000  0.5802220000000 1.0
C      1  0.4109040000000  0.4612750000000  0.4671950000000 1.0
C      1  0.6101890000000  0.4678550000000  0.4646630000000 1.0
C      1  0.6188890000000  0.4814410000000  0.5164730000000 1.0
C      1  0.5148420000000  0.4043460000000  0.5534570000000 1.0
C      1  0.4948830000000  0.5556010000000  0.4518300000000 1.0
C      1  0.5963140000000  0.4732350000000  0.4990040000000 1.0
C      1  0.5354440000000  0.5149610000000  0.5478040000000 1.0
C      1  0.4494220000000  0.4252330000000  0.5092570000000 1.0
C      1  0.4901440000000  0.5685860000000  0.5934660000000 1.0
C      1  0.5297530000000  0.4571700000000  0.6064110000000 1.0
C      1  0.4615250000000  0.4453760000000  0.4119950000000 1.0
C      1  0.4592670000000  0.5126720000000  0.4823580000000 1.0
C      1  0.5105800000000  0.4784400000000  0.5469340000000 1.0
C      1  0.5490540000000  0.4057960000000  0.4613360000000 1.0
C      1  0.5511250000000  0.5743200000000  0.4292370000000 1.0
C      1  0.4394600000000  0.5749500000000  0.4447500000000 1.0
C      1  0.5693110000000  0.4479670000000  0.4415120000000 1.0
C      1  0.4399880000000  0.4454000000000  0.5699800000000 1.0
C      1  0.4338990000000  0.5301280000000  0.5201640000000 1.0
C      1  0.4135540000000  0.5768450000000  0.5087730000000 1.0
C      1  0.5625440000000  0.4916290000000  0.5924990000000 1.0
C      1  0.4334880000000  0.4490110000000  0.4514440000000 1.0
C      1  0.5367900000000  0.5501970000000  0.5116830000000 1.0
C      1  0.5053590000000  0.4038660000000  0.4420680000000 1.0
C      1  0.4501940000000  0.5254180000000  0.5854480000000 1.0
C      1  0.6074930000000  0.5564020000000  0.5257970000000 1.0
C      1  0.4662420000000  0.5696490000000  0.5763120000000 1.0
C      1  0.3975780000000  0.5455470000000  0.4738920000000 1.0
C      1  0.4942820000000  0.4922070000000  0.5256770000000 1.0
C      1  0.4877190000000  0.5448690000000  0.5279860000000 1.0
C      1  0.3919700000000  0.5075970000000  0.4445840000000 1.0
C      1  0.4599390000000  0.5041240000000  0.4109560000000 1.0
C      1  0.4032470000000  0.5384840000000  0.5564330000000 1.0
C      1  0.4666430000000  0.4945830000000  0.3846350000000 1.0
C      1  0.4189250000000  0.4795690000000  0.4146300000000 1.0
C      1  0.4251190000000  0.5307540000000  0.4170540000000 1.0
C      1  0.5411870000000  0.4849630000000  0.6100650000000 1.0
C      1  0.6016610000000  0.5448180000000  0.4774050000000 1.0
C      1  0.4750170000000  0.4026550000000  0.4443320000000 1.0
C      1  0.4540420000000  0.5875900000000  0.4233760000000 1.0
C      1  0.4577070000000  0.4556780000000  0.5170260000000 1.0
C      1  0.6142780000000  0.5177170000000  0.4816060000000 1.0
C      1  0.4448130000000  0.5000870000000  0.4593580000000 1.0
C      1  0.4496660000000  0.5849840000000  0.4725100000000 1.0
C      1  0.4425530000000  0.4763230000000  0.5353940000000 1.0
C      1  0.4613510000000  0.4011980000000  0.4715670000000 1.0
C      1  0.4262100000000  0.5776000000000  0.5350470000000 1.0
C      1  0.4046880000000  0.5235020000000  0.5154390000000 1.0
C      1  0.5223660000000  0.3912150000000  0.4640800000000 1.0
C      1  0.5301280000000  0.5948590000000  0.4674080000000 1.0
C      1  0.5754130000000  0.4943690000000  0.4166420000000 1.0
C      1  0.4570700000000  0.4514990000000  0.4696920000000 1.0
C      1  0.4677730000000  0.5644720000000  0.5169830000000 1.0
C      1  0.5437520000000  0.5885160000000  0.5430510000000 1.0
C      1  0.4153300000000  0.4911230000000  0.5668790000000 1.0
C      1  0.5573190000000  0.5848950000000  0.4760850000000 1.0
C      1  0.4872080000000  0.4483950000000  0.5243230000000 1.0
C      1  0.6059590000000  0.4720780000000  0.5424350000000 1.0
C      1  0.6071550000000  0.4969910000000  0.4607330000000 1.0
C      1  0.5750370000000  0.4953370000000  0.4969880000000 1.0
C      1  0.5833740000000  0.4497010000000  0.5116060000000 1.0
C      1  0.5079960000000  0.5957870000000  0.5108950000000 1.0
C      1  0.4876750000000  0.5131470000000  0.4801630000000 1.0
C      1  0.5150000000000  0.4308320000000  0.4874130000000 1.0
C      1  0.4750650000000  0.5359770000000  0.4382270000000 1.0
C      1  0.4633080000000  0.4823670000000  0.5630400000000 1.0
C      1  0.4418950000000  0.4972870000000  0.5805340000000 1.0
C      1  0.5223450000000  0.5744200000000  0.5274810000000 1.0
C      1  0.5069300000000  0.4494910000000  0.5479560000000 1.0
C      1  0.5707640000000  0.5882420000000  0.5297290000000 1.0
C      1  0.4704070000000  0.4980480000000  0.6168450000000 1.0
C      1  0.4929960000000  0.6047270000000  0.5548680000000 1.0
C      1  0.4147340000000  0.4205470000000  0.5389880000000 1.0
C      1  0.4086780000000  0.4050270000000  0.5153480000000 1.0
C      1  0.5323120000000  0.4832540000000  0.3840470000000 1.0
C      1  0.4931310000000  0.5119740000000  0.4516730000000 1.0
C      1  0.5213750000000  0.4252510000000  0.4285350000000 1.0
C      1  0.4262190000000  0.5392270000000  0.4675220000000 1.0
C      1  0.4016360000000  0.5038040000000  0.4921020000000 1.0
C      1  0.5034820000000  0.4657330000000  0.4611220000000 1.0
C      1  0.4768790000000  0.6026840000000  0.4668320000000 1.0
C      1  0.5645630000000  0.5411710000000  0.5990130000000 1.0
C      1  0.4972420000000  0.4872590000000  0.6160320000000 1.0
C      1  0.4494500000000  0.4799880000000  0.6044390000000 1.0
C      1  0.5701500000000  0.5742960000000  0.4517480000000 1.0
C      1  0.4111900000000  0.4633780000000  0.5173670000000 1.0
C      1  0.5396610000000  0.4118210000000  0.5378830000000 1.0
C      1  0.4693210000000  0.5256820000000  0.6065370000000 1.0
C      1  0.4925990000000  0.5426890000000  0.6056020000000 1.0
C      1  0.5984760000000  0.5650890000000  0.4987350000000 1.0
C      1  0.5808150000000  0.5237740000000  0.5102210000000 1.0
C      1  0.5205100000000  0.5392900000000  0.4501670000000 1.0
C      1  0.5508360000000  0.5037290000000  0.3975290000000 1.0
C      1  0.4942040000000  0.4849600000000  0.3903060000000 1.0
C      1  0.4563100000000  0.4180170000000  0.4265100000000 1.0
C      1  0.4527700000000  0.4700850000000  0.4911160000000 1.0
C      1  0.4452800000000  0.5370220000000  0.4902640000000 1.0
C      1  0.5594280000000  0.5203280000000  0.4593760000000 1.0
C      1  0.5774310000000  0.5283320000000  0.4360760000000 1.0
C      1  0.4411060000000  0.4216760000000  0.5522440000000 1.0
C      1  0.5026320000000  0.5911020000000  0.4816870000000 1.0
C      1  0.4678980000000  0.3842150000000  0.4967510000000 1.0
C      1  0.4495970000000  0.5066850000000  0.5294250000000 1.0
C      1  0.5637350000000  0.4930540000000  0.4663030000000 1.0
C      1  0.4917790000000  0.5626760000000  0.4793540000000 1.0
C      1  0.4553080000000  0.5728270000000  0.3996190000000 1.0
C      1  0.4682750000000  0.5904550000000  0.5575130000000 1.0
C      1  0.4416690000000  0.4643560000000  0.4263570000000 1.0
C      1  0.4710260000000  0.4283750000000  0.4813210000000 1.0
C      1  0.5062150000000  0.4555770000000  0.5038430000000 1.0
C      1  0.5050920000000  0.5874650000000  0.4231610000000 1.0
C      1  0.5811410000000  0.4310300000000  0.5587040000000 1.0
C      1  0.5379640000000  0.5334280000000  0.4759380000000 1.0
C      1  0.5228460000000  0.5258030000000  0.5219440000000 1.0
C      1  0.5415560000000  0.4022670000000  0.5089360000000 1.0
C      1  0.4486690000000  0.5479810000000  0.5685080000000 1.0
C      1  0.4451220000000  0.5253040000000  0.3947700000000 1.0
C      1  0.4071270000000  0.4469370000000  0.4929750000000 1.0
C      1  0.4624270000000  0.6122150000000  0.5178560000000 1.0
C      1  0.6048760000000  0.5264210000000  0.5284040000000 1.0
C      1  0.4303760000000  0.4204200000000  0.4432530000000 1.0
C      1  0.5887040000000  0.5700870000000  0.5429490000000 1.0
C      1  0.5420170000000  0.5789180000000  0.5718530000000 1.0
C      1  0.4312660000000  0.4051480000000  0.4688430000000 1.0
C      1  0.4959060000000  0.4854740000000  0.5719180000000 1.0
C      1  0.5030410000000  0.4934710000000  0.4960390000000 1.0
C      1  0.4790180000000  0.5943420000000  0.4373590000000 1.0
C      1  0.5479510000000  0.4872990000000  0.5389910000000 1.0
C      1  0.5895510000000  0.5518620000000  0.4512610000000 1.0
C      1  0.5888230000000  0.4469350000000  0.4638410000000 1.0
C      1  0.4403200000000  0.5448660000000  0.4408970000000 1.0
C      1  0.3998960000000  0.5110890000000  0.5510470000000 1.0
C      1  0.4888110000000  0.4581600000000  0.4061690000000 1.0
C      1  0.4590750000000  0.4544910000000  0.5902690000000 1.0
C      1  0.4936180000000  0.4414980000000  0.5771180000000 1.0
C      1  0.5957170000000  0.4438860000000  0.5377030000000 1.0
C      1  0.5015400000000  0.5621760000000  0.5513320000000 1.0
C      1  0.5289800000000  0.5076610000000  0.4986580000000 1.0
C      1  0.4644540000000  0.5477730000000  0.3919770000000 1.0
C      1  0.4222500000000  0.4207880000000  0.4949860000000 1.0
C      1  0.5769220000000  0.5171800000000  0.5900560000000 1.0
C      1  0.5845870000000  0.5162820000000  0.5600230000000 1.0
C      1  0.5095600000000  0.5602580000000  0.4099080000000 1.0
C      1  0.5303540000000  0.5939440000000  0.4377340000000 1.0
C      1  0.5124910000000  0.5126440000000  0.5744010000000 1.0
C      1  0.5992960000000  0.5072750000000  0.4337620000000 1.0
C      1  0.4594400000000  0.4869300000000  0.4360200000000 1.0
C      1  0.4903960000000  0.6132340000000  0.5264690000000 1.0
C      1  0.5616080000000  0.4771690000000  0.4379150000000 1.0
C      1  0.5568760000000  0.4163920000000  0.4874250000000 1.0
C      1  0.5010460000000  0.4611650000000  0.6016240000000 1.0
C      1  0.5373120000000  0.4413420000000  0.5429150000000 1.0
C      1  0.4032540000000  0.4482830000000  0.5408060000000 1.0
C      1  0.5431860000000  0.4564410000000  0.4944950000000 1.0
C      1  0.4899420000000  0.4017580000000  0.5367610000000 1.0
C      1  0.5341200000000  0.5485610000000  0.4234180000000 1.0
C      1  0.5801680000000  0.4330770000000  0.4888330000000 1.0
C      1  0.5029990000000  0.5118020000000  0.4041860000000 1.0
C      1  0.5794830000000  0.4869930000000  0.5507800000000 1.0
C      1  0.4266730000000  0.5926930000000  0.4888740000000 1.0
C      1  0.4895980000000  0.4834150000000  0.4424130000000 1.0
C      1  0.5197640000000  0.5048300000000  0.6110220000000 1.0
C      1  0.3970360000000  0.5518910000000  0.5029880000000 1.0
C      1  0.5568900000000  0.4449780000000  0.5666840000000 1.0
END
