TITL C-951348-1603-581 -3.28979936832463e-08 125000 -465.380963830038 0 0 76 (C1) n - 1
REM
REM in /home/bkarasulu/work/CARBON/AIRSS/Generating-Clusters/EDIP-Nigel-Params/with-SteepDescent/Only-C1/SD-CG/HFTN-CG
REM
REM
REM
REM
REM
REM ./C.cell (11c1c37f851c82e70ff6c80c92926a4b)
REM
REM compiler GCC version 9.2.1 20190827 (Red Hat 9.2.1-1)
REM options -cpp -mtune=generic -march=x86-64 -g -O0 -fpre-include=/usr/include/finclude/math-vector-fortran.h
REM seed 1731348448 -114012687 1435079806 -418122067 -1236342607 566249962 1240211321 -1420422098 -818180610 1569515844 -1961045991 -538691798 -783715810 2115835591 1368929303 -1415093911 139918591 -1282984252 1279177738 -2072704122 -358567270 871412988 -1108025946 -58123290 1261031606 -1011062667 1920271215 -1315678367 -115241576 -608186354 -855539657 220553258 -403466154
REM
CELL 1.54180   50.00000   50.00000   50.00000   90.00000   90.00000   90.00000
LATT -1
SFAC C  
C      1  0.5099740000000  0.4172150000000  0.5102510000000 1.0
C      1  0.4519100000000  0.5801650000000  0.5352470000000 1.0
C      1  0.5417820000000  0.4444530000000  0.4903290000000 1.0
C      1  0.4910210000000  0.4659030000000  0.4949200000000 1.0
C      1  0.5163340000000  0.4684720000000  0.5098420000000 1.0
C      1  0.5187780000000  0.5656690000000  0.5058120000000 1.0
C      1  0.4440370000000  0.4796580000000  0.5321740000000 1.0
C      1  0.5164450000000  0.5657000000000  0.4537470000000 1.0
C      1  0.4924300000000  0.4274590000000  0.5311350000000 1.0
C      1  0.4278310000000  0.4808100000000  0.5078340000000 1.0
C      1  0.5189290000000  0.4629490000000  0.5676160000000 1.0
C      1  0.5130920000000  0.5066810000000  0.5869010000000 1.0
C      1  0.5004300000000  0.5630530000000  0.5285520000000 1.0
C      1  0.5321650000000  0.4285320000000  0.4664190000000 1.0
C      1  0.4765690000000  0.5199340000000  0.4581270000000 1.0
C      1  0.4893950000000  0.4463160000000  0.4725530000000 1.0
C      1  0.4226710000000  0.5074300000000  0.4663790000000 1.0
C      1  0.4949880000000  0.5571850000000  0.4346480000000 1.0
C      1  0.4892110000000  0.5173660000000  0.4998970000000 1.0
C      1  0.5203090000000  0.5192260000000  0.5397120000000 1.0
C      1  0.4583020000000  0.4568120000000  0.5429340000000 1.0
C      1  0.5512260000000  0.5296670000000  0.5332560000000 1.0
C      1  0.4478330000000  0.5304060000000  0.5321360000000 1.0
C      1  0.5630530000000  0.4659250000000  0.5246040000000 1.0
C      1  0.5823220000000  0.5107850000000  0.5215660000000 1.0
C      1  0.4644740000000  0.4321770000000  0.5294430000000 1.0
C      1  0.5062170000000  0.5737670000000  0.4805970000000 1.0
C      1  0.5221070000000  0.4968750000000  0.4926970000000 1.0
C      1  0.4350820000000  0.5307710000000  0.5060050000000 1.0
C      1  0.5834590000000  0.5337720000000  0.4791580000000 1.0
C      1  0.5704350000000  0.4905030000000  0.5379420000000 1.0
C      1  0.4794490000000  0.5821070000000  0.5332550000000 1.0
C      1  0.4292230000000  0.5342740000000  0.4577950000000 1.0
C      1  0.5092200000000  0.5327530000000  0.4247160000000 1.0
C      1  0.4988930000000  0.4895170000000  0.5314890000000 1.0
C      1  0.5366900000000  0.5409880000000  0.4315580000000 1.0
C      1  0.5700640000000  0.4862550000000  0.4793020000000 1.0
C      1  0.5167050000000  0.5219690000000  0.5083540000000 1.0
C      1  0.5290070000000  0.4469740000000  0.4433190000000 1.0
C      1  0.4531440000000  0.5724410000000  0.4775410000000 1.0
C      1  0.4394200000000  0.5474370000000  0.4820520000000 1.0
C      1  0.4411640000000  0.4397160000000  0.4832620000000 1.0
C      1  0.4882230000000  0.5161180000000  0.5789540000000 1.0
C      1  0.4248430000000  0.5062320000000  0.4949910000000 1.0
C      1  0.5363920000000  0.4293430000000  0.5142440000000 1.0
C      1  0.5541090000000  0.4886180000000  0.4541600000000 1.0
C      1  0.4898230000000  0.4798150000000  0.4355640000000 1.0
C      1  0.4779060000000  0.4919780000000  0.4922280000000 1.0
C      1  0.4612090000000  0.4463180000000  0.4618930000000 1.0
C      1  0.5544300000000  0.5010870000000  0.5595260000000 1.0
C      1  0.4751100000000  0.4987360000000  0.5604680000000 1.0
C      1  0.5503020000000  0.4646590000000  0.4400610000000 1.0
C      1  0.5814660000000  0.5096950000000  0.4929120000000 1.0
C      1  0.4705630000000  0.5503460000000  0.4506390000000 1.0
C      1  0.5375690000000  0.5346320000000  0.4608260000000 1.0
C      1  0.4521680000000  0.4262640000000  0.5050450000000 1.0
C      1  0.4516000000000  0.5043960000000  0.5451530000000 1.0
C      1  0.5063200000000  0.5439990000000  0.5494450000000 1.0
C      1  0.4547780000000  0.5547710000000  0.5455690000000 1.0
C      1  0.5050500000000  0.4206160000000  0.4794910000000 1.0
C      1  0.5579450000000  0.5450850000000  0.4802460000000 1.0
C      1  0.4965840000000  0.4624030000000  0.5465540000000 1.0
C      1  0.5446590000000  0.4467000000000  0.5356390000000 1.0
C      1  0.4621330000000  0.4740730000000  0.4480270000000 1.0
C      1  0.4791830000000  0.5796980000000  0.4818270000000 1.0
C      1  0.5043540000000  0.4597820000000  0.4511340000000 1.0
C      1  0.5007110000000  0.5084400000000  0.4427390000000 1.0
C      1  0.5388190000000  0.4434390000000  0.5627470000000 1.0
C      1  0.5300230000000  0.4903460000000  0.5718350000000 1.0
C      1  0.5288920000000  0.5045680000000  0.4627840000000 1.0
C      1  0.4486000000000  0.5366740000000  0.4364790000000 1.0
C      1  0.4228720000000  0.4591530000000  0.4910620000000 1.0
C      1  0.4584410000000  0.4961850000000  0.4685490000000 1.0
C      1  0.5452470000000  0.5501850000000  0.5070780000000 1.0
C      1  0.5649200000000  0.4625850000000  0.4955800000000 1.0
C      1  0.4889670000000  0.5429880000000  0.5714770000000 1.0
END
