TITL C-951344-124-109 -2.6177805494103e-06 125000 -307.132798957736 0 0 51 (C1) n - 1
REM
REM in /home/bkarasulu/work/CARBON/AIRSS/Generating-Clusters/EDIP-Nigel-Params/with-SteepDescent/Only-C1/SD-CG/HFTN-CG
REM
REM
REM
REM
REM
REM ./C.cell (11c1c37f851c82e70ff6c80c92926a4b)
REM
REM compiler GCC version 9.2.1 20190827 (Red Hat 9.2.1-1)
REM options -cpp -mtune=generic -march=x86-64 -g -O0 -fpre-include=/usr/include/finclude/math-vector-fortran.h
REM seed -1711841006 -2049164854 -1231213260 -1192049183 -1027538989 -787400967 -1636863307 1992883019 66460810 -1777518256 -2060780353 -590743369 1074209399 833019357 -1023793692 -1672829294 -755613177 776906433 44812043 1904340085 1220614366 -1754030408 1492879880 -971031804 172982863 7962225 -42276381 1047487588 357111191 2068476224 1484665550 -1405843661 1331280558
REM
CELL 1.54180   50.00000   50.00000   50.00000   90.00000   90.00000   90.00000
LATT -1
SFAC C  
C      1  0.5236900000000  0.4281510000000  0.4862710000000 1.0
C      1  0.4354110000000  0.5064090000000  0.4926010000000 1.0
C      1  0.4992620000000  0.5594700000000  0.4678140000000 1.0
C      1  0.4862250000000  0.4847190000000  0.4947510000000 1.0
C      1  0.4815400000000  0.4390750000000  0.5270240000000 1.0
C      1  0.5410420000000  0.4450940000000  0.5011110000000 1.0
C      1  0.5587610000000  0.4902590000000  0.5040440000000 1.0
C      1  0.5263140000000  0.4785880000000  0.5784460000000 1.0
C      1  0.5353860000000  0.5285740000000  0.5228340000000 1.0
C      1  0.5028010000000  0.4670950000000  0.4516310000000 1.0
C      1  0.4574580000000  0.5151510000000  0.5230060000000 1.0
C      1  0.4380240000000  0.4807850000000  0.4819430000000 1.0
C      1  0.4956140000000  0.4305590000000  0.4925740000000 1.0
C      1  0.5256670000000  0.5261550000000  0.5712210000000 1.0
C      1  0.5410960000000  0.5016130000000  0.5712220000000 1.0
C      1  0.5427110000000  0.5101080000000  0.4391650000000 1.0
C      1  0.4712550000000  0.5636150000000  0.4652500000000 1.0
C      1  0.4809940000000  0.4161690000000  0.5112840000000 1.0
C      1  0.4883360000000  0.5560990000000  0.5149540000000 1.0
C      1  0.5198770000000  0.5074420000000  0.4229240000000 1.0
C      1  0.5016970000000  0.4818700000000  0.5656350000000 1.0
C      1  0.5123300000000  0.5091120000000  0.5210140000000 1.0
C      1  0.4557640000000  0.4635220000000  0.5598680000000 1.0
C      1  0.4920370000000  0.5155510000000  0.4883510000000 1.0
C      1  0.4551780000000  0.5475170000000  0.4820110000000 1.0
C      1  0.5129130000000  0.4817750000000  0.5081840000000 1.0
C      1  0.4630460000000  0.4605560000000  0.5329210000000 1.0
C      1  0.4503840000000  0.5139020000000  0.4481510000000 1.0
C      1  0.5004090000000  0.5073180000000  0.5498960000000 1.0
C      1  0.4781770000000  0.4696520000000  0.5735830000000 1.0
C      1  0.4535660000000  0.4653830000000  0.4657510000000 1.0
C      1  0.5372650000000  0.4730900000000  0.4944230000000 1.0
C      1  0.5104330000000  0.5630250000000  0.4955980000000 1.0
C      1  0.5355900000000  0.5472960000000  0.4995010000000 1.0
C      1  0.5248980000000  0.5436680000000  0.5479650000000 1.0
C      1  0.5323090000000  0.4713800000000  0.4643540000000 1.0
C      1  0.4718570000000  0.5065430000000  0.4318500000000 1.0
C      1  0.4395940000000  0.5253770000000  0.4713200000000 1.0
C      1  0.4945830000000  0.5499220000000  0.5432850000000 1.0
C      1  0.4963760000000  0.5242750000000  0.4338960000000 1.0
C      1  0.5343930000000  0.5257590000000  0.4607920000000 1.0
C      1  0.5597640000000  0.4998990000000  0.5504460000000 1.0
C      1  0.4971490000000  0.4856560000000  0.4271200000000 1.0
C      1  0.5303420000000  0.4415570000000  0.4610090000000 1.0
C      1  0.4721610000000  0.5341390000000  0.5023580000000 1.0
C      1  0.5053550000000  0.5305410000000  0.4626750000000 1.0
C      1  0.4808180000000  0.4669020000000  0.4719380000000 1.0
C      1  0.5510470000000  0.5411030000000  0.4768250000000 1.0
C      1  0.4748250000000  0.5238660000000  0.5482980000000 1.0
C      1  0.5588040000000  0.5096720000000  0.5244990000000 1.0
C      1  0.4654710000000  0.4850410000000  0.5164100000000 1.0
END
