TITL C-950524-1808-327 -4.22540329272977e-06 125000 -750.306531425739 0 0 122 (C1) n - 1
REM
REM in /home/bkarasulu/work/CARBON/AIRSS/Generating-Clusters/EDIP-Nigel-Params/with-SteepDescent/Only-C1/SD-CG/HFTN-CG
REM
REM
REM
REM
REM
REM ./C.cell (11c1c37f851c82e70ff6c80c92926a4b)
REM
REM compiler GCC version 9.2.1 20190827 (Red Hat 9.2.1-1)
REM options -cpp -mtune=generic -march=x86-64 -g -O0 -fpre-include=/usr/include/finclude/math-vector-fortran.h
REM seed -2070328389 435735257 -1396778112 1741069830 -1918192949 1898222513 1981110558 -310719627 507706064 -152188070 128055913 1230308452 171570323 -1772928904 -1138715420 -300706181 -158767557 -825892665 345363935 365154229 1803345566 1004594317 1438869070 -982418463 1135640543 2093697171 -156924286 -1682288875 -1411789460 -49058022 605430185 1607612932 -396134757
REM
CELL 1.54180   50.00000   50.00000   50.00000   90.00000   90.00000   90.00000
LATT -1
SFAC C  
C      1  0.4785890000000  0.4301230000000  0.5620560000000 1.0
C      1  0.5254960000000  0.5047790000000  0.5519520000000 1.0
C      1  0.4766870000000  0.5675160000000  0.5369450000000 1.0
C      1  0.5507050000000  0.4502750000000  0.4365580000000 1.0
C      1  0.5048320000000  0.5313430000000  0.5876600000000 1.0
C      1  0.4415810000000  0.4458410000000  0.4832730000000 1.0
C      1  0.4899630000000  0.4198510000000  0.5078290000000 1.0
C      1  0.5898680000000  0.4753960000000  0.4737890000000 1.0
C      1  0.5057130000000  0.5209440000000  0.4061170000000 1.0
C      1  0.4241510000000  0.4952550000000  0.4394030000000 1.0
C      1  0.5082100000000  0.3978780000000  0.4986040000000 1.0
C      1  0.5710990000000  0.5706490000000  0.5050910000000 1.0
C      1  0.4668660000000  0.5636480000000  0.4555680000000 1.0
C      1  0.5917740000000  0.5275220000000  0.4581550000000 1.0
C      1  0.4323430000000  0.5158390000000  0.5435760000000 1.0
C      1  0.5282890000000  0.4696590000000  0.4839310000000 1.0
C      1  0.4266780000000  0.5472070000000  0.4834340000000 1.0
C      1  0.5638010000000  0.5312590000000  0.4471910000000 1.0
C      1  0.5377670000000  0.5302500000000  0.5585250000000 1.0
C      1  0.4205120000000  0.4876660000000  0.4671160000000 1.0
C      1  0.4835510000000  0.5034160000000  0.4997790000000 1.0
C      1  0.5567270000000  0.5380330000000  0.5389450000000 1.0
C      1  0.4849330000000  0.5382520000000  0.4182810000000 1.0
C      1  0.5596190000000  0.5676890000000  0.5402910000000 1.0
C      1  0.5299230000000  0.5572060000000  0.4235040000000 1.0
C      1  0.4989480000000  0.5621190000000  0.4329610000000 1.0
C      1  0.4618860000000  0.5688470000000  0.5090550000000 1.0
C      1  0.4784090000000  0.5288690000000  0.4866090000000 1.0
C      1  0.4344720000000  0.4577180000000  0.4375920000000 1.0
C      1  0.5423750000000  0.5318200000000  0.5145470000000 1.0
C      1  0.5057220000000  0.4352930000000  0.5485520000000 1.0
C      1  0.5148740000000  0.4034370000000  0.4697160000000 1.0
C      1  0.5238380000000  0.5107440000000  0.5954770000000 1.0
C      1  0.5852620000000  0.5073530000000  0.5118860000000 1.0
C      1  0.5023920000000  0.4570310000000  0.5271380000000 1.0
C      1  0.4643720000000  0.4458590000000  0.5829670000000 1.0
C      1  0.5639030000000  0.5243360000000  0.4955270000000 1.0
C      1  0.5479310000000  0.4462950000000  0.5348880000000 1.0
C      1  0.4609280000000  0.4114050000000  0.5067160000000 1.0
C      1  0.5793470000000  0.4907010000000  0.4274130000000 1.0
C      1  0.4658600000000  0.4176630000000  0.4550240000000 1.0
C      1  0.5753840000000  0.4910120000000  0.5517620000000 1.0
C      1  0.5442890000000  0.4110010000000  0.4675630000000 1.0
C      1  0.5306070000000  0.4350520000000  0.5016290000000 1.0
C      1  0.4873760000000  0.4736730000000  0.4537780000000 1.0
C      1  0.5945460000000  0.4971180000000  0.4527230000000 1.0
C      1  0.5738380000000  0.4515050000000  0.4838130000000 1.0
C      1  0.5836100000000  0.4790390000000  0.5243160000000 1.0
C      1  0.4946750000000  0.4419230000000  0.4867760000000 1.0
C      1  0.4090380000000  0.5019430000000  0.4884190000000 1.0
C      1  0.4236490000000  0.4589470000000  0.4640890000000 1.0
C      1  0.5535700000000  0.4857240000000  0.4666580000000 1.0
C      1  0.4554930000000  0.5362820000000  0.5753070000000 1.0
C      1  0.5194120000000  0.4730790000000  0.4090740000000 1.0
C      1  0.4412730000000  0.5691370000000  0.4429120000000 1.0
C      1  0.4969580000000  0.5436180000000  0.5367060000000 1.0
C      1  0.5332590000000  0.5311140000000  0.4102120000000 1.0
C      1  0.4899000000000  0.5922910000000  0.5435600000000 1.0
C      1  0.4775410000000  0.4712510000000  0.5318980000000 1.0
C      1  0.5471200000000  0.5818850000000  0.4933070000000 1.0
C      1  0.4522100000000  0.4358180000000  0.4375490000000 1.0
C      1  0.4948400000000  0.4256480000000  0.4612340000000 1.0
C      1  0.5224200000000  0.4758410000000  0.5144260000000 1.0
C      1  0.5457410000000  0.4156980000000  0.5340610000000 1.0
C      1  0.5093960000000  0.5033540000000  0.5173890000000 1.0
C      1  0.5265560000000  0.4453990000000  0.5672740000000 1.0
C      1  0.5334170000000  0.5757350000000  0.5533350000000 1.0
C      1  0.4582430000000  0.5394930000000  0.5050690000000 1.0
C      1  0.5063460000000  0.5394340000000  0.4827570000000 1.0
C      1  0.5164920000000  0.5911620000000  0.5350510000000 1.0
C      1  0.5223630000000  0.4633840000000  0.5904480000000 1.0
C      1  0.4667250000000  0.5198900000000  0.4347080000000 1.0
C      1  0.5522410000000  0.4805270000000  0.4367970000000 1.0
C      1  0.4692440000000  0.4610890000000  0.4824840000000 1.0
C      1  0.4780320000000  0.4914060000000  0.4312710000000 1.0
C      1  0.4356710000000  0.5213980000000  0.4330470000000 1.0
C      1  0.4998810000000  0.5867220000000  0.4842620000000 1.0
C      1  0.4265160000000  0.5459250000000  0.4510710000000 1.0
C      1  0.4340390000000  0.5782000000000  0.5140700000000 1.0
C      1  0.5497320000000  0.4092780000000  0.4962450000000 1.0
C      1  0.5096960000000  0.4882190000000  0.4682200000000 1.0
C      1  0.4996440000000  0.4929170000000  0.4112650000000 1.0
C      1  0.4313130000000  0.4741140000000  0.5208010000000 1.0
C      1  0.4660520000000  0.4806010000000  0.5050360000000 1.0
C      1  0.4602100000000  0.4474670000000  0.5444220000000 1.0
C      1  0.4178850000000  0.5736440000000  0.4915710000000 1.0
C      1  0.5464470000000  0.4831800000000  0.5588490000000 1.0
C      1  0.4755880000000  0.4917910000000  0.5915250000000 1.0
C      1  0.4679030000000  0.5340310000000  0.4606830000000 1.0
C      1  0.5236530000000  0.4495800000000  0.4237480000000 1.0
C      1  0.4143770000000  0.5344260000000  0.5289440000000 1.0
C      1  0.5201180000000  0.5783930000000  0.5079120000000 1.0
C      1  0.4636760000000  0.5232710000000  0.5337480000000 1.0
C      1  0.4226830000000  0.4878870000000  0.5440720000000 1.0
C      1  0.5522040000000  0.5594170000000  0.4435740000000 1.0
C      1  0.5811700000000  0.5203150000000  0.5399200000000 1.0
C      1  0.4717780000000  0.5798300000000  0.4823390000000 1.0
C      1  0.4975300000000  0.4751790000000  0.5973650000000 1.0
C      1  0.5156520000000  0.5489450000000  0.5621850000000 1.0
C      1  0.5526800000000  0.4395490000000  0.4640850000000 1.0
C      1  0.5204380000000  0.5166760000000  0.4689950000000 1.0
C      1  0.4108290000000  0.5279140000000  0.4991420000000 1.0
C      1  0.4449500000000  0.4287080000000  0.5258770000000 1.0
C      1  0.5101250000000  0.5650570000000  0.4653850000000 1.0
C      1  0.4315730000000  0.5200530000000  0.5733030000000 1.0
C      1  0.5802660000000  0.5480260000000  0.4883050000000 1.0
C      1  0.4878040000000  0.5015130000000  0.5433700000000 1.0
C      1  0.5164270000000  0.5470170000000  0.5109380000000 1.0
C      1  0.5008440000000  0.4482090000000  0.4427710000000 1.0
C      1  0.4294750000000  0.4477440000000  0.5103780000000 1.0
C      1  0.4529850000000  0.5595240000000  0.5553320000000 1.0
C      1  0.5164570000000  0.4095720000000  0.5345470000000 1.0
C      1  0.5665130000000  0.4581280000000  0.5128550000000 1.0
C      1  0.5390200000000  0.5699240000000  0.4670260000000 1.0
C      1  0.5498240000000  0.5151790000000  0.4699210000000 1.0
C      1  0.5589980000000  0.5157690000000  0.4214020000000 1.0
C      1  0.4302600000000  0.4816120000000  0.5720460000000 1.0
C      1  0.4269410000000  0.5616560000000  0.5378350000000 1.0
C      1  0.4485300000000  0.4167790000000  0.4791170000000 1.0
C      1  0.4570580000000  0.4737570000000  0.5789840000000 1.0
C      1  0.4789880000000  0.5195690000000  0.5823800000000 1.0
C      1  0.5396000000000  0.4868740000000  0.5891350000000 1.0
END
