TITL C-951344-124-630 1.49747167112146e-07 125000 -299.92937067233 0 0 49 (C1) n - 1
REM
REM in /home/bkarasulu/work/CARBON/AIRSS/Generating-Clusters/EDIP-Nigel-Params/with-SteepDescent/Only-C1/SD-CG/HFTN-CG
REM
REM
REM
REM
REM
REM ./C.cell (11c1c37f851c82e70ff6c80c92926a4b)
REM
REM compiler GCC version 9.2.1 20190827 (Red Hat 9.2.1-1)
REM options -cpp -mtune=generic -march=x86-64 -g -O0 -fpre-include=/usr/include/finclude/math-vector-fortran.h
REM seed 891188810 -990340005 299132343 -423331314 -1540870170 542356039 1549722012 -1241831401 1552901208 1726931932 1243522417 773246 -1731953417 650029819 379282005 1869995781 2047128347 721201875 1630768313 117426791 1570078905 -1253606749 -601082587 2090220250 1875719544 661374795 1622522538 -618195631 1678400302 808347189 -302697769 -786182354 1992697110
REM
CELL 1.54180   50.00000   50.00000   50.00000   90.00000   90.00000   90.00000
LATT -1
SFAC C  
C      1  0.4424940000000  0.4916780000000  0.5028670000000 1.0
C      1  0.5054800000000  0.5412940000000  0.5303560000000 1.0
C      1  0.5382120000000  0.4593850000000  0.5221190000000 1.0
C      1  0.4951330000000  0.5269320000000  0.4323390000000 1.0
C      1  0.4560190000000  0.4994990000000  0.4403420000000 1.0
C      1  0.5208160000000  0.4993430000000  0.5704450000000 1.0
C      1  0.5099720000000  0.4557490000000  0.5155520000000 1.0
C      1  0.5843450000000  0.4985760000000  0.5082340000000 1.0
C      1  0.4758730000000  0.4823910000000  0.5624040000000 1.0
C      1  0.4378270000000  0.5283230000000  0.5350010000000 1.0
C      1  0.5746520000000  0.4807070000000  0.4893200000000 1.0
C      1  0.5486810000000  0.5317950000000  0.5174330000000 1.0
C      1  0.4948380000000  0.5011390000000  0.4713680000000 1.0
C      1  0.4511110000000  0.4867780000000  0.5504970000000 1.0
C      1  0.5729290000000  0.5189990000000  0.5214260000000 1.0
C      1  0.5523880000000  0.4872610000000  0.4444290000000 1.0
C      1  0.4954370000000  0.5036160000000  0.5603120000000 1.0
C      1  0.5328180000000  0.4671830000000  0.4500810000000 1.0
C      1  0.5045160000000  0.5199620000000  0.4915600000000 1.0
C      1  0.5353530000000  0.5458450000000  0.5388650000000 1.0
C      1  0.4625200000000  0.4497450000000  0.5176610000000 1.0
C      1  0.4322460000000  0.5084990000000  0.4814000000000 1.0
C      1  0.5269970000000  0.5736600000000  0.5371850000000 1.0
C      1  0.4981480000000  0.4715590000000  0.4646940000000 1.0
C      1  0.5739190000000  0.4882450000000  0.4623910000000 1.0
C      1  0.5081770000000  0.4509190000000  0.4868860000000 1.0
C      1  0.5425170000000  0.4844520000000  0.5666170000000 1.0
C      1  0.4877570000000  0.5301900000000  0.5516330000000 1.0
C      1  0.4406440000000  0.5353200000000  0.4804840000000 1.0
C      1  0.4666140000000  0.5396800000000  0.4702080000000 1.0
C      1  0.5430790000000  0.5095730000000  0.4308240000000 1.0
C      1  0.5479290000000  0.4680810000000  0.5463920000000 1.0
C      1  0.4878250000000  0.5440410000000  0.4900190000000 1.0
C      1  0.4650270000000  0.4751650000000  0.4298790000000 1.0
C      1  0.5511640000000  0.4654620000000  0.4967710000000 1.0
C      1  0.5357720000000  0.4529870000000  0.4754920000000 1.0
C      1  0.4868500000000  0.4486910000000  0.5314980000000 1.0
C      1  0.5208040000000  0.5233610000000  0.4255370000000 1.0
C      1  0.4859160000000  0.4565350000000  0.5584360000000 1.0
C      1  0.4542200000000  0.4559300000000  0.4718120000000 1.0
C      1  0.4606820000000  0.5351260000000  0.5477770000000 1.0
C      1  0.4483870000000  0.4636290000000  0.4979630000000 1.0
C      1  0.4894210000000  0.5685200000000  0.5043140000000 1.0
C      1  0.5019040000000  0.5803610000000  0.5261460000000 1.0
C      1  0.4774680000000  0.5169390000000  0.4527350000000 1.0
C      1  0.4328360000000  0.4974380000000  0.4558210000000 1.0
C      1  0.5298280000000  0.5181400000000  0.5024820000000 1.0
C      1  0.4735220000000  0.4604230000000  0.4520470000000 1.0
C      1  0.4389310000000  0.5008720000000  0.5299460000000 1.0
END
