TITL C-951339-9237-352 8.03735445304639e-06 125000 -997.937487484305 0 0 162 (C1) n - 1
REM
REM in /home/bkarasulu/work/CARBON/AIRSS/Generating-Clusters/EDIP-Nigel-Params/with-SteepDescent/Only-C1/SD-CG/HFTN-CG
REM
REM
REM
REM
REM
REM ./C.cell (11c1c37f851c82e70ff6c80c92926a4b)
REM
REM compiler GCC version 9.2.1 20190827 (Red Hat 9.2.1-1)
REM options -cpp -mtune=generic -march=x86-64 -g -O0 -fpre-include=/usr/include/finclude/math-vector-fortran.h
REM seed 348379221 1984285280 -1894776266 1312584231 -1894594302 252913499 -2080799498 1336761618 1141053852 103841475 -353869745 1854843898 -2046700039 1972754336 922582576 -1162802510 -1206623055 -157236821 -1430341284 101353971 -236330029 -1326174863 740775238 -1124938872 475672420 1413648184 -448606182 1189894004 1937274529 529385868 690713334 731136055 2034662060
REM
CELL 1.54180   50.00000   50.00000   50.00000   90.00000   90.00000   90.00000
LATT -1
SFAC C  
C      1  0.4231290000000  0.4397860000000  0.5498330000000 1.0
C      1  0.4857230000000  0.4736820000000  0.3960950000000 1.0
C      1  0.5646690000000  0.3987880000000  0.4640990000000 1.0
C      1  0.4667120000000  0.4604370000000  0.4148070000000 1.0
C      1  0.5034430000000  0.5108010000000  0.5089600000000 1.0
C      1  0.5427640000000  0.4051650000000  0.5467190000000 1.0
C      1  0.4760310000000  0.4386390000000  0.5486610000000 1.0
C      1  0.5091530000000  0.4127270000000  0.5147360000000 1.0
C      1  0.5008380000000  0.4253790000000  0.5605950000000 1.0
C      1  0.4398540000000  0.5930270000000  0.5091030000000 1.0
C      1  0.4168710000000  0.4837980000000  0.5718160000000 1.0
C      1  0.5326910000000  0.4813270000000  0.4513220000000 1.0
C      1  0.4236800000000  0.5302000000000  0.5683410000000 1.0
C      1  0.5873740000000  0.4657420000000  0.4836760000000 1.0
C      1  0.5424680000000  0.4466720000000  0.4937200000000 1.0
C      1  0.5380110000000  0.4480400000000  0.5866540000000 1.0
C      1  0.5603870000000  0.4928130000000  0.5851240000000 1.0
C      1  0.5011430000000  0.5391640000000  0.4565610000000 1.0
C      1  0.5520350000000  0.5933100000000  0.5143410000000 1.0
C      1  0.4847360000000  0.3935400000000  0.4683500000000 1.0
C      1  0.4375230000000  0.4922040000000  0.5915700000000 1.0
C      1  0.5286950000000  0.5720380000000  0.5522060000000 1.0
C      1  0.5975570000000  0.4825790000000  0.5054040000000 1.0
C      1  0.5248960000000  0.4999650000000  0.5315550000000 1.0
C      1  0.4409970000000  0.5295460000000  0.4098210000000 1.0
C      1  0.5868970000000  0.5187610000000  0.4620480000000 1.0
C      1  0.5863630000000  0.4981240000000  0.4407640000000 1.0
C      1  0.4775840000000  0.5027740000000  0.3940340000000 1.0
C      1  0.4784900000000  0.5041800000000  0.5447500000000 1.0
C      1  0.5375210000000  0.4533250000000  0.4440000000000 1.0
C      1  0.4217070000000  0.4711360000000  0.4311100000000 1.0
C      1  0.5296750000000  0.4905890000000  0.4045790000000 1.0
C      1  0.5566850000000  0.3968410000000  0.4918960000000 1.0
C      1  0.4410890000000  0.5766930000000  0.4681390000000 1.0
C      1  0.4284050000000  0.4342480000000  0.5012840000000 1.0
C      1  0.4338420000000  0.4905340000000  0.4740230000000 1.0
C      1  0.5209130000000  0.5432100000000  0.5572150000000 1.0
C      1  0.4831740000000  0.4292270000000  0.4945370000000 1.0
C      1  0.4738810000000  0.5423520000000  0.5931050000000 1.0
C      1  0.5602600000000  0.5338470000000  0.4642620000000 1.0
C      1  0.4853790000000  0.5963350000000  0.4959760000000 1.0
C      1  0.4970860000000  0.4452020000000  0.4725680000000 1.0
C      1  0.5033560000000  0.4192600000000  0.4303040000000 1.0
C      1  0.5257680000000  0.6083720000000  0.5202240000000 1.0
C      1  0.5480410000000  0.5821280000000  0.4844870000000 1.0
C      1  0.3932830000000  0.4727960000000  0.4886180000000 1.0
C      1  0.5742440000000  0.4256970000000  0.4629840000000 1.0
C      1  0.4692270000000  0.3953100000000  0.5179930000000 1.0
C      1  0.4981990000000  0.4721830000000  0.4839540000000 1.0
C      1  0.5607960000000  0.4236070000000  0.5348050000000 1.0
C      1  0.5244990000000  0.5017370000000  0.4328470000000 1.0
C      1  0.4716430000000  0.5857600000000  0.5694820000000 1.0
C      1  0.4658110000000  0.5418190000000  0.5628660000000 1.0
C      1  0.4094860000000  0.5043490000000  0.5274360000000 1.0
C      1  0.5865250000000  0.4822100000000  0.5804450000000 1.0
C      1  0.5183410000000  0.5595560000000  0.4407070000000 1.0
C      1  0.5169070000000  0.4459540000000  0.4231520000000 1.0
C      1  0.4070970000000  0.5602110000000  0.5011270000000 1.0
C      1  0.4382890000000  0.5661000000000  0.4401420000000 1.0
C      1  0.5936280000000  0.5351040000000  0.5050920000000 1.0
C      1  0.5265410000000  0.4369440000000  0.4673660000000 1.0
C      1  0.4577890000000  0.5068660000000  0.4729770000000 1.0
C      1  0.6055060000000  0.5095490000000  0.5009980000000 1.0
C      1  0.5270510000000  0.5340510000000  0.5839180000000 1.0
C      1  0.4056040000000  0.5089750000000  0.5582140000000 1.0
C      1  0.4412500000000  0.5217250000000  0.5902340000000 1.0
C      1  0.5452210000000  0.4758100000000  0.4938760000000 1.0
C      1  0.5333390000000  0.4541210000000  0.5560480000000 1.0
C      1  0.4042110000000  0.5274620000000  0.4440200000000 1.0
C      1  0.4657370000000  0.5460930000000  0.5077790000000 1.0
C      1  0.5418030000000  0.5410350000000  0.5138560000000 1.0
C      1  0.5326780000000  0.5463720000000  0.4187900000000 1.0
C      1  0.4481420000000  0.5068380000000  0.5514760000000 1.0
C      1  0.4613940000000  0.4752660000000  0.5944320000000 1.0
C      1  0.4904680000000  0.5993560000000  0.5541510000000 1.0
C      1  0.5179320000000  0.5155050000000  0.4824510000000 1.0
C      1  0.5553370000000  0.4677520000000  0.5985830000000 1.0
C      1  0.5186760000000  0.6123520000000  0.4701820000000 1.0
C      1  0.4552400000000  0.5367470000000  0.4812510000000 1.0
C      1  0.4527190000000  0.4236150000000  0.4431150000000 1.0
C      1  0.4966320000000  0.5803180000000  0.4734510000000 1.0
C      1  0.5724030000000  0.5118270000000  0.5267730000000 1.0
C      1  0.4795980000000  0.5907840000000  0.4229590000000 1.0
C      1  0.4766630000000  0.4649660000000  0.4466470000000 1.0
C      1  0.4964070000000  0.4594910000000  0.5321740000000 1.0
C      1  0.5677790000000  0.5080870000000  0.4190870000000 1.0
C      1  0.5209890000000  0.5668220000000  0.4844450000000 1.0
C      1  0.5975480000000  0.5194410000000  0.5551350000000 1.0
C      1  0.5690670000000  0.5629290000000  0.4715280000000 1.0
C      1  0.4927210000000  0.5383530000000  0.5177660000000 1.0
C      1  0.4612220000000  0.5032160000000  0.5168970000000 1.0
C      1  0.4790720000000  0.4135620000000  0.4473180000000 1.0
C      1  0.4219790000000  0.5521960000000  0.5250110000000 1.0
C      1  0.5241470000000  0.4097560000000  0.4504770000000 1.0
C      1  0.4478990000000  0.5665200000000  0.5234490000000 1.0
C      1  0.5751920000000  0.5346710000000  0.5643700000000 1.0
C      1  0.5074180000000  0.6162360000000  0.4969110000000 1.0
C      1  0.3982090000000  0.5224620000000  0.4708040000000 1.0
C      1  0.4872050000000  0.5311960000000  0.3950000000000 1.0
C      1  0.5832990000000  0.4706680000000  0.4540450000000 1.0
C      1  0.5506840000000  0.4859580000000  0.5210900000000 1.0
C      1  0.5460910000000  0.5240180000000  0.4338790000000 1.0
C      1  0.5546210000000  0.5746810000000  0.5394310000000 1.0
C      1  0.5234310000000  0.4862500000000  0.4776250000000 1.0
C      1  0.4193960000000  0.5839960000000  0.4892920000000 1.0
C      1  0.4091150000000  0.4992660000000  0.4880840000000 1.0
C      1  0.5595200000000  0.4533970000000  0.5402020000000 1.0
C      1  0.4558410000000  0.4403920000000  0.4887290000000 1.0
C      1  0.4767340000000  0.4956010000000  0.4535210000000 1.0
C      1  0.4598540000000  0.4159120000000  0.5347910000000 1.0
C      1  0.5545770000000  0.5214050000000  0.5811710000000 1.0
C      1  0.5453070000000  0.6054570000000  0.4672870000000 1.0
C      1  0.4268710000000  0.5397410000000  0.4332480000000 1.0
C      1  0.4916230000000  0.4320910000000  0.5887810000000 1.0
C      1  0.5139720000000  0.5400930000000  0.3983060000000 1.0
C      1  0.5267130000000  0.3954550000000  0.4957220000000 1.0
C      1  0.5136620000000  0.3896350000000  0.4694810000000 1.0
C      1  0.4535980000000  0.4480150000000  0.4595660000000 1.0
C      1  0.5984100000000  0.4906330000000  0.5557830000000 1.0
C      1  0.5010910000000  0.5261770000000  0.5967980000000 1.0
C      1  0.5742090000000  0.5608170000000  0.5543590000000 1.0
C      1  0.4250290000000  0.4794820000000  0.5253850000000 1.0
C      1  0.5447680000000  0.5245430000000  0.4889000000000 1.0
C      1  0.5138610000000  0.4656760000000  0.4006650000000 1.0
C      1  0.5103070000000  0.5883390000000  0.5366120000000 1.0
C      1  0.5681750000000  0.4470380000000  0.4422580000000 1.0
C      1  0.4740050000000  0.5554430000000  0.4631950000000 1.0
C      1  0.4292050000000  0.4670740000000  0.5511350000000 1.0
C      1  0.4566720000000  0.5676660000000  0.5526260000000 1.0
C      1  0.5720650000000  0.4164960000000  0.5090380000000 1.0
C      1  0.4288260000000  0.4653280000000  0.4582140000000 1.0
C      1  0.5130390000000  0.4782750000000  0.5517960000000 1.0
C      1  0.5147230000000  0.4050230000000  0.5442580000000 1.0
C      1  0.4908270000000  0.5321830000000  0.5473930000000 1.0
C      1  0.4782180000000  0.5715650000000  0.5933420000000 1.0
C      1  0.5906570000000  0.4741960000000  0.5325780000000 1.0
C      1  0.6082410000000  0.5385700000000  0.4636170000000 1.0
C      1  0.4092280000000  0.4583720000000  0.5115260000000 1.0
C      1  0.5118660000000  0.4503740000000  0.6003720000000 1.0
C      1  0.4621900000000  0.5688310000000  0.4233630000000 1.0
C      1  0.4636640000000  0.5471300000000  0.4039410000000 1.0
C      1  0.5577630000000  0.4888260000000  0.4007690000000 1.0
C      1  0.4202540000000  0.5403890000000  0.4824870000000 1.0
C      1  0.5022860000000  0.5000170000000  0.6096880000000 1.0
C      1  0.4289170000000  0.5240790000000  0.5173970000000 1.0
C      1  0.4837550000000  0.4775950000000  0.5099550000000 1.0
C      1  0.5039100000000  0.5818650000000  0.4308450000000 1.0
C      1  0.5051250000000  0.4772990000000  0.5897230000000 1.0
C      1  0.5726700000000  0.4393250000000  0.4893540000000 1.0
C      1  0.4503030000000  0.5024750000000  0.4037930000000 1.0
C      1  0.4323760000000  0.4230860000000  0.5294460000000 1.0
C      1  0.5957990000000  0.5558910000000  0.4839080000000 1.0
C      1  0.4770900000000  0.4870430000000  0.6152980000000 1.0
C      1  0.4710870000000  0.3873120000000  0.4921930000000 1.0
C      1  0.5397210000000  0.5258650000000  0.5397870000000 1.0
C      1  0.4980080000000  0.5128540000000  0.4431230000000 1.0
C      1  0.5161210000000  0.5578190000000  0.5126220000000 1.0
C      1  0.4412430000000  0.4756260000000  0.4117320000000 1.0
C      1  0.4071770000000  0.4509410000000  0.4730140000000 1.0
C      1  0.4661810000000  0.4478940000000  0.5835630000000 1.0
C      1  0.4589390000000  0.6034720000000  0.4904520000000 1.0
C      1  0.5228300000000  0.4408940000000  0.5205010000000 1.0
END
