TITL C-950522-5749-300 -2.41000494602603e-06 125000 -665.541779710835 0 0 106 (C1) n - 1
REM
REM in /home/bkarasulu/work/CARBON/AIRSS/Generating-Clusters/EDIP-Nigel-Params/with-SteepDescent/Only-C1/SD-CG/HFTN-CG
REM
REM
REM
REM
REM
REM ./C.cell (11c1c37f851c82e70ff6c80c92926a4b)
REM
REM compiler GCC version 9.2.1 20190827 (Red Hat 9.2.1-1)
REM options -cpp -mtune=generic -march=x86-64 -g -O0 -fpre-include=/usr/include/finclude/math-vector-fortran.h
REM seed -1426134017 -718782577 1474599511 546616727 1538938469 -222348988 -1742780014 -2080086506 -96401350 1865998876 -1250073777 -2139368968 190638944 1935061740 1609866278 -1290125082 1417734181 1858351582 -1693523262 -213209899 -486791341 -1967059617 1862959841 411616447 -131479141 -260516456 -338031652 200600835 1157200648 -643545051 566687669 -1525589595 459615101
REM
CELL 1.54180   50.00000   50.00000   50.00000   90.00000   90.00000   90.00000
LATT -1
SFAC C  
C      1  0.5412190000000  0.5341750000000  0.5714660000000 1.0
C      1  0.5150030000000  0.5075830000000  0.5073980000000 1.0
C      1  0.4949280000000  0.5386200000000  0.5587240000000 1.0
C      1  0.5494040000000  0.5807160000000  0.5137350000000 1.0
C      1  0.4461870000000  0.4913030000000  0.5380600000000 1.0
C      1  0.5498510000000  0.5710020000000  0.4438020000000 1.0
C      1  0.5479550000000  0.4378640000000  0.5531540000000 1.0
C      1  0.4942550000000  0.5847630000000  0.5514570000000 1.0
C      1  0.4283500000000  0.4318450000000  0.4967370000000 1.0
C      1  0.4412170000000  0.5644700000000  0.4680300000000 1.0
C      1  0.5739780000000  0.4928640000000  0.4673600000000 1.0
C      1  0.4823170000000  0.4672780000000  0.4666250000000 1.0
C      1  0.5094990000000  0.5214530000000  0.4831770000000 1.0
C      1  0.4766060000000  0.5766880000000  0.5067280000000 1.0
C      1  0.4816850000000  0.5511360000000  0.4619520000000 1.0
C      1  0.4150270000000  0.5172010000000  0.4898730000000 1.0
C      1  0.4582440000000  0.5417680000000  0.4297800000000 1.0
C      1  0.5019880000000  0.4585950000000  0.4232480000000 1.0
C      1  0.5536900000000  0.5416050000000  0.4806150000000 1.0
C      1  0.5826720000000  0.4738560000000  0.5414880000000 1.0
C      1  0.4868630000000  0.5359660000000  0.4358540000000 1.0
C      1  0.4320420000000  0.4834710000000  0.4242080000000 1.0
C      1  0.5244870000000  0.5464950000000  0.4864990000000 1.0
C      1  0.4915450000000  0.4932720000000  0.5160240000000 1.0
C      1  0.5024240000000  0.5128240000000  0.5701830000000 1.0
C      1  0.5117670000000  0.5632940000000  0.5564920000000 1.0
C      1  0.5026910000000  0.4501630000000  0.5706770000000 1.0
C      1  0.5357350000000  0.4877900000000  0.4043930000000 1.0
C      1  0.4889080000000  0.4186610000000  0.5184360000000 1.0
C      1  0.4512370000000  0.4476430000000  0.5352400000000 1.0
C      1  0.5419400000000  0.4958880000000  0.5060050000000 1.0
C      1  0.4800150000000  0.4689900000000  0.5706440000000 1.0
C      1  0.4952620000000  0.4241770000000  0.5636970000000 1.0
C      1  0.5811000000000  0.5443820000000  0.5209210000000 1.0
C      1  0.5725040000000  0.4899660000000  0.5629410000000 1.0
C      1  0.5901160000000  0.5172200000000  0.5133180000000 1.0
C      1  0.4217760000000  0.4929600000000  0.4485800000000 1.0
C      1  0.4256030000000  0.4487170000000  0.5215270000000 1.0
C      1  0.5308180000000  0.4578020000000  0.5660870000000 1.0
C      1  0.5286490000000  0.4781400000000  0.4626640000000 1.0
C      1  0.4707720000000  0.5841280000000  0.5365240000000 1.0
C      1  0.4781600000000  0.4689500000000  0.4115920000000 1.0
C      1  0.5384000000000  0.4687420000000  0.4922880000000 1.0
C      1  0.4740180000000  0.5363930000000  0.5371100000000 1.0
C      1  0.5485360000000  0.5011630000000  0.5354570000000 1.0
C      1  0.5560180000000  0.5447300000000  0.4515310000000 1.0
C      1  0.4218830000000  0.5110000000000  0.5396740000000 1.0
C      1  0.4325060000000  0.5172390000000  0.4645520000000 1.0
C      1  0.5006650000000  0.5877730000000  0.4892800000000 1.0
C      1  0.5286660000000  0.4612740000000  0.4116410000000 1.0
C      1  0.4161170000000  0.4730770000000  0.4698150000000 1.0
C      1  0.5124190000000  0.4306690000000  0.4631430000000 1.0
C      1  0.4096700000000  0.4883940000000  0.4938900000000 1.0
C      1  0.5357940000000  0.5259860000000  0.4383620000000 1.0
C      1  0.5855220000000  0.4879260000000  0.5154780000000 1.0
C      1  0.4943600000000  0.4650880000000  0.5169490000000 1.0
C      1  0.5074530000000  0.5663710000000  0.4685600000000 1.0
C      1  0.4488110000000  0.5700790000000  0.4945440000000 1.0
C      1  0.5065460000000  0.4582510000000  0.4530080000000 1.0
C      1  0.4594140000000  0.4822670000000  0.4276890000000 1.0
C      1  0.4353150000000  0.5559020000000  0.5166400000000 1.0
C      1  0.5677500000000  0.5608140000000  0.4996070000000 1.0
C      1  0.4715460000000  0.4910620000000  0.4533160000000 1.0
C      1  0.5722010000000  0.4479520000000  0.5437470000000 1.0
C      1  0.4236390000000  0.5292000000000  0.5151210000000 1.0
C      1  0.4372830000000  0.5436010000000  0.4495840000000 1.0
C      1  0.5456030000000  0.5701270000000  0.5412420000000 1.0
C      1  0.4798150000000  0.5305360000000  0.4835180000000 1.0
C      1  0.4541120000000  0.4613660000000  0.5607470000000 1.0
C      1  0.4691800000000  0.5073440000000  0.5279680000000 1.0
C      1  0.4833600000000  0.4206130000000  0.4713060000000 1.0
C      1  0.5633290000000  0.4517790000000  0.4900770000000 1.0
C      1  0.4669510000000  0.4457590000000  0.4810240000000 1.0
C      1  0.5217290000000  0.5706780000000  0.4416640000000 1.0
C      1  0.4299520000000  0.4475470000000  0.4723990000000 1.0
C      1  0.5615740000000  0.5123460000000  0.4879930000000 1.0
C      1  0.4336700000000  0.5241640000000  0.5647740000000 1.0
C      1  0.4868180000000  0.5481990000000  0.5125840000000 1.0
C      1  0.5142600000000  0.5462640000000  0.4260140000000 1.0
C      1  0.5290160000000  0.5095120000000  0.5812830000000 1.0
C      1  0.5617910000000  0.4315130000000  0.4703620000000 1.0
C      1  0.5256880000000  0.5902600000000  0.5017940000000 1.0
C      1  0.5190360000000  0.4537130000000  0.5090840000000 1.0
C      1  0.4547790000000  0.5094670000000  0.5764510000000 1.0
C      1  0.4929280000000  0.5074400000000  0.4427070000000 1.0
C      1  0.5438390000000  0.4850830000000  0.5709450000000 1.0
C      1  0.4595270000000  0.5090030000000  0.4737330000000 1.0
C      1  0.4465910000000  0.4097610000000  0.4986140000000 1.0
C      1  0.4149630000000  0.4776600000000  0.5209160000000 1.0
C      1  0.4800320000000  0.4966840000000  0.5793020000000 1.0
C      1  0.5187020000000  0.4248730000000  0.5145780000000 1.0
C      1  0.5491040000000  0.5021390000000  0.4244290000000 1.0
C      1  0.5833910000000  0.4734370000000  0.4889050000000 1.0
C      1  0.5480790000000  0.4485390000000  0.4301050000000 1.0
C      1  0.5546430000000  0.4815480000000  0.4460120000000 1.0
C      1  0.5177750000000  0.5075680000000  0.4580100000000 1.0
C      1  0.4842830000000  0.4079480000000  0.5449790000000 1.0
C      1  0.5355740000000  0.4188440000000  0.5364090000000 1.0
C      1  0.4734620000000  0.4451710000000  0.5143070000000 1.0
C      1  0.5180660000000  0.5502910000000  0.5178230000000 1.0
C      1  0.4364530000000  0.5521870000000  0.5649100000000 1.0
C      1  0.4745570000000  0.4047430000000  0.4953680000000 1.0
C      1  0.5411130000000  0.4288350000000  0.4512400000000 1.0
C      1  0.5668190000000  0.5497620000000  0.5466300000000 1.0
C      1  0.5344820000000  0.5283250000000  0.5417900000000 1.0
C      1  0.4519320000000  0.5583370000000  0.5411030000000 1.0
END
