TITL C-950534-5965-403 -1.35535108105461e-07 125000 -1070.95988751071 0 0 172 (C1) n - 1
REM
REM in /home/bkarasulu/work/CARBON/AIRSS/Generating-Clusters/EDIP-Nigel-Params/with-SteepDescent/Only-C1/SD-CG/HFTN-CG
REM
REM
REM
REM
REM
REM ./C.cell (11c1c37f851c82e70ff6c80c92926a4b)
REM
REM compiler GCC version 9.2.1 20190827 (Red Hat 9.2.1-1)
REM options -cpp -mtune=generic -march=x86-64 -g -O0 -fpre-include=/usr/include/finclude/math-vector-fortran.h
REM seed -302941676 -1557618213 1100761547 728638082 -1538630065 1464635170 -557018587 -976945089 1337562244 -244116043 -1017163315 1845456413 322942839 1971280754 238332744 -441452507 1042648912 -1466557453 -2022363303 -590772642 -109179716 -950032850 -510121951 1362241619 1876901505 304930039 -1170642525 1874333417 2027124493 137467201 -1713334021 -645084142 -827394277
REM
CELL 1.54180   50.00000   50.00000   50.00000   90.00000   90.00000   90.00000
LATT -1
SFAC C  
C      1  0.5038340000000  0.3860490000000  0.5048750000000 1.0
C      1  0.4831450000000  0.5177330000000  0.3715500000000 1.0
C      1  0.5160640000000  0.4614760000000  0.4020410000000 1.0
C      1  0.5937350000000  0.4647110000000  0.4809050000000 1.0
C      1  0.4471780000000  0.5201340000000  0.4623010000000 1.0
C      1  0.5512710000000  0.3947200000000  0.5060520000000 1.0
C      1  0.4829550000000  0.5426380000000  0.4369750000000 1.0
C      1  0.4894610000000  0.5077190000000  0.6269460000000 1.0
C      1  0.4085220000000  0.5119380000000  0.4306700000000 1.0
C      1  0.4930820000000  0.6134420000000  0.4904070000000 1.0
C      1  0.5157140000000  0.4775130000000  0.5959020000000 1.0
C      1  0.5288770000000  0.6003190000000  0.5227310000000 1.0
C      1  0.5725800000000  0.4175370000000  0.4692000000000 1.0
C      1  0.4869810000000  0.4907400000000  0.3783250000000 1.0
C      1  0.5514780000000  0.5117360000000  0.4890000000000 1.0
C      1  0.5460820000000  0.4099610000000  0.4810470000000 1.0
C      1  0.3933860000000  0.4917110000000  0.5196380000000 1.0
C      1  0.4439410000000  0.4827800000000  0.4390450000000 1.0
C      1  0.5405190000000  0.4944270000000  0.5957720000000 1.0
C      1  0.4158240000000  0.4840630000000  0.4334420000000 1.0
C      1  0.6008800000000  0.4808540000000  0.5272250000000 1.0
C      1  0.4057970000000  0.4635420000000  0.4878520000000 1.0
C      1  0.5941140000000  0.4324920000000  0.4823070000000 1.0
C      1  0.4682170000000  0.5663220000000  0.5883460000000 1.0
C      1  0.5697430000000  0.4661530000000  0.4975650000000 1.0
C      1  0.4516800000000  0.5425770000000  0.5769050000000 1.0
C      1  0.4387710000000  0.4790180000000  0.5214850000000 1.0
C      1  0.4633200000000  0.4699700000000  0.4564020000000 1.0
C      1  0.5044020000000  0.5212210000000  0.4922960000000 1.0
C      1  0.4914210000000  0.5658820000000  0.5129990000000 1.0
C      1  0.5246870000000  0.4000160000000  0.4604460000000 1.0
C      1  0.5319210000000  0.5104280000000  0.3979680000000 1.0
C      1  0.4333310000000  0.4052950000000  0.5298170000000 1.0
C      1  0.4467560000000  0.4930950000000  0.5927480000000 1.0
C      1  0.4794110000000  0.5413200000000  0.4935360000000 1.0
C      1  0.5751550000000  0.5404480000000  0.4407630000000 1.0
C      1  0.5278180000000  0.5570300000000  0.5795650000000 1.0
C      1  0.5441790000000  0.5601540000000  0.4997630000000 1.0
C      1  0.5070690000000  0.4900300000000  0.3997750000000 1.0
C      1  0.5658970000000  0.4577510000000  0.5733040000000 1.0
C      1  0.4979440000000  0.4887050000000  0.4889950000000 1.0
C      1  0.4786830000000  0.4579710000000  0.5283230000000 1.0
C      1  0.5975680000000  0.5449430000000  0.4926370000000 1.0
C      1  0.5809370000000  0.5131560000000  0.4569760000000 1.0
C      1  0.4846940000000  0.5256340000000  0.6044650000000 1.0
C      1  0.5776210000000  0.5326360000000  0.5789870000000 1.0
C      1  0.5466180000000  0.4816740000000  0.4888880000000 1.0
C      1  0.4914590000000  0.4824710000000  0.6137500000000 1.0
C      1  0.4585990000000  0.4628890000000  0.5078000000000 1.0
C      1  0.4999000000000  0.3911230000000  0.4758780000000 1.0
C      1  0.4401070000000  0.5068680000000  0.3916900000000 1.0
C      1  0.6024120000000  0.5229330000000  0.4767740000000 1.0
C      1  0.5296780000000  0.5263510000000  0.4731970000000 1.0
C      1  0.4789690000000  0.5933320000000  0.5048450000000 1.0
C      1  0.4641660000000  0.5453440000000  0.4110160000000 1.0
C      1  0.4889640000000  0.4707760000000  0.4406220000000 1.0
C      1  0.4350600000000  0.4210730000000  0.4809870000000 1.0
C      1  0.4950690000000  0.4360440000000  0.5757560000000 1.0
C      1  0.5832290000000  0.4654030000000  0.4317180000000 1.0
C      1  0.5504340000000  0.6087140000000  0.5039410000000 1.0
C      1  0.4461890000000  0.4205130000000  0.5084890000000 1.0
C      1  0.5182380000000  0.5829710000000  0.5698120000000 1.0
C      1  0.4349060000000  0.5494570000000  0.4159900000000 1.0
C      1  0.5625320000000  0.4483960000000  0.4227860000000 1.0
C      1  0.4189680000000  0.5283000000000  0.4541320000000 1.0
C      1  0.4667830000000  0.5145720000000  0.5346110000000 1.0
C      1  0.5197850000000  0.5762130000000  0.5061320000000 1.0
C      1  0.5041320000000  0.5634660000000  0.4364550000000 1.0
C      1  0.5475430000000  0.5298780000000  0.5141620000000 1.0
C      1  0.5739210000000  0.5317410000000  0.5332190000000 1.0
C      1  0.4508230000000  0.4905130000000  0.5458010000000 1.0
C      1  0.5260120000000  0.4847580000000  0.5334100000000 1.0
C      1  0.5678740000000  0.4332180000000  0.5586800000000 1.0
C      1  0.4201820000000  0.4385580000000  0.5646990000000 1.0
C      1  0.5645420000000  0.5457010000000  0.5576210000000 1.0
C      1  0.5113290000000  0.5976300000000  0.4745360000000 1.0
C      1  0.5379880000000  0.5545610000000  0.4717570000000 1.0
C      1  0.4454060000000  0.4374180000000  0.5760160000000 1.0
C      1  0.4533220000000  0.4085340000000  0.4632790000000 1.0
C      1  0.4668520000000  0.4524270000000  0.4065260000000 1.0
C      1  0.4758190000000  0.4133100000000  0.5057920000000 1.0
C      1  0.4110780000000  0.5146290000000  0.5631140000000 1.0
C      1  0.4939030000000  0.4330710000000  0.5239780000000 1.0
C      1  0.4618860000000  0.5257620000000  0.3883740000000 1.0
C      1  0.5461100000000  0.4641420000000  0.4035180000000 1.0
C      1  0.4219660000000  0.4455810000000  0.4709550000000 1.0
C      1  0.4013490000000  0.5158560000000  0.5350040000000 1.0
C      1  0.5189880000000  0.4278190000000  0.4447940000000 1.0
C      1  0.5119400000000  0.5401610000000  0.5617170000000 1.0
C      1  0.5270420000000  0.4635160000000  0.5520070000000 1.0
C      1  0.4914630000000  0.5560120000000  0.5469080000000 1.0
C      1  0.4658400000000  0.5442190000000  0.4640210000000 1.0
C      1  0.4505050000000  0.5951990000000  0.5065320000000 1.0
C      1  0.4843160000000  0.5548060000000  0.6089100000000 1.0
C      1  0.4008530000000  0.5226920000000  0.4783810000000 1.0
C      1  0.4148140000000  0.4190680000000  0.5453770000000 1.0
C      1  0.5481930000000  0.4133190000000  0.5598940000000 1.0
C      1  0.4824000000000  0.5807840000000  0.5645810000000 1.0
C      1  0.4222310000000  0.5422640000000  0.5682790000000 1.0
C      1  0.4490260000000  0.5697730000000  0.4609300000000 1.0
C      1  0.4777640000000  0.3974010000000  0.5530310000000 1.0
C      1  0.5278270000000  0.5611290000000  0.4189700000000 1.0
C      1  0.4020180000000  0.5448700000000  0.4975490000000 1.0
C      1  0.4963620000000  0.5885160000000  0.4490800000000 1.0
C      1  0.5976730000000  0.5042590000000  0.5443210000000 1.0
C      1  0.5579780000000  0.5648050000000  0.4515220000000 1.0
C      1  0.5930040000000  0.5501770000000  0.5194910000000 1.0
C      1  0.4528570000000  0.3925110000000  0.5447510000000 1.0
C      1  0.4966760000000  0.4918920000000  0.5648870000000 1.0
C      1  0.5463090000000  0.4443190000000  0.4467040000000 1.0
C      1  0.5674830000000  0.5881340000000  0.4687680000000 1.0
C      1  0.4496240000000  0.5053100000000  0.4874530000000 1.0
C      1  0.5705270000000  0.5375660000000  0.4132070000000 1.0
C      1  0.4664540000000  0.4721510000000  0.6010730000000 1.0
C      1  0.4587540000000  0.5885020000000  0.5436870000000 1.0
C      1  0.4121080000000  0.4655020000000  0.5570810000000 1.0
C      1  0.4200330000000  0.4468420000000  0.4419050000000 1.0
C      1  0.5468000000000  0.5792350000000  0.4281080000000 1.0
C      1  0.5520940000000  0.4925100000000  0.4101470000000 1.0
C      1  0.3991760000000  0.4937300000000  0.4903970000000 1.0
C      1  0.5402160000000  0.4731840000000  0.4586560000000 1.0
C      1  0.5168110000000  0.5263430000000  0.5199980000000 1.0
C      1  0.5796910000000  0.4375770000000  0.5323210000000 1.0
C      1  0.4107250000000  0.5700030000000  0.4893420000000 1.0
C      1  0.5500790000000  0.4966570000000  0.4409800000000 1.0
C      1  0.4680660000000  0.5888630000000  0.4501920000000 1.0
C      1  0.5815200000000  0.5062990000000  0.5688170000000 1.0
C      1  0.6120770000000  0.4802180000000  0.4991760000000 1.0
C      1  0.4213740000000  0.5239300000000  0.4067850000000 1.0
C      1  0.4651540000000  0.5409540000000  0.5494450000000 1.0
C      1  0.5273660000000  0.3901470000000  0.5213990000000 1.0
C      1  0.5086050000000  0.4428580000000  0.4695230000000 1.0
C      1  0.4110340000000  0.4679360000000  0.5258570000000 1.0
C      1  0.4671530000000  0.4809700000000  0.4851820000000 1.0
C      1  0.5880720000000  0.4810140000000  0.4545880000000 1.0
C      1  0.5220650000000  0.4741470000000  0.5072060000000 1.0
C      1  0.4216750000000  0.5556630000000  0.5411490000000 1.0
C      1  0.5623610000000  0.4857360000000  0.5778760000000 1.0
C      1  0.4633540000000  0.4765110000000  0.3888560000000 1.0
C      1  0.5054690000000  0.5187720000000  0.5826690000000 1.0
C      1  0.4959500000000  0.4471780000000  0.4203960000000 1.0
C      1  0.4731760000000  0.4720370000000  0.5545130000000 1.0
C      1  0.4982800000000  0.5167890000000  0.4395500000000 1.0
C      1  0.4693390000000  0.4526100000000  0.5780790000000 1.0
C      1  0.5305030000000  0.4353400000000  0.4871740000000 1.0
C      1  0.5173440000000  0.4548220000000  0.5769610000000 1.0
C      1  0.4980460000000  0.4173350000000  0.5513170000000 1.0
C      1  0.5248800000000  0.4034230000000  0.5479000000000 1.0
C      1  0.5657420000000  0.5819410000000  0.5002210000000 1.0
C      1  0.5048380000000  0.5046660000000  0.5367250000000 1.0
C      1  0.5761830000000  0.4656210000000  0.5258860000000 1.0
C      1  0.5653970000000  0.5748490000000  0.5497900000000 1.0
C      1  0.5267230000000  0.5153050000000  0.4470210000000 1.0
C      1  0.5207270000000  0.4437780000000  0.5127200000000 1.0
C      1  0.5422300000000  0.5359730000000  0.4112140000000 1.0
C      1  0.4437080000000  0.4468170000000  0.4241740000000 1.0
C      1  0.4178350000000  0.5349620000000  0.5199100000000 1.0
C      1  0.5092250000000  0.4719790000000  0.4630490000000 1.0
C      1  0.4263390000000  0.5574020000000  0.4437500000000 1.0
C      1  0.4363300000000  0.5800670000000  0.4860350000000 1.0
C      1  0.4287720000000  0.4902730000000  0.5675880000000 1.0
C      1  0.4901280000000  0.4948760000000  0.4237750000000 1.0
C      1  0.5389170000000  0.5913950000000  0.5497530000000 1.0
C      1  0.4583760000000  0.5195920000000  0.5936770000000 1.0
C      1  0.6197320000000  0.5045390000000  0.4882150000000 1.0
C      1  0.5822440000000  0.5765420000000  0.5248470000000 1.0
C      1  0.4783140000000  0.4116060000000  0.4758070000000 1.0
C      1  0.5413020000000  0.6081540000000  0.4741430000000 1.0
C      1  0.4491750000000  0.5619350000000  0.5349020000000 1.0
C      1  0.4541340000000  0.5259300000000  0.5088700000000 1.0
C      1  0.5329240000000  0.5220090000000  0.5957890000000 1.0
C      1  0.5804380000000  0.4193180000000  0.5077870000000 1.0
END
