TITL C-951346-9544-112 1.27481458551289e-06 125000 -729.062739528165 0 0 117 (C1) n - 1
REM
REM in /home/bkarasulu/work/CARBON/AIRSS/Generating-Clusters/EDIP-Nigel-Params/with-SteepDescent/Only-C1/SD-CG/HFTN-CG
REM
REM
REM
REM
REM
REM ./C.cell (11c1c37f851c82e70ff6c80c92926a4b)
REM
REM compiler GCC version 9.2.1 20190827 (Red Hat 9.2.1-1)
REM options -cpp -mtune=generic -march=x86-64 -g -O0 -fpre-include=/usr/include/finclude/math-vector-fortran.h
REM seed -1755110599 -1316236150 -782581368 -866191811 -740596741 -1873360630 -1107394930 -525645566 -260249265 -1896789057 -101491073 624886500 -1040364208 -18295378 772498424 -676527655 870171717 -1703545735 -844575662 1877380587 1048743935 -372066582 -132068752 134841988 948692816 1831924897 515335100 -1577333522 -1354712048 2004404750 -178287221 -1139110282 -1501203205
REM
CELL 1.54180   50.00000   50.00000   50.00000   90.00000   90.00000   90.00000
LATT -1
SFAC C  
C      1  0.5475220000000  0.5607470000000  0.4367480000000 1.0
C      1  0.4670490000000  0.4420080000000  0.4951650000000 1.0
C      1  0.4809090000000  0.4169700000000  0.4870720000000 1.0
C      1  0.5185820000000  0.5553410000000  0.4296700000000 1.0
C      1  0.4946870000000  0.5647780000000  0.5470580000000 1.0
C      1  0.5796690000000  0.5342190000000  0.5028250000000 1.0
C      1  0.5233790000000  0.4158500000000  0.5151680000000 1.0
C      1  0.5498320000000  0.4708120000000  0.5206080000000 1.0
C      1  0.4919130000000  0.4886160000000  0.5790210000000 1.0
C      1  0.4396130000000  0.5134730000000  0.5691220000000 1.0
C      1  0.5937680000000  0.4935170000000  0.4707580000000 1.0
C      1  0.5313350000000  0.5314790000000  0.4852730000000 1.0
C      1  0.4561870000000  0.5316680000000  0.4972270000000 1.0
C      1  0.5274710000000  0.4921840000000  0.5196430000000 1.0
C      1  0.4355680000000  0.4831060000000  0.5003130000000 1.0
C      1  0.4949870000000  0.4921210000000  0.5496820000000 1.0
C      1  0.5703040000000  0.4836910000000  0.4345850000000 1.0
C      1  0.4845150000000  0.5487860000000  0.4996110000000 1.0
C      1  0.4914120000000  0.4182590000000  0.5573340000000 1.0
C      1  0.5510820000000  0.4520890000000  0.5750290000000 1.0
C      1  0.5991210000000  0.4856870000000  0.4341080000000 1.0
C      1  0.4616650000000  0.4294680000000  0.4489210000000 1.0
C      1  0.4167950000000  0.5032720000000  0.4488250000000 1.0
C      1  0.4602310000000  0.5684650000000  0.4355630000000 1.0
C      1  0.4174660000000  0.4591330000000  0.5349660000000 1.0
C      1  0.4375940000000  0.5669560000000  0.4776260000000 1.0
C      1  0.5295520000000  0.4367100000000  0.5836460000000 1.0
C      1  0.4484930000000  0.5568310000000  0.5538080000000 1.0
C      1  0.5094680000000  0.5279970000000  0.4250500000000 1.0
C      1  0.4816330000000  0.5270740000000  0.4148000000000 1.0
C      1  0.4257560000000  0.5467640000000  0.4992120000000 1.0
C      1  0.5456580000000  0.5812390000000  0.4577160000000 1.0
C      1  0.4715090000000  0.5632120000000  0.5679380000000 1.0
C      1  0.4176190000000  0.4951750000000  0.5708870000000 1.0
C      1  0.4538440000000  0.4827120000000  0.4269010000000 1.0
C      1  0.5051930000000  0.4774930000000  0.5066570000000 1.0
C      1  0.4570910000000  0.5141330000000  0.4725770000000 1.0
C      1  0.5544440000000  0.4673270000000  0.4904880000000 1.0
C      1  0.4592760000000  0.4536300000000  0.5639430000000 1.0
C      1  0.4972380000000  0.4762050000000  0.4071530000000 1.0
C      1  0.4367580000000  0.4426330000000  0.4598280000000 1.0
C      1  0.5411490000000  0.5785540000000  0.5369930000000 1.0
C      1  0.4799740000000  0.5390190000000  0.5875240000000 1.0
C      1  0.4672860000000  0.4315540000000  0.5458620000000 1.0
C      1  0.5134660000000  0.5870970000000  0.5411630000000 1.0
C      1  0.5273880000000  0.4609340000000  0.4789150000000 1.0
C      1  0.5659470000000  0.4937990000000  0.4826320000000 1.0
C      1  0.4765980000000  0.5769300000000  0.5083700000000 1.0
C      1  0.4829150000000  0.4504390000000  0.4464520000000 1.0
C      1  0.4713680000000  0.4070220000000  0.4625970000000 1.0
C      1  0.4652460000000  0.5125860000000  0.5854220000000 1.0
C      1  0.4943210000000  0.5205780000000  0.5467060000000 1.0
C      1  0.4413960000000  0.4743260000000  0.5488970000000 1.0
C      1  0.5336310000000  0.4586830000000  0.4351540000000 1.0
C      1  0.4510790000000  0.4847660000000  0.4743340000000 1.0
C      1  0.4565160000000  0.5182620000000  0.5242590000000 1.0
C      1  0.5211220000000  0.5811070000000  0.4945860000000 1.0
C      1  0.4599850000000  0.5114220000000  0.4282610000000 1.0
C      1  0.5016240000000  0.5927100000000  0.5137300000000 1.0
C      1  0.5230800000000  0.4802030000000  0.4168340000000 1.0
C      1  0.5972610000000  0.4706450000000  0.5309530000000 1.0
C      1  0.4545100000000  0.4888090000000  0.5241260000000 1.0
C      1  0.5048400000000  0.5358010000000  0.5698110000000 1.0
C      1  0.5503970000000  0.5415930000000  0.5350280000000 1.0
C      1  0.4626540000000  0.5830660000000  0.4816410000000 1.0
C      1  0.5190380000000  0.4871410000000  0.4654530000000 1.0
C      1  0.5455790000000  0.4325750000000  0.5219640000000 1.0
C      1  0.5022880000000  0.5354310000000  0.5227070000000 1.0
C      1  0.5414250000000  0.5072100000000  0.4682060000000 1.0
C      1  0.5106400000000  0.5547420000000  0.4809990000000 1.0
C      1  0.4762880000000  0.4657380000000  0.4220920000000 1.0
C      1  0.5299580000000  0.5242710000000  0.5148070000000 1.0
C      1  0.5862630000000  0.4449220000000  0.5340930000000 1.0
C      1  0.5076260000000  0.4079220000000  0.5368530000000 1.0
C      1  0.4346650000000  0.4758380000000  0.4499900000000 1.0
C      1  0.4007890000000  0.4880370000000  0.5474420000000 1.0
C      1  0.4139170000000  0.5355200000000  0.5295180000000 1.0
C      1  0.4951840000000  0.4887880000000  0.4817580000000 1.0
C      1  0.4835560000000  0.4597430000000  0.5805350000000 1.0
C      1  0.5724570000000  0.4321000000000  0.5102040000000 1.0
C      1  0.5448490000000  0.4800080000000  0.5721280000000 1.0
C      1  0.5624820000000  0.5740470000000  0.4808210000000 1.0
C      1  0.5728790000000  0.5069850000000  0.5075680000000 1.0
C      1  0.5727210000000  0.4456980000000  0.4821260000000 1.0
C      1  0.5469190000000  0.5766660000000  0.5078250000000 1.0
C      1  0.5526660000000  0.5247970000000  0.5611300000000 1.0
C      1  0.4132590000000  0.5043390000000  0.4997530000000 1.0
C      1  0.5033860000000  0.4390540000000  0.5738320000000 1.0
C      1  0.5639620000000  0.4976650000000  0.5587020000000 1.0
C      1  0.5649000000000  0.5383110000000  0.4465350000000 1.0
C      1  0.5237800000000  0.4248860000000  0.4656160000000 1.0
C      1  0.4393770000000  0.5313640000000  0.5449340000000 1.0
C      1  0.5126670000000  0.4397820000000  0.4439560000000 1.0
C      1  0.5610050000000  0.4583970000000  0.4474060000000 1.0
C      1  0.5097010000000  0.4222100000000  0.4900870000000 1.0
C      1  0.4368380000000  0.4385410000000  0.4901080000000 1.0
C      1  0.4757320000000  0.4668060000000  0.4745460000000 1.0
C      1  0.4204880000000  0.4583080000000  0.5050530000000 1.0
C      1  0.4047980000000  0.5369430000000  0.4800350000000 1.0
C      1  0.4383950000000  0.5548460000000  0.4501350000000 1.0
C      1  0.6113770000000  0.4762290000000  0.4572230000000 1.0
C      1  0.4719620000000  0.5532840000000  0.4152510000000 1.0
C      1  0.4413380000000  0.5233220000000  0.4489380000000 1.0
C      1  0.4784000000000  0.5803990000000  0.4553700000000 1.0
C      1  0.3998730000000  0.5094060000000  0.4720090000000 1.0
C      1  0.5306680000000  0.5084570000000  0.4208330000000 1.0
C      1  0.4825050000000  0.4762710000000  0.5270740000000 1.0
C      1  0.3986170000000  0.5096750000000  0.5261030000000 1.0
C      1  0.5735550000000  0.4875560000000  0.5312680000000 1.0
C      1  0.5774210000000  0.5496040000000  0.5258010000000 1.0
C      1  0.5718860000000  0.5465260000000  0.4762530000000 1.0
C      1  0.4766700000000  0.4475860000000  0.5230690000000 1.0
C      1  0.5706980000000  0.4418790000000  0.5576440000000 1.0
C      1  0.5084480000000  0.5716210000000  0.4542140000000 1.0
C      1  0.5295640000000  0.5225960000000  0.5804800000000 1.0
C      1  0.5536160000000  0.5101050000000  0.4398830000000 1.0
C      1  0.5229830000000  0.4941160000000  0.5868940000000 1.0
END
