TITL C-950530-3293-303 -6.12583109445753e-07 125000 -592.571060970908 0 0 96 (C1) n - 1
REM
REM in /home/bkarasulu/work/CARBON/AIRSS/Generating-Clusters/EDIP-Nigel-Params/with-SteepDescent/Only-C1/SD-CG/HFTN-CG
REM
REM
REM
REM
REM
REM ./C.cell (11c1c37f851c82e70ff6c80c92926a4b)
REM
REM compiler GCC version 9.2.1 20190827 (Red Hat 9.2.1-1)
REM options -cpp -mtune=generic -march=x86-64 -g -O0 -fpre-include=/usr/include/finclude/math-vector-fortran.h
REM seed 1081998999 -603916816 1535952673 -1223363219 -1791687399 -805624557 24228296 1769376123 -381742254 -1224593687 -570343804 940142277 1626802250 1927255895 -456112609 1582025451 1257887079 208918639 291354739 -1141572544 89795260 1337962690 921970467 -1663508169 88646825 -851334858 -1476499861 1694023406 -737075793 369579338 1475895894 171046178 1513329789
REM
CELL 1.54180   50.00000   50.00000   50.00000   90.00000   90.00000   90.00000
LATT -1
SFAC C  
C      1  0.5635830000000  0.4378330000000  0.4636210000000 1.0
C      1  0.5318580000000  0.5131720000000  0.5763120000000 1.0
C      1  0.4531850000000  0.5079700000000  0.5545460000000 1.0
C      1  0.5785210000000  0.5407930000000  0.5057260000000 1.0
C      1  0.5106900000000  0.5247230000000  0.4305000000000 1.0
C      1  0.5314500000000  0.5588120000000  0.5592230000000 1.0
C      1  0.4820920000000  0.4847820000000  0.5270960000000 1.0
C      1  0.5749540000000  0.5071230000000  0.5401380000000 1.0
C      1  0.5176820000000  0.4378670000000  0.4340800000000 1.0
C      1  0.4201670000000  0.4737310000000  0.4616350000000 1.0
C      1  0.4868480000000  0.4782210000000  0.4141410000000 1.0
C      1  0.4914040000000  0.5345870000000  0.5724880000000 1.0
C      1  0.4970750000000  0.5256560000000  0.4859220000000 1.0
C      1  0.4654310000000  0.4388150000000  0.5098540000000 1.0
C      1  0.4856190000000  0.5756660000000  0.5549230000000 1.0
C      1  0.4045730000000  0.5062580000000  0.5078330000000 1.0
C      1  0.5708250000000  0.5370310000000  0.5347400000000 1.0
C      1  0.5371550000000  0.5333250000000  0.4413100000000 1.0
C      1  0.5750000000000  0.4698920000000  0.4449510000000 1.0
C      1  0.5529680000000  0.4905230000000  0.5523970000000 1.0
C      1  0.5374960000000  0.5104790000000  0.4986020000000 1.0
C      1  0.5149020000000  0.4151870000000  0.4782500000000 1.0
C      1  0.5208230000000  0.5145970000000  0.4719780000000 1.0
C      1  0.5785910000000  0.5082690000000  0.4671320000000 1.0
C      1  0.4890500000000  0.4522130000000  0.4946610000000 1.0
C      1  0.5166510000000  0.4399780000000  0.4945770000000 1.0
C      1  0.5061750000000  0.5646080000000  0.4576880000000 1.0
C      1  0.4564180000000  0.5118860000000  0.4358990000000 1.0
C      1  0.4426610000000  0.4630610000000  0.4445120000000 1.0
C      1  0.5351200000000  0.5587870000000  0.4555690000000 1.0
C      1  0.4596850000000  0.5602700000000  0.5540320000000 1.0
C      1  0.5327020000000  0.4638290000000  0.4800360000000 1.0
C      1  0.5455020000000  0.4442300000000  0.4424810000000 1.0
C      1  0.5256530000000  0.5050200000000  0.5480480000000 1.0
C      1  0.4354310000000  0.5355000000000  0.5208940000000 1.0
C      1  0.4528500000000  0.4592570000000  0.5289120000000 1.0
C      1  0.4916360000000  0.4864540000000  0.5862520000000 1.0
C      1  0.4626070000000  0.5726430000000  0.4824840000000 1.0
C      1  0.4230940000000  0.4654170000000  0.5230830000000 1.0
C      1  0.5035620000000  0.4850240000000  0.5495120000000 1.0
C      1  0.5819700000000  0.4935570000000  0.5145830000000 1.0
C      1  0.4923380000000  0.5777780000000  0.4799890000000 1.0
C      1  0.5006940000000  0.5874650000000  0.5217680000000 1.0
C      1  0.4959050000000  0.4801290000000  0.5020650000000 1.0
C      1  0.5168960000000  0.4850640000000  0.4589780000000 1.0
C      1  0.5929350000000  0.4843090000000  0.4624320000000 1.0
C      1  0.5249160000000  0.5260380000000  0.5236870000000 1.0
C      1  0.5524300000000  0.4635890000000  0.5375930000000 1.0
C      1  0.4921740000000  0.5444350000000  0.4416690000000 1.0
C      1  0.5645130000000  0.5649480000000  0.4953280000000 1.0
C      1  0.5080360000000  0.4083250000000  0.5156760000000 1.0
C      1  0.5698480000000  0.5134070000000  0.4951380000000 1.0
C      1  0.4853160000000  0.4362180000000  0.5529390000000 1.0
C      1  0.4635700000000  0.5087850000000  0.5244940000000 1.0
C      1  0.4870350000000  0.4781600000000  0.4585540000000 1.0
C      1  0.4419230000000  0.4984760000000  0.5018200000000 1.0
C      1  0.5048590000000  0.5136090000000  0.5864940000000 1.0
C      1  0.5353590000000  0.4401870000000  0.5451300000000 1.0
C      1  0.4628940000000  0.5339770000000  0.5673400000000 1.0
C      1  0.4193980000000  0.5028550000000  0.4586270000000 1.0
C      1  0.4668380000000  0.4836980000000  0.4366990000000 1.0
C      1  0.4546580000000  0.4415140000000  0.4611470000000 1.0
C      1  0.4852090000000  0.5622550000000  0.5183290000000 1.0
C      1  0.5010160000000  0.4272160000000  0.4553320000000 1.0
C      1  0.5583390000000  0.4896070000000  0.4308020000000 1.0
C      1  0.5314560000000  0.4177380000000  0.5290650000000 1.0
C      1  0.4493690000000  0.5508480000000  0.4676200000000 1.0
C      1  0.4649320000000  0.5372640000000  0.4468170000000 1.0
C      1  0.4142610000000  0.5327430000000  0.5023670000000 1.0
C      1  0.4428760000000  0.5614590000000  0.5296010000000 1.0
C      1  0.5577870000000  0.5685930000000  0.4684650000000 1.0
C      1  0.4514060000000  0.5792780000000  0.5083340000000 1.0
C      1  0.4107230000000  0.4910570000000  0.5320100000000 1.0
C      1  0.4246240000000  0.5045800000000  0.5527580000000 1.0
C      1  0.5695700000000  0.4548770000000  0.4862830000000 1.0
C      1  0.4658770000000  0.4834500000000  0.5694960000000 1.0
C      1  0.4433270000000  0.4393460000000  0.4880240000000 1.0
C      1  0.4220480000000  0.5383210000000  0.4739270000000 1.0
C      1  0.5095940000000  0.4977970000000  0.4174200000000 1.0
C      1  0.5576490000000  0.5121820000000  0.4476690000000 1.0
C      1  0.5123500000000  0.4655970000000  0.5818340000000 1.0
C      1  0.5052500000000  0.5595930000000  0.5691740000000 1.0
C      1  0.5423360000000  0.5492690000000  0.5340620000000 1.0
C      1  0.5256270000000  0.4829690000000  0.5019790000000 1.0
C      1  0.4823900000000  0.4195000000000  0.5277630000000 1.0
C      1  0.5322970000000  0.4815860000000  0.4239090000000 1.0
C      1  0.4454980000000  0.5076720000000  0.4728530000000 1.0
C      1  0.5005640000000  0.4528630000000  0.4162120000000 1.0
C      1  0.4633410000000  0.4567810000000  0.5560280000000 1.0
C      1  0.4827200000000  0.4493990000000  0.4656030000000 1.0
C      1  0.5214090000000  0.5863940000000  0.5033760000000 1.0
C      1  0.5121280000000  0.4442950000000  0.5626800000000 1.0
C      1  0.4263430000000  0.4639320000000  0.4915540000000 1.0
C      1  0.5707320000000  0.4661250000000  0.5138790000000 1.0
C      1  0.5433670000000  0.5710250000000  0.5135110000000 1.0
C      1  0.4973890000000  0.5343760000000  0.5130790000000 1.0
END
