TITL C-951333-8791-137 -4.26074747547672e-06 125000 -1251.28950481934 0 0 197 (C1) n - 1
REM
REM in /home/bkarasulu/work/CARBON/AIRSS/Generating-Clusters/EDIP-Nigel-Params/with-SteepDescent/Only-C1/SD-CG/HFTN-CG
REM
REM
REM
REM
REM
REM ./C.cell (11c1c37f851c82e70ff6c80c92926a4b)
REM
REM compiler GCC version 9.2.1 20190827 (Red Hat 9.2.1-1)
REM options -cpp -mtune=generic -march=x86-64 -g -O0 -fpre-include=/usr/include/finclude/math-vector-fortran.h
REM seed -1688261725 -1200307737 543940368 -1252377824 -728774641 1751214772 -723659538 -1179737391 1243853036 1877996347 -1962268059 -2082364206 -641659274 120552360 -1840541555 -576636362 -1164169982 -230371783 -1300593451 -1420646597 -1008686188 -292575593 -1874539732 2010916965 -820439101 1542642096 1147777081 575256087 1415445547 -2027533637 1264596161 1671000474 -495501647
REM
CELL 1.54180   50.00000   50.00000   50.00000   90.00000   90.00000   90.00000
LATT -1
SFAC C  
C      1  0.4309360000000  0.5190470000000  0.4273290000000 1.0
C      1  0.4777600000000  0.5556300000000  0.3956930000000 1.0
C      1  0.5444850000000  0.5235530000000  0.4283410000000 1.0
C      1  0.5413350000000  0.5057970000000  0.4916020000000 1.0
C      1  0.6012080000000  0.4408710000000  0.4846750000000 1.0
C      1  0.5773790000000  0.5385520000000  0.5277130000000 1.0
C      1  0.5167310000000  0.4989820000000  0.5490700000000 1.0
C      1  0.5312590000000  0.5260140000000  0.5472950000000 1.0
C      1  0.5814940000000  0.4781830000000  0.5097290000000 1.0
C      1  0.5525080000000  0.4419560000000  0.4900070000000 1.0
C      1  0.3802160000000  0.4750420000000  0.4764600000000 1.0
C      1  0.5101480000000  0.6164740000000  0.5353260000000 1.0
C      1  0.4364280000000  0.4946380000000  0.5256680000000 1.0
C      1  0.4813740000000  0.4843230000000  0.3849880000000 1.0
C      1  0.4821820000000  0.6096040000000  0.5444410000000 1.0
C      1  0.4496990000000  0.6110530000000  0.4734450000000 1.0
C      1  0.5140250000000  0.4810870000000  0.6177820000000 1.0
C      1  0.5008880000000  0.4789500000000  0.4797060000000 1.0
C      1  0.5498890000000  0.5649280000000  0.4138090000000 1.0
C      1  0.4624830000000  0.5217390000000  0.4952470000000 1.0
C      1  0.5683290000000  0.4533070000000  0.5766700000000 1.0
C      1  0.5326960000000  0.5520050000000  0.4668520000000 1.0
C      1  0.5480280000000  0.3914700000000  0.4836780000000 1.0
C      1  0.4437480000000  0.4962960000000  0.4130630000000 1.0
C      1  0.5764190000000  0.4564760000000  0.4899320000000 1.0
C      1  0.4927420000000  0.3890320000000  0.4714830000000 1.0
C      1  0.5867930000000  0.5301190000000  0.4165130000000 1.0
C      1  0.4076600000000  0.5081890000000  0.4418880000000 1.0
C      1  0.4136290000000  0.5165710000000  0.5289640000000 1.0
C      1  0.5745400000000  0.5428890000000  0.4943610000000 1.0
C      1  0.4702020000000  0.4336550000000  0.4153390000000 1.0
C      1  0.5335700000000  0.4500970000000  0.5465910000000 1.0
C      1  0.5417420000000  0.4787930000000  0.5450200000000 1.0
C      1  0.4959280000000  0.5556970000000  0.6112100000000 1.0
C      1  0.4517560000000  0.4160310000000  0.4676610000000 1.0
C      1  0.5774950000000  0.5128450000000  0.4797270000000 1.0
C      1  0.4669230000000  0.6190180000000  0.4943030000000 1.0
C      1  0.5309800000000  0.5280610000000  0.3919310000000 1.0
C      1  0.5454890000000  0.5493720000000  0.4926350000000 1.0
C      1  0.4294680000000  0.5823060000000  0.5505310000000 1.0
C      1  0.5587090000000  0.5256490000000  0.5750830000000 1.0
C      1  0.6004040000000  0.4595930000000  0.4331880000000 1.0
C      1  0.3922720000000  0.4793590000000  0.5416270000000 1.0
C      1  0.4363010000000  0.5162480000000  0.5883320000000 1.0
C      1  0.4602310000000  0.6108520000000  0.5223960000000 1.0
C      1  0.4965650000000  0.3994390000000  0.5455360000000 1.0
C      1  0.4620760000000  0.5040800000000  0.3919260000000 1.0
C      1  0.6150190000000  0.5116640000000  0.5137300000000 1.0
C      1  0.4014600000000  0.5628130000000  0.5177180000000 1.0
C      1  0.5632960000000  0.6020060000000  0.5119990000000 1.0
C      1  0.5807640000000  0.4987550000000  0.4528680000000 1.0
C      1  0.5228420000000  0.4136090000000  0.4261700000000 1.0
C      1  0.5679690000000  0.5634500000000  0.5451890000000 1.0
C      1  0.4868480000000  0.5830990000000  0.5603120000000 1.0
C      1  0.4581690000000  0.3915290000000  0.5070770000000 1.0
C      1  0.5556950000000  0.5539020000000  0.5707030000000 1.0
C      1  0.3905470000000  0.5007450000000  0.5175230000000 1.0
C      1  0.4903910000000  0.4929010000000  0.4558590000000 1.0
C      1  0.3999930000000  0.4278640000000  0.4888350000000 1.0
C      1  0.4815180000000  0.5013920000000  0.5641480000000 1.0
C      1  0.4504290000000  0.4106560000000  0.5285140000000 1.0
C      1  0.6143420000000  0.4743240000000  0.4771270000000 1.0
C      1  0.4836560000000  0.5816900000000  0.5114020000000 1.0
C      1  0.5063090000000  0.4410110000000  0.5382130000000 1.0
C      1  0.4289770000000  0.4886150000000  0.5781710000000 1.0
C      1  0.4195770000000  0.5409530000000  0.5134110000000 1.0
C      1  0.5573190000000  0.5768530000000  0.4400860000000 1.0
C      1  0.4109600000000  0.4794490000000  0.4392900000000 1.0
C      1  0.5551210000000  0.4928010000000  0.5176790000000 1.0
C      1  0.5273790000000  0.5587900000000  0.5754060000000 1.0
C      1  0.5140130000000  0.5416490000000  0.5948910000000 1.0
C      1  0.5994530000000  0.5179250000000  0.5365380000000 1.0
C      1  0.4712020000000  0.5197870000000  0.5426160000000 1.0
C      1  0.4498030000000  0.5461040000000  0.5089350000000 1.0
C      1  0.4980570000000  0.4351980000000  0.6088140000000 1.0
C      1  0.4097530000000  0.4553260000000  0.5380800000000 1.0
C      1  0.4913420000000  0.4223000000000  0.5855280000000 1.0
C      1  0.4248450000000  0.5373490000000  0.5727180000000 1.0
C      1  0.4611900000000  0.4477160000000  0.4884140000000 1.0
C      1  0.5042200000000  0.5127120000000  0.5881300000000 1.0
C      1  0.4046420000000  0.5187760000000  0.4693690000000 1.0
C      1  0.4585400000000  0.4550760000000  0.5472770000000 1.0
C      1  0.4494820000000  0.5755670000000  0.4407150000000 1.0
C      1  0.4642410000000  0.5698740000000  0.5786260000000 1.0
C      1  0.5625450000000  0.4045170000000  0.5295180000000 1.0
C      1  0.4691170000000  0.5310010000000  0.3893760000000 1.0
C      1  0.4959410000000  0.4424910000000  0.4546250000000 1.0
C      1  0.4668730000000  0.4741080000000  0.6057840000000 1.0
C      1  0.4382740000000  0.3976240000000  0.4870030000000 1.0
C      1  0.5659910000000  0.5434170000000  0.4009570000000 1.0
C      1  0.4995260000000  0.5902020000000  0.4233490000000 1.0
C      1  0.4640310000000  0.5683730000000  0.4936450000000 1.0
C      1  0.4687850000000  0.4066640000000  0.5504730000000 1.0
C      1  0.5005210000000  0.5196130000000  0.4570330000000 1.0
C      1  0.5155610000000  0.5843730000000  0.5699390000000 1.0
C      1  0.4261580000000  0.4779430000000  0.4997190000000 1.0
C      1  0.5099970000000  0.4140610000000  0.5654960000000 1.0
C      1  0.4147050000000  0.4075840000000  0.5021770000000 1.0
C      1  0.5080810000000  0.3943940000000  0.5193480000000 1.0
C      1  0.5293880000000  0.4795190000000  0.4838650000000 1.0
C      1  0.4815430000000  0.4464690000000  0.3920150000000 1.0
C      1  0.4311470000000  0.4702090000000  0.4201950000000 1.0
C      1  0.5083990000000  0.5714390000000  0.4693280000000 1.0
C      1  0.4362670000000  0.5896070000000  0.4610250000000 1.0
C      1  0.4645630000000  0.5043590000000  0.5188450000000 1.0
C      1  0.4621550000000  0.5225290000000  0.5976320000000 1.0
C      1  0.4326760000000  0.4293550000000  0.4494430000000 1.0
C      1  0.5782390000000  0.3957960000000  0.4842770000000 1.0
C      1  0.5145070000000  0.5451490000000  0.5279950000000 1.0
C      1  0.5548290000000  0.4566540000000  0.4151520000000 1.0
C      1  0.5887390000000  0.5673080000000  0.4810500000000 1.0
C      1  0.3992020000000  0.4933500000000  0.4889930000000 1.0
C      1  0.4645560000000  0.4213730000000  0.5747450000000 1.0
C      1  0.4341640000000  0.5952920000000  0.5262770000000 1.0
C      1  0.5729230000000  0.4199190000000  0.4428750000000 1.0
C      1  0.5764010000000  0.4456960000000  0.4303020000000 1.0
C      1  0.4607070000000  0.4945090000000  0.4607710000000 1.0
C      1  0.5413110000000  0.6004330000000  0.4479030000000 1.0
C      1  0.4448000000000  0.4445720000000  0.4272390000000 1.0
C      1  0.4487190000000  0.4742480000000  0.4801180000000 1.0
C      1  0.4000200000000  0.4939540000000  0.5668630000000 1.0
C      1  0.4866380000000  0.3897040000000  0.4995620000000 1.0
C      1  0.5310680000000  0.5654920000000  0.5128300000000 1.0
C      1  0.4086310000000  0.5475760000000  0.4714970000000 1.0
C      1  0.5319940000000  0.4976130000000  0.3954740000000 1.0
C      1  0.5290260000000  0.5257400000000  0.4542670000000 1.0
C      1  0.4209480000000  0.4499870000000  0.5118070000000 1.0
C      1  0.3955470000000  0.4627220000000  0.4565310000000 1.0
C      1  0.4222850000000  0.5720170000000  0.4794560000000 1.0
C      1  0.5115260000000  0.5961670000000  0.4490520000000 1.0
C      1  0.4863250000000  0.4635370000000  0.5430170000000 1.0
C      1  0.5988970000000  0.4700520000000  0.5325580000000 1.0
C      1  0.5003130000000  0.6202370000000  0.4604450000000 1.0
C      1  0.5095860000000  0.4963630000000  0.5196250000000 1.0
C      1  0.4156370000000  0.5841600000000  0.5056240000000 1.0
C      1  0.5302830000000  0.5996840000000  0.5495000000000 1.0
C      1  0.4846680000000  0.4820610000000  0.5202350000000 1.0
C      1  0.5830940000000  0.5906400000000  0.4957690000000 1.0
C      1  0.4906360000000  0.4510930000000  0.4832120000000 1.0
C      1  0.5865310000000  0.4018670000000  0.5119660000000 1.0
C      1  0.5956590000000  0.5481420000000  0.4362220000000 1.0
C      1  0.5845710000000  0.5695070000000  0.4509330000000 1.0
C      1  0.5106680000000  0.4524490000000  0.3938590000000 1.0
C      1  0.5066580000000  0.4818790000000  0.4012690000000 1.0
C      1  0.4406860000000  0.4649450000000  0.5942380000000 1.0
C      1  0.5175720000000  0.4156260000000  0.4819940000000 1.0
C      1  0.5451150000000  0.4090260000000  0.4486710000000 1.0
C      1  0.4709440000000  0.5506910000000  0.5998320000000 1.0
C      1  0.5697660000000  0.5073050000000  0.4267280000000 1.0
C      1  0.5447260000000  0.6187150000000  0.4966540000000 1.0
C      1  0.5382160000000  0.3945180000000  0.5131200000000 1.0
C      1  0.4943340000000  0.6258450000000  0.4871560000000 1.0
C      1  0.5115870000000  0.5238240000000  0.5045630000000 1.0
C      1  0.5019290000000  0.4800290000000  0.4313980000000 1.0
C      1  0.5235690000000  0.5543790000000  0.4060420000000 1.0
C      1  0.4999200000000  0.5699200000000  0.4043340000000 1.0
C      1  0.5329190000000  0.4573960000000  0.5028500000000 1.0
C      1  0.6049010000000  0.4257390000000  0.5125290000000 1.0
C      1  0.4914850000000  0.4611680000000  0.6156340000000 1.0
C      1  0.5274390000000  0.4430710000000  0.4172550000000 1.0
C      1  0.5370060000000  0.4330810000000  0.4652240000000 1.0
C      1  0.5174710000000  0.4574980000000  0.4420600000000 1.0
C      1  0.5555450000000  0.5194680000000  0.5312180000000 1.0
C      1  0.5538460000000  0.4995160000000  0.5870200000000 1.0
C      1  0.5491080000000  0.5834290000000  0.5310390000000 1.0
C      1  0.4712280000000  0.5014780000000  0.6146390000000 1.0
C      1  0.5166310000000  0.6232410000000  0.5068790000000 1.0
C      1  0.5495990000000  0.6167120000000  0.4690690000000 1.0
C      1  0.5438330000000  0.4402430000000  0.5716480000000 1.0
C      1  0.4081550000000  0.4380990000000  0.4633470000000 1.0
C      1  0.4978200000000  0.5043110000000  0.6247440000000 1.0
C      1  0.4158970000000  0.4326230000000  0.5562590000000 1.0
C      1  0.6036010000000  0.4808500000000  0.4509900000000 1.0
C      1  0.5255840000000  0.4911490000000  0.5917290000000 1.0
C      1  0.4216690000000  0.4089560000000  0.5377050000000 1.0
C      1  0.5993840000000  0.4961690000000  0.4946690000000 1.0
C      1  0.4810500000000  0.5570040000000  0.4717040000000 1.0
C      1  0.4049840000000  0.5223160000000  0.5571750000000 1.0
C      1  0.4871420000000  0.5635670000000  0.5358520000000 1.0
C      1  0.5105020000000  0.5807790000000  0.4974820000000 1.0
C      1  0.4485580000000  0.4838170000000  0.5546240000000 1.0
C      1  0.5654630000000  0.4811620000000  0.5663800000000 1.0
C      1  0.5716490000000  0.4281320000000  0.5480490000000 1.0
C      1  0.4502080000000  0.4408290000000  0.5189040000000 1.0
C      1  0.5976590000000  0.4404010000000  0.5378610000000 1.0
C      1  0.5098210000000  0.4380900000000  0.5042530000000 1.0
C      1  0.5924960000000  0.4912980000000  0.5525670000000 1.0
C      1  0.4434180000000  0.5590760000000  0.5601840000000 1.0
C      1  0.4641030000000  0.5524960000000  0.4472560000000 1.0
C      1  0.4619430000000  0.5470770000000  0.5375690000000 1.0
C      1  0.4397230000000  0.4388890000000  0.5769910000000 1.0
C      1  0.5563650000000  0.4858590000000  0.4083720000000 1.0
C      1  0.4902620000000  0.4204700000000  0.4353460000000 1.0
C      1  0.4749120000000  0.4022250000000  0.4534370000000 1.0
C      1  0.5909690000000  0.4160010000000  0.4660500000000 1.0
C      1  0.4493030000000  0.5269580000000  0.4490460000000 1.0
C      1  0.4889510000000  0.5296380000000  0.4827530000000 1.0
END
