TITL C-950536-5891-509 -3.70940676597071e-06 125000 -555.42018155495 0 0 90 (C1) n - 1
REM
REM in /home/bkarasulu/work/CARBON/AIRSS/Generating-Clusters/EDIP-Nigel-Params/with-SteepDescent/Only-C1/SD-CG/HFTN-CG
REM
REM
REM
REM
REM
REM ./C.cell (11c1c37f851c82e70ff6c80c92926a4b)
REM
REM compiler GCC version 9.2.1 20190827 (Red Hat 9.2.1-1)
REM options -cpp -mtune=generic -march=x86-64 -g -O0 -fpre-include=/usr/include/finclude/math-vector-fortran.h
REM seed -1535858503 -1238615312 -247876950 931862406 -1911742138 1878774006 -1195573585 -1677901726 -880182801 -1573278837 874964487 689957656 -191444695 -729057431 -952092928 -544734612 -644284240 -738951062 20098412 -2043973997 -1539449228 -563795150 301407024 -395554670 -1773475161 -933493541 -930952934 -777680709 594910461 1338826097 24537882 1772697938 455777266
REM
CELL 1.54180   50.00000   50.00000   50.00000   90.00000   90.00000   90.00000
LATT -1
SFAC C  
C      1  0.5505790000000  0.5839370000000  0.5160990000000 1.0
C      1  0.4567050000000  0.4446550000000  0.5510910000000 1.0
C      1  0.5332300000000  0.4395160000000  0.4752640000000 1.0
C      1  0.5557550000000  0.5320230000000  0.4261160000000 1.0
C      1  0.5121490000000  0.5352920000000  0.5674030000000 1.0
C      1  0.5478500000000  0.4999290000000  0.5693100000000 1.0
C      1  0.5298430000000  0.4551900000000  0.5562240000000 1.0
C      1  0.4970050000000  0.4652390000000  0.5278500000000 1.0
C      1  0.4861470000000  0.4938570000000  0.5356150000000 1.0
C      1  0.4584590000000  0.5036800000000  0.4364530000000 1.0
C      1  0.4369700000000  0.5467640000000  0.5106100000000 1.0
C      1  0.5184590000000  0.4203520000000  0.5189500000000 1.0
C      1  0.4474860000000  0.4748490000000  0.5130190000000 1.0
C      1  0.5170860000000  0.5059900000000  0.4659490000000 1.0
C      1  0.5680880000000  0.4761800000000  0.5315450000000 1.0
C      1  0.4700730000000  0.4954350000000  0.4688880000000 1.0
C      1  0.5586220000000  0.5456420000000  0.5604360000000 1.0
C      1  0.4522240000000  0.5311740000000  0.5311610000000 1.0
C      1  0.4990570000000  0.4852630000000  0.4239120000000 1.0
C      1  0.4614430000000  0.5392260000000  0.4728790000000 1.0
C      1  0.5739930000000  0.4730350000000  0.4712000000000 1.0
C      1  0.5590160000000  0.4517300000000  0.4864740000000 1.0
C      1  0.5525340000000  0.4734050000000  0.5573080000000 1.0
C      1  0.5329380000000  0.5559290000000  0.5614790000000 1.0
C      1  0.4668140000000  0.4730210000000  0.4889810000000 1.0
C      1  0.5596100000000  0.5053750000000  0.4329330000000 1.0
C      1  0.4671410000000  0.5082790000000  0.5157020000000 1.0
C      1  0.5091350000000  0.5140990000000  0.5348080000000 1.0
C      1  0.4232840000000  0.5253590000000  0.4960740000000 1.0
C      1  0.5792610000000  0.5205110000000  0.5058020000000 1.0
C      1  0.5118390000000  0.5758950000000  0.4686250000000 1.0
C      1  0.5154170000000  0.4220000000000  0.4899000000000 1.0
C      1  0.5571730000000  0.5507870000000  0.4770040000000 1.0
C      1  0.4943120000000  0.4511300000000  0.4428390000000 1.0
C      1  0.4836860000000  0.5441350000000  0.5698610000000 1.0
C      1  0.4790360000000  0.5177350000000  0.4881680000000 1.0
C      1  0.4465410000000  0.4805260000000  0.4255310000000 1.0
C      1  0.4749600000000  0.5504490000000  0.5418420000000 1.0
C      1  0.5342900000000  0.4832530000000  0.4722720000000 1.0
C      1  0.4860990000000  0.4227500000000  0.4845300000000 1.0
C      1  0.4785810000000  0.5720590000000  0.5091780000000 1.0
C      1  0.4462640000000  0.4233560000000  0.5136800000000 1.0
C      1  0.4113590000000  0.4812430000000  0.4892040000000 1.0
C      1  0.4907450000000  0.4163820000000  0.5304480000000 1.0
C      1  0.5010390000000  0.5443820000000  0.5255190000000 1.0
C      1  0.5088380000000  0.4608340000000  0.5746090000000 1.0
C      1  0.5275140000000  0.5046650000000  0.5119250000000 1.0
C      1  0.4815010000000  0.5106830000000  0.4198640000000 1.0
C      1  0.4995340000000  0.4874600000000  0.5771090000000 1.0
C      1  0.5233830000000  0.4474630000000  0.4492290000000 1.0
C      1  0.5617280000000  0.5190050000000  0.5522440000000 1.0
C      1  0.4924770000000  0.4591230000000  0.4965580000000 1.0
C      1  0.4713280000000  0.4973640000000  0.5765200000000 1.0
C      1  0.5363930000000  0.5510590000000  0.4317480000000 1.0
C      1  0.5058610000000  0.5780490000000  0.4971790000000 1.0
C      1  0.4916770000000  0.5355410000000  0.4302960000000 1.0
C      1  0.5348050000000  0.5592260000000  0.4595670000000 1.0
C      1  0.4521620000000  0.4885140000000  0.5548680000000 1.0
C      1  0.5341220000000  0.4426430000000  0.5301680000000 1.0
C      1  0.5717970000000  0.5002800000000  0.4596100000000 1.0
C      1  0.4738630000000  0.4392050000000  0.4615200000000 1.0
C      1  0.4259000000000  0.4921930000000  0.4664120000000 1.0
C      1  0.4711020000000  0.4119300000000  0.5081520000000 1.0
C      1  0.5404920000000  0.4672340000000  0.4380670000000 1.0
C      1  0.5582730000000  0.4524560000000  0.5164190000000 1.0
C      1  0.4444160000000  0.4465120000000  0.4618650000000 1.0
C      1  0.4321860000000  0.4474000000000  0.5138410000000 1.0
C      1  0.5247080000000  0.5940550000000  0.5117410000000 1.0
C      1  0.4343670000000  0.5217990000000  0.4687300000000 1.0
C      1  0.5831820000000  0.5468900000000  0.5160550000000 1.0
C      1  0.5604310000000  0.5057230000000  0.5243110000000 1.0
C      1  0.4882410000000  0.5743280000000  0.4536920000000 1.0
C      1  0.4837140000000  0.4420010000000  0.5437780000000 1.0
C      1  0.5291610000000  0.4869330000000  0.4202660000000 1.0
C      1  0.5235540000000  0.5632110000000  0.5348830000000 1.0
C      1  0.4326810000000  0.4699360000000  0.4475600000000 1.0
C      1  0.5125190000000  0.5490950000000  0.4172750000000 1.0
C      1  0.5689950000000  0.5232010000000  0.4784250000000 1.0
C      1  0.4561590000000  0.5607890000000  0.4932240000000 1.0
C      1  0.4686640000000  0.5245370000000  0.5821730000000 1.0
C      1  0.4190680000000  0.4528230000000  0.4886830000000 1.0
C      1  0.4334400000000  0.5095390000000  0.5439610000000 1.0
C      1  0.4954950000000  0.4883060000000  0.4552080000000 1.0
C      1  0.5237140000000  0.4738000000000  0.5013820000000 1.0
C      1  0.5202290000000  0.5079200000000  0.5768740000000 1.0
C      1  0.4395870000000  0.4632770000000  0.5604070000000 1.0
C      1  0.4229360000000  0.4997860000000  0.5138980000000 1.0
C      1  0.4747270000000  0.5507890000000  0.4480740000000 1.0
C      1  0.5627200000000  0.5615430000000  0.5033290000000 1.0
C      1  0.5100610000000  0.5198600000000  0.4901690000000 1.0
END
