TITL C-950523-3027-329 -1.72481987954314e-06 125000 -1189.7424899357 0 0 190 (C1) n - 1
REM
REM in /home/bkarasulu/work/CARBON/AIRSS/Generating-Clusters/EDIP-Nigel-Params/with-SteepDescent/Only-C1/SD-CG/HFTN-CG
REM
REM
REM
REM
REM
REM ./C.cell (11c1c37f851c82e70ff6c80c92926a4b)
REM
REM compiler GCC version 9.2.1 20190827 (Red Hat 9.2.1-1)
REM options -cpp -mtune=generic -march=x86-64 -g -O0 -fpre-include=/usr/include/finclude/math-vector-fortran.h
REM seed 28734658 824188058 -1184974681 -1269113954 -897719662 -240141988 1797969372 2083082595 -323130707 1972720290 -218516088 -499568243 1891557472 -1287922331 1864329906 1577545297 -838382888 -1440495252 1996066437 -555808114 10049439 -1133841376 -1639187733 -1882419369 -1589055249 -1460970592 -1973581038 919466018 871714935 -1372412913 278375160 920745188 1392981915
REM
CELL 1.54180   50.00000   50.00000   50.00000   90.00000   90.00000   90.00000
LATT -1
SFAC C  
C      1  0.4996670000000  0.6022540000000  0.5828600000000 1.0
C      1  0.4944000000000  0.4027820000000  0.4525500000000 1.0
C      1  0.5402460000000  0.5950880000000  0.5246840000000 1.0
C      1  0.6067080000000  0.5247540000000  0.5267720000000 1.0
C      1  0.5179250000000  0.5348250000000  0.4457480000000 1.0
C      1  0.5033460000000  0.4950890000000  0.4010440000000 1.0
C      1  0.4766560000000  0.4580590000000  0.5547760000000 1.0
C      1  0.5048050000000  0.4884460000000  0.5389720000000 1.0
C      1  0.4942100000000  0.6020630000000  0.5568890000000 1.0
C      1  0.5924180000000  0.5283540000000  0.4415580000000 1.0
C      1  0.4431170000000  0.5025430000000  0.4596780000000 1.0
C      1  0.4640390000000  0.5491060000000  0.4013700000000 1.0
C      1  0.5737420000000  0.4305750000000  0.5533900000000 1.0
C      1  0.4490790000000  0.5825780000000  0.4379060000000 1.0
C      1  0.4829950000000  0.6089940000000  0.4635420000000 1.0
C      1  0.3990670000000  0.5334730000000  0.5309260000000 1.0
C      1  0.4945980000000  0.4861820000000  0.4883670000000 1.0
C      1  0.4622470000000  0.4335730000000  0.4100840000000 1.0
C      1  0.4098450000000  0.5631490000000  0.4476550000000 1.0
C      1  0.5955010000000  0.5021590000000  0.4527570000000 1.0
C      1  0.5628110000000  0.5036000000000  0.5791040000000 1.0
C      1  0.4424640000000  0.4899070000000  0.4871940000000 1.0
C      1  0.5409280000000  0.5074330000000  0.3806270000000 1.0
C      1  0.5123890000000  0.5764610000000  0.5182340000000 1.0
C      1  0.5286320000000  0.4498500000000  0.4299320000000 1.0
C      1  0.5234270000000  0.4540940000000  0.4802880000000 1.0
C      1  0.4566450000000  0.4054950000000  0.4808850000000 1.0
C      1  0.5497490000000  0.4134870000000  0.5632550000000 1.0
C      1  0.5708350000000  0.4257870000000  0.5246160000000 1.0
C      1  0.5630720000000  0.4743030000000  0.5817270000000 1.0
C      1  0.4753560000000  0.5948960000000  0.4402390000000 1.0
C      1  0.3966750000000  0.4324640000000  0.4898470000000 1.0
C      1  0.3954200000000  0.5476240000000  0.4678980000000 1.0
C      1  0.6081090000000  0.4538840000000  0.4686240000000 1.0
C      1  0.4666790000000  0.5214760000000  0.4017860000000 1.0
C      1  0.5255030000000  0.4698700000000  0.4547900000000 1.0
C      1  0.4671410000000  0.4705070000000  0.4909900000000 1.0
C      1  0.5380340000000  0.4146360000000  0.4902010000000 1.0
C      1  0.5867930000000  0.5141680000000  0.5056170000000 1.0
C      1  0.4095690000000  0.4835880000000  0.4332940000000 1.0
C      1  0.5269610000000  0.4402360000000  0.5984420000000 1.0
C      1  0.5389910000000  0.3808170000000  0.4586510000000 1.0
C      1  0.5693160000000  0.4654170000000  0.4813020000000 1.0
C      1  0.4408950000000  0.4592540000000  0.5245260000000 1.0
C      1  0.5417210000000  0.5534740000000  0.4529710000000 1.0
C      1  0.5001790000000  0.4478610000000  0.6078260000000 1.0
C      1  0.4741580000000  0.5052480000000  0.5726180000000 1.0
C      1  0.4500470000000  0.4216850000000  0.4562190000000 1.0
C      1  0.5339700000000  0.5458490000000  0.5856570000000 1.0
C      1  0.5180130000000  0.5000390000000  0.5842810000000 1.0
C      1  0.4445540000000  0.5776020000000  0.4896010000000 1.0
C      1  0.4140680000000  0.5401870000000  0.4881410000000 1.0
C      1  0.5255450000000  0.5790530000000  0.4625000000000 1.0
C      1  0.5100920000000  0.5559510000000  0.6004780000000 1.0
C      1  0.4752250000000  0.4179860000000  0.5744440000000 1.0
C      1  0.4399420000000  0.5131210000000  0.5994960000000 1.0
C      1  0.5080670000000  0.3938760000000  0.5418620000000 1.0
C      1  0.4511320000000  0.4200710000000  0.5564920000000 1.0
C      1  0.4473570000000  0.5217850000000  0.5715360000000 1.0
C      1  0.5995330000000  0.5606400000000  0.4892360000000 1.0
C      1  0.4352050000000  0.5956080000000  0.5355600000000 1.0
C      1  0.5105590000000  0.5130960000000  0.5270880000000 1.0
C      1  0.5530850000000  0.5609290000000  0.5683650000000 1.0
C      1  0.4797050000000  0.4396910000000  0.5054950000000 1.0
C      1  0.5820120000000  0.5189390000000  0.5646780000000 1.0
C      1  0.4556720000000  0.4809420000000  0.4405530000000 1.0
C      1  0.4482860000000  0.6001640000000  0.5098600000000 1.0
C      1  0.5418150000000  0.3868740000000  0.4846420000000 1.0
C      1  0.5019570000000  0.4392450000000  0.4292150000000 1.0
C      1  0.3913020000000  0.4574540000000  0.5017090000000 1.0
C      1  0.4481790000000  0.4505720000000  0.5527390000000 1.0
C      1  0.5495270000000  0.4862780000000  0.3983310000000 1.0
C      1  0.4543550000000  0.4682010000000  0.6062860000000 1.0
C      1  0.5659090000000  0.5898410000000  0.4827740000000 1.0
C      1  0.5861780000000  0.4787030000000  0.4366650000000 1.0
C      1  0.5198550000000  0.5332050000000  0.4891160000000 1.0
C      1  0.5064720000000  0.5645330000000  0.4880040000000 1.0
C      1  0.4635030000000  0.4581560000000  0.4614230000000 1.0
C      1  0.5820620000000  0.5692840000000  0.4681860000000 1.0
C      1  0.3861680000000  0.4766390000000  0.4795680000000 1.0
C      1  0.4234260000000  0.5620100000000  0.5026140000000 1.0
C      1  0.4999100000000  0.4194530000000  0.5563950000000 1.0
C      1  0.5552320000000  0.5085070000000  0.4355380000000 1.0
C      1  0.4794560000000  0.5006060000000  0.4162610000000 1.0
C      1  0.5250760000000  0.4694400000000  0.5049190000000 1.0
C      1  0.5909300000000  0.5708740000000  0.5149310000000 1.0
C      1  0.4889650000000  0.5895580000000  0.5326940000000 1.0
C      1  0.4735510000000  0.5339710000000  0.5033340000000 1.0
C      1  0.5237310000000  0.6121960000000  0.4950840000000 1.0
C      1  0.4029840000000  0.5149340000000  0.5522470000000 1.0
C      1  0.4265130000000  0.5795910000000  0.5585150000000 1.0
C      1  0.4222180000000  0.4226900000000  0.4506690000000 1.0
C      1  0.4035020000000  0.4385120000000  0.4632580000000 1.0
C      1  0.4005370000000  0.4710450000000  0.5511980000000 1.0
C      1  0.5448080000000  0.5820980000000  0.4196390000000 1.0
C      1  0.5914310000000  0.4508470000000  0.4456290000000 1.0
C      1  0.5254750000000  0.4018650000000  0.4462820000000 1.0
C      1  0.5242900000000  0.5550800000000  0.5360020000000 1.0
C      1  0.5028900000000  0.4318790000000  0.4832530000000 1.0
C      1  0.4770980000000  0.6066680000000  0.5125060000000 1.0
C      1  0.4893540000000  0.4413650000000  0.4562910000000 1.0
C      1  0.5218560000000  0.5884650000000  0.4337350000000 1.0
C      1  0.6115020000000  0.4732180000000  0.4893200000000 1.0
C      1  0.5874680000000  0.4397960000000  0.5050180000000 1.0
C      1  0.4137090000000  0.5135970000000  0.4438140000000 1.0
C      1  0.4973700000000  0.5159090000000  0.4998840000000 1.0
C      1  0.3996260000000  0.4663720000000  0.4558100000000 1.0
C      1  0.4450500000000  0.5548280000000  0.5665680000000 1.0
C      1  0.4752710000000  0.4395430000000  0.5946720000000 1.0
C      1  0.5722170000000  0.5438990000000  0.5536820000000 1.0
C      1  0.5894430000000  0.4785840000000  0.5377310000000 1.0
C      1  0.4220400000000  0.4960430000000  0.5089910000000 1.0
C      1  0.4739300000000  0.3832170000000  0.5278560000000 1.0
C      1  0.4853930000000  0.4521360000000  0.4106900000000 1.0
C      1  0.5011500000000  0.5346900000000  0.5451040000000 1.0
C      1  0.5234070000000  0.4480170000000  0.5271720000000 1.0
C      1  0.5495640000000  0.4876720000000  0.4597830000000 1.0
C      1  0.4343600000000  0.4724990000000  0.4212650000000 1.0
C      1  0.5585390000000  0.5314590000000  0.4680370000000 1.0
C      1  0.4949110000000  0.6074940000000  0.4890380000000 1.0
C      1  0.5480660000000  0.5107430000000  0.5383030000000 1.0
C      1  0.4669560000000  0.5169230000000  0.6147680000000 1.0
C      1  0.5394500000000  0.5113710000000  0.4765090000000 1.0
C      1  0.4675180000000  0.5193660000000  0.4592040000000 1.0
C      1  0.3820950000000  0.5058530000000  0.4842920000000 1.0
C      1  0.4581440000000  0.5590570000000  0.5407910000000 1.0
C      1  0.5288460000000  0.4837810000000  0.6170670000000 1.0
C      1  0.5697520000000  0.5376300000000  0.4962380000000 1.0
C      1  0.4941730000000  0.5522080000000  0.4423970000000 1.0
C      1  0.5700890000000  0.4276620000000  0.4494340000000 1.0
C      1  0.5013120000000  0.4754000000000  0.6168730000000 1.0
C      1  0.5311610000000  0.5293180000000  0.3961390000000 1.0
C      1  0.4273000000000  0.4762170000000  0.5658140000000 1.0
C      1  0.5452020000000  0.5378820000000  0.5188640000000 1.0
C      1  0.4475640000000  0.5553560000000  0.4254690000000 1.0
C      1  0.5424450000000  0.5842320000000  0.5540550000000 1.0
C      1  0.4955750000000  0.5769220000000  0.4270750000000 1.0
C      1  0.5947030000000  0.5510250000000  0.5365310000000 1.0
C      1  0.5372950000000  0.3985330000000  0.5392790000000 1.0
C      1  0.4980440000000  0.5221560000000  0.5750630000000 1.0
C      1  0.5273410000000  0.4323110000000  0.5699130000000 1.0
C      1  0.5631310000000  0.5617260000000  0.4223210000000 1.0
C      1  0.5049090000000  0.4673730000000  0.3939670000000 1.0
C      1  0.4899000000000  0.5080730000000  0.4441040000000 1.0
C      1  0.4661630000000  0.4132720000000  0.4322530000000 1.0
C      1  0.5531150000000  0.4782350000000  0.5027800000000 1.0
C      1  0.4368190000000  0.4462480000000  0.4106680000000 1.0
C      1  0.5107350000000  0.5474200000000  0.3890790000000 1.0
C      1  0.5989600000000  0.4984020000000  0.4821630000000 1.0
C      1  0.5614390000000  0.4331450000000  0.4773730000000 1.0
C      1  0.5406270000000  0.6007540000000  0.4746220000000 1.0
C      1  0.4690590000000  0.5478240000000  0.4566530000000 1.0
C      1  0.4934840000000  0.4412840000000  0.5344950000000 1.0
C      1  0.4208080000000  0.5543590000000  0.5301030000000 1.0
C      1  0.5328860000000  0.4623380000000  0.4025500000000 1.0
C      1  0.6042040000000  0.4619780000000  0.5162380000000 1.0
C      1  0.4540440000000  0.4044310000000  0.5303670000000 1.0
C      1  0.4759120000000  0.4881970000000  0.6079660000000 1.0
C      1  0.4852970000000  0.5398260000000  0.6058780000000 1.0
C      1  0.4746650000000  0.5387650000000  0.5318260000000 1.0
C      1  0.3870850000000  0.5207890000000  0.4587990000000 1.0
C      1  0.5065890000000  0.5832830000000  0.6001150000000 1.0
C      1  0.4727150000000  0.5585870000000  0.4851740000000 1.0
C      1  0.4994430000000  0.4844640000000  0.4589140000000 1.0
C      1  0.6027590000000  0.5044630000000  0.5487340000000 1.0
C      1  0.4548890000000  0.4884960000000  0.5294100000000 1.0
C      1  0.4317500000000  0.5041600000000  0.5514620000000 1.0
C      1  0.4932130000000  0.3862670000000  0.5070270000000 1.0
C      1  0.4832420000000  0.3927590000000  0.4799860000000 1.0
C      1  0.5404140000000  0.5177800000000  0.5911510000000 1.0
C      1  0.5275410000000  0.5162660000000  0.4227040000000 1.0
C      1  0.4021680000000  0.5186780000000  0.5043210000000 1.0
C      1  0.5840050000000  0.5558480000000  0.4415540000000 1.0
C      1  0.5417170000000  0.4210820000000  0.5196480000000 1.0
C      1  0.4900420000000  0.5638350000000  0.3995810000000 1.0
C      1  0.5434290000000  0.4242430000000  0.4353240000000 1.0
C      1  0.5679770000000  0.4947480000000  0.5215820000000 1.0
C      1  0.5451450000000  0.4635640000000  0.6035790000000 1.0
C      1  0.4780570000000  0.4860580000000  0.5491190000000 1.0
C      1  0.5659860000000  0.5864060000000  0.5111930000000 1.0
C      1  0.4546340000000  0.4218100000000  0.5058020000000 1.0
C      1  0.5755370000000  0.4866040000000  0.4107700000000 1.0
C      1  0.3843490000000  0.4937610000000  0.5538030000000 1.0
C      1  0.5280110000000  0.4867510000000  0.5574970000000 1.0
C      1  0.4308500000000  0.5835360000000  0.4606050000000 1.0
C      1  0.4208590000000  0.5414320000000  0.4291870000000 1.0
C      1  0.5771150000000  0.4603390000000  0.5596180000000 1.0
C      1  0.4319540000000  0.4834150000000  0.5957210000000 1.0
C      1  0.5335580000000  0.4573480000000  0.5533060000000 1.0
C      1  0.4111840000000  0.4689230000000  0.5221840000000 1.0
END
