TITL C-950535-5962-386 -1.76626009720967e-06 125000 -672.316100695432 0 0 110 (C1) n - 1
REM
REM in /home/bkarasulu/work/CARBON/AIRSS/Generating-Clusters/EDIP-Nigel-Params/with-SteepDescent/Only-C1/SD-CG/HFTN-CG
REM
REM
REM
REM
REM
REM ./C.cell (11c1c37f851c82e70ff6c80c92926a4b)
REM
REM compiler GCC version 9.2.1 20190827 (Red Hat 9.2.1-1)
REM options -cpp -mtune=generic -march=x86-64 -g -O0 -fpre-include=/usr/include/finclude/math-vector-fortran.h
REM seed -38949257 794484001 -405375041 466589282 263265354 1292893511 364337044 37995095 1590757887 -450568299 -649549709 638718405 -326617541 -902752501 -961135047 -529088452 -157701881 -742161669 -232227586 1590012358 -927884680 570140117 259021944 1793516954 -327217354 -1415131164 -566639871 -1403610257 25204837 -306631437 1869508664 2108063955 -1423452909
REM
CELL 1.54180   50.00000   50.00000   50.00000   90.00000   90.00000   90.00000
LATT -1
SFAC C  
C      1  0.4718050000000  0.4549330000000  0.5382940000000 1.0
C      1  0.4129980000000  0.5541720000000  0.5047240000000 1.0
C      1  0.4709870000000  0.4329790000000  0.5572640000000 1.0
C      1  0.4263420000000  0.4840470000000  0.5063290000000 1.0
C      1  0.5552700000000  0.4292250000000  0.4790460000000 1.0
C      1  0.4350480000000  0.5568400000000  0.5465180000000 1.0
C      1  0.5726740000000  0.4725140000000  0.4650310000000 1.0
C      1  0.4660080000000  0.4756830000000  0.4550030000000 1.0
C      1  0.5651930000000  0.5272350000000  0.5439870000000 1.0
C      1  0.4204560000000  0.5304790000000  0.5215260000000 1.0
C      1  0.4664730000000  0.5875090000000  0.5204590000000 1.0
C      1  0.5519850000000  0.4372900000000  0.5690740000000 1.0
C      1  0.4968780000000  0.5095140000000  0.4250460000000 1.0
C      1  0.5019370000000  0.4987260000000  0.5289170000000 1.0
C      1  0.5312240000000  0.4436710000000  0.4672750000000 1.0
C      1  0.4970370000000  0.4520020000000  0.5209220000000 1.0
C      1  0.4584870000000  0.4691010000000  0.5633630000000 1.0
C      1  0.4279000000000  0.5487220000000  0.4327030000000 1.0
C      1  0.4528870000000  0.5027640000000  0.4475110000000 1.0
C      1  0.4328460000000  0.4815930000000  0.5558910000000 1.0
C      1  0.5431240000000  0.4741050000000  0.5105780000000 1.0
C      1  0.5308440000000  0.5492290000000  0.5687450000000 1.0
C      1  0.5332450000000  0.5220870000000  0.5780680000000 1.0
C      1  0.5231490000000  0.4590150000000  0.5364900000000 1.0
C      1  0.5080780000000  0.5114560000000  0.5906260000000 1.0
C      1  0.5509150000000  0.4155870000000  0.5050060000000 1.0
C      1  0.4852040000000  0.5294110000000  0.5934360000000 1.0
C      1  0.4692710000000  0.4610620000000  0.4082560000000 1.0
C      1  0.5761010000000  0.4593970000000  0.5082460000000 1.0
C      1  0.5454820000000  0.5068850000000  0.5072980000000 1.0
C      1  0.4571670000000  0.4386000000000  0.4887480000000 1.0
C      1  0.4806850000000  0.5874430000000  0.5466130000000 1.0
C      1  0.4702480000000  0.5672980000000  0.4242110000000 1.0
C      1  0.4836510000000  0.5882080000000  0.4961080000000 1.0
C      1  0.5135870000000  0.5446210000000  0.5135780000000 1.0
C      1  0.4684640000000  0.4688270000000  0.4858410000000 1.0
C      1  0.5262600000000  0.5201200000000  0.5278690000000 1.0
C      1  0.5038170000000  0.4992610000000  0.4528030000000 1.0
C      1  0.5077760000000  0.5578220000000  0.4223940000000 1.0
C      1  0.4678100000000  0.5199860000000  0.4293280000000 1.0
C      1  0.4089230000000  0.5461470000000  0.4773310000000 1.0
C      1  0.5660550000000  0.4831610000000  0.5475340000000 1.0
C      1  0.4894070000000  0.4376160000000  0.4224180000000 1.0
C      1  0.5151700000000  0.4137580000000  0.5421870000000 1.0
C      1  0.5192570000000  0.5317830000000  0.4228500000000 1.0
C      1  0.5463790000000  0.5568430000000  0.4605820000000 1.0
C      1  0.4887480000000  0.5564200000000  0.4438910000000 1.0
C      1  0.5294790000000  0.5977880000000  0.4823540000000 1.0
C      1  0.4950870000000  0.4824500000000  0.4071300000000 1.0
C      1  0.5262560000000  0.4370910000000  0.5576900000000 1.0
C      1  0.5190240000000  0.5812180000000  0.5263160000000 1.0
C      1  0.4458390000000  0.5664200000000  0.5206330000000 1.0
C      1  0.5767320000000  0.4490840000000  0.4813450000000 1.0
C      1  0.4973120000000  0.5630880000000  0.4721510000000 1.0
C      1  0.4663590000000  0.5464310000000  0.5798870000000 1.0
C      1  0.5724440000000  0.4134270000000  0.5231310000000 1.0
C      1  0.4074050000000  0.5167790000000  0.4788110000000 1.0
C      1  0.5468180000000  0.5706330000000  0.5266000000000 1.0
C      1  0.4563070000000  0.4531990000000  0.4373670000000 1.0
C      1  0.4843640000000  0.4127830000000  0.5405000000000 1.0
C      1  0.4784240000000  0.5125400000000  0.5438110000000 1.0
C      1  0.5504100000000  0.5515220000000  0.5478720000000 1.0
C      1  0.5163180000000  0.4840870000000  0.5507600000000 1.0
C      1  0.4176070000000  0.4638150000000  0.4867620000000 1.0
C      1  0.5250810000000  0.4712720000000  0.4850180000000 1.0
C      1  0.5105690000000  0.5969150000000  0.5031540000000 1.0
C      1  0.4737020000000  0.4939710000000  0.5686370000000 1.0
C      1  0.5242890000000  0.5746550000000  0.4673060000000 1.0
C      1  0.4330220000000  0.5477060000000  0.4602710000000 1.0
C      1  0.4769640000000  0.4211850000000  0.5097400000000 1.0
C      1  0.4251990000000  0.4412120000000  0.5267760000000 1.0
C      1  0.5060700000000  0.4272560000000  0.4697890000000 1.0
C      1  0.4661230000000  0.5189080000000  0.4936730000000 1.0
C      1  0.4966930000000  0.4730260000000  0.4997700000000 1.0
C      1  0.5093920000000  0.4608200000000  0.4269050000000 1.0
C      1  0.4948880000000  0.4729130000000  0.4503970000000 1.0
C      1  0.5669300000000  0.4536810000000  0.5515720000000 1.0
C      1  0.5603470000000  0.4927520000000  0.4224230000000 1.0
C      1  0.5862950000000  0.5162180000000  0.4530920000000 1.0
C      1  0.4577660000000  0.4288270000000  0.4591220000000 1.0
C      1  0.4333390000000  0.5099430000000  0.5587930000000 1.0
C      1  0.5412130000000  0.5310440000000  0.4446770000000 1.0
C      1  0.5010060000000  0.5355490000000  0.4872340000000 1.0
C      1  0.5674190000000  0.5603550000000  0.4787560000000 1.0
C      1  0.4450550000000  0.5355850000000  0.5627750000000 1.0
C      1  0.4990810000000  0.5343820000000  0.5537400000000 1.0
C      1  0.5635770000000  0.5685790000000  0.5042550000000 1.0
C      1  0.4435860000000  0.5198580000000  0.4702160000000 1.0
C      1  0.5314450000000  0.5210030000000  0.4812210000000 1.0
C      1  0.5528480000000  0.5067280000000  0.5605790000000 1.0
C      1  0.5867960000000  0.4970550000000  0.4733950000000 1.0
C      1  0.4917710000000  0.5539170000000  0.5325190000000 1.0
C      1  0.4220210000000  0.4691520000000  0.5316870000000 1.0
C      1  0.5275840000000  0.4963190000000  0.4680670000000 1.0
C      1  0.4744640000000  0.5714430000000  0.5691970000000 1.0
C      1  0.5832710000000  0.4977140000000  0.5279390000000 1.0
C      1  0.4585740000000  0.5294970000000  0.5212980000000 1.0
C      1  0.4096430000000  0.5079620000000  0.5057760000000 1.0
C      1  0.4556010000000  0.4904480000000  0.5008530000000 1.0
C      1  0.4851790000000  0.4229380000000  0.4492860000000 1.0
C      1  0.5009680000000  0.4861570000000  0.5766760000000 1.0
C      1  0.4528970000000  0.5447880000000  0.4206550000000 1.0
C      1  0.5829910000000  0.5077160000000  0.5004710000000 1.0
C      1  0.4288470000000  0.4404200000000  0.4985750000000 1.0
C      1  0.5792830000000  0.4399470000000  0.5293830000000 1.0
C      1  0.5368220000000  0.4516620000000  0.4385490000000 1.0
C      1  0.5235920000000  0.4177810000000  0.5142420000000 1.0
C      1  0.5019690000000  0.4163350000000  0.4958970000000 1.0
C      1  0.5607860000000  0.4693570000000  0.4381420000000 1.0
C      1  0.5656060000000  0.5175440000000  0.4344620000000 1.0
END
