TITL C-950536-5891-423 8.58797691645158e-07 125000 -382.298208939639 0 0 63 (C1) n - 1
REM
REM in /home/bkarasulu/work/CARBON/AIRSS/Generating-Clusters/EDIP-Nigel-Params/with-SteepDescent/Only-C1/SD-CG/HFTN-CG
REM
REM
REM
REM
REM
REM ./C.cell (11c1c37f851c82e70ff6c80c92926a4b)
REM
REM compiler GCC version 9.2.1 20190827 (Red Hat 9.2.1-1)
REM options -cpp -mtune=generic -march=x86-64 -g -O0 -fpre-include=/usr/include/finclude/math-vector-fortran.h
REM seed 1411471920 725599612 165286818 -761495089 -1241439839 -15712994 -723639899 1059446367 691823597 -4483191 -1016726481 -1208528273 1719188770 2146441513 -2428682 -1080227782 1801423809 -1819368589 2121597524 -384189601 -1600099563 1205375641 -1718218622 1182321970 1152394602 856853951 1844727691 -1492988172 1165082662 396370841 -154944109 780436042 1498216919
REM
CELL 1.54180   50.00000   50.00000   50.00000   90.00000   90.00000   90.00000
LATT -1
SFAC C  
C      1  0.4788230000000  0.4869870000000  0.5217570000000 1.0
C      1  0.4659780000000  0.5597320000000  0.4690330000000 1.0
C      1  0.4365140000000  0.4808800000000  0.4929120000000 1.0
C      1  0.5386710000000  0.4477150000000  0.5311370000000 1.0
C      1  0.4924730000000  0.5032980000000  0.4145350000000 1.0
C      1  0.5151590000000  0.5680150000000  0.4772400000000 1.0
C      1  0.5003240000000  0.5200880000000  0.5741610000000 1.0
C      1  0.4397540000000  0.5487830000000  0.5130610000000 1.0
C      1  0.4742350000000  0.4868510000000  0.4556990000000 1.0
C      1  0.4514870000000  0.4831500000000  0.5549300000000 1.0
C      1  0.4924880000000  0.4381650000000  0.5040480000000 1.0
C      1  0.4896190000000  0.4507000000000  0.5535630000000 1.0
C      1  0.5368620000000  0.4232700000000  0.5182610000000 1.0
C      1  0.5204090000000  0.4948640000000  0.4557530000000 1.0
C      1  0.5504420000000  0.4639390000000  0.4680190000000 1.0
C      1  0.4969820000000  0.4603490000000  0.5256730000000 1.0
C      1  0.4538760000000  0.4706670000000  0.5128870000000 1.0
C      1  0.5532960000000  0.4897070000000  0.5665100000000 1.0
C      1  0.5127800000000  0.5407770000000  0.5560950000000 1.0
C      1  0.5093820000000  0.5225900000000  0.5103510000000 1.0
C      1  0.4294920000000  0.5065840000000  0.5340050000000 1.0
C      1  0.4722230000000  0.5232300000000  0.5706560000000 1.0
C      1  0.5510580000000  0.5290580000000  0.4433040000000 1.0
C      1  0.4712730000000  0.5199100000000  0.5410260000000 1.0
C      1  0.5279160000000  0.4777890000000  0.5687840000000 1.0
C      1  0.5014870000000  0.5416660000000  0.4392180000000 1.0
C      1  0.5370180000000  0.5304380000000  0.5012940000000 1.0
C      1  0.5070430000000  0.5759070000000  0.5029710000000 1.0
C      1  0.5568880000000  0.4766600000000  0.4943940000000 1.0
C      1  0.5469320000000  0.4846180000000  0.4467030000000 1.0
C      1  0.4403550000000  0.4639240000000  0.5371860000000 1.0
C      1  0.5238620000000  0.5262550000000  0.4531270000000 1.0
C      1  0.5143960000000  0.4832840000000  0.4844920000000 1.0
C      1  0.4976050000000  0.4852390000000  0.4369980000000 1.0
C      1  0.4930050000000  0.5632740000000  0.4577920000000 1.0
C      1  0.5351850000000  0.5454340000000  0.4751190000000 1.0
C      1  0.5499840000000  0.5463640000000  0.5234190000000 1.0
C      1  0.4610130000000  0.5132690000000  0.4491170000000 1.0
C      1  0.4618230000000  0.5667350000000  0.5053520000000 1.0
C      1  0.4722800000000  0.4464870000000  0.4307160000000 1.0
C      1  0.5656870000000  0.5055010000000  0.4437860000000 1.0
C      1  0.5233790000000  0.4473240000000  0.4736550000000 1.0
C      1  0.5420200000000  0.5361770000000  0.5501820000000 1.0
C      1  0.4871020000000  0.5653140000000  0.5194540000000 1.0
C      1  0.5366450000000  0.4701880000000  0.5134680000000 1.0
C      1  0.5212340000000  0.4518360000000  0.5555900000000 1.0
C      1  0.5046530000000  0.4380030000000  0.4511570000000 1.0
C      1  0.4774550000000  0.4419740000000  0.4787170000000 1.0
C      1  0.5506570000000  0.5083420000000  0.5458980000000 1.0
C      1  0.4437970000000  0.5315930000000  0.5372930000000 1.0
C      1  0.4353180000000  0.5291910000000  0.4917180000000 1.0
C      1  0.5696830000000  0.5134280000000  0.5241460000000 1.0
C      1  0.4948300000000  0.5383060000000  0.5309860000000 1.0
C      1  0.4651100000000  0.4578780000000  0.4568210000000 1.0
C      1  0.4795710000000  0.5248260000000  0.4279890000000 1.0
C      1  0.4994830000000  0.4567220000000  0.4282910000000 1.0
C      1  0.4956190000000  0.4997120000000  0.5002210000000 1.0
C      1  0.4552280000000  0.5327020000000  0.4703660000000 1.0
C      1  0.4264760000000  0.5043550000000  0.5047410000000 1.0
C      1  0.4787940000000  0.4759140000000  0.5648610000000 1.0
C      1  0.5034770000000  0.4924720000000  0.5653800000000 1.0
C      1  0.5191690000000  0.4272190000000  0.4967960000000 1.0
C      1  0.5642200000000  0.5043740000000  0.4971890000000 1.0
END
