TITL C-950528-5794-207 -5.6551242821614e-08 125000 -401.1247225433 0 0 66 (C1) n - 1
REM
REM in /home/bkarasulu/work/CARBON/AIRSS/Generating-Clusters/EDIP-Nigel-Params/with-SteepDescent/Only-C1/SD-CG/HFTN-CG
REM
REM
REM
REM
REM
REM ./C.cell (11c1c37f851c82e70ff6c80c92926a4b)
REM
REM compiler GCC version 9.2.1 20190827 (Red Hat 9.2.1-1)
REM options -cpp -mtune=generic -march=x86-64 -g -O0 -fpre-include=/usr/include/finclude/math-vector-fortran.h
REM seed 1518311615 1643985759 692600192 -526146665 1029303400 -1306372016 403006133 2044270236 2003508085 -1423042091 -1723747496 -1411177806 1178602114 -689748154 -1548825466 181192629 643534667 -1000458672 2050370216 -2066075028 -822891543 1316254998 607614538 -2139686386 -656892392 721187184 -1304864489 -1734730010 85328794 1807049028 790495387 117009903 -1638965499
REM
CELL 1.54180   50.00000   50.00000   50.00000   90.00000   90.00000   90.00000
LATT -1
SFAC C  
C      1  0.4833290000000  0.4750460000000  0.5564320000000 1.0
C      1  0.5527340000000  0.4761020000000  0.5480030000000 1.0
C      1  0.4648280000000  0.5581040000000  0.5225350000000 1.0
C      1  0.4945090000000  0.4416300000000  0.5472070000000 1.0
C      1  0.5687090000000  0.4976040000000  0.5022090000000 1.0
C      1  0.5281700000000  0.4783610000000  0.4291680000000 1.0
C      1  0.4585380000000  0.4809760000000  0.5391280000000 1.0
C      1  0.4710630000000  0.5318450000000  0.5355710000000 1.0
C      1  0.5271540000000  0.4342130000000  0.4907600000000 1.0
C      1  0.5276620000000  0.5063810000000  0.4828150000000 1.0
C      1  0.4893360000000  0.5046400000000  0.4330670000000 1.0
C      1  0.5124390000000  0.5109780000000  0.5372490000000 1.0
C      1  0.5410410000000  0.4660440000000  0.4547990000000 1.0
C      1  0.4577340000000  0.4651130000000  0.4454540000000 1.0
C      1  0.5474690000000  0.5259620000000  0.4690370000000 1.0
C      1  0.5039290000000  0.4344370000000  0.4218960000000 1.0
C      1  0.5655340000000  0.5265450000000  0.4935580000000 1.0
C      1  0.4560080000000  0.4988510000000  0.4859660000000 1.0
C      1  0.4257020000000  0.5163260000000  0.4703930000000 1.0
C      1  0.4873910000000  0.5379660000000  0.5606690000000 1.0
C      1  0.4172360000000  0.5155810000000  0.4965790000000 1.0
C      1  0.5410840000000  0.5212870000000  0.5364280000000 1.0
C      1  0.5467170000000  0.4811900000000  0.4861670000000 1.0
C      1  0.5033460000000  0.4625310000000  0.4204730000000 1.0
C      1  0.4924650000000  0.5208690000000  0.5168680000000 1.0
C      1  0.5188270000000  0.5073250000000  0.4298080000000 1.0
C      1  0.4832130000000  0.4904850000000  0.5809060000000 1.0
C      1  0.4830860000000  0.5648870000000  0.4725430000000 1.0
C      1  0.5390900000000  0.4570420000000  0.5047340000000 1.0
C      1  0.5295020000000  0.5110130000000  0.5780740000000 1.0
C      1  0.4990730000000  0.5032790000000  0.4765300000000 1.0
C      1  0.4842720000000  0.4965800000000  0.5000750000000 1.0
C      1  0.5418460000000  0.5376980000000  0.5110120000000 1.0
C      1  0.4827510000000  0.5197370000000  0.4569840000000 1.0
C      1  0.4905960000000  0.5676300000000  0.5103160000000 1.0
C      1  0.4493570000000  0.5094720000000  0.5368570000000 1.0
C      1  0.5121310000000  0.5728520000000  0.5307060000000 1.0
C      1  0.5098170000000  0.4817300000000  0.5408010000000 1.0
C      1  0.5055870000000  0.5420620000000  0.4968270000000 1.0
C      1  0.4837520000000  0.4764570000000  0.4369000000000 1.0
C      1  0.5225610000000  0.5424990000000  0.4437610000000 1.0
C      1  0.5366610000000  0.5677370000000  0.5137470000000 1.0
C      1  0.5409710000000  0.5561970000000  0.4637910000000 1.0
C      1  0.4423280000000  0.4521020000000  0.4919500000000 1.0
C      1  0.4993200000000  0.4736650000000  0.5135290000000 1.0
C      1  0.4953480000000  0.5456460000000  0.4541250000000 1.0
C      1  0.4265360000000  0.5130750000000  0.5215150000000 1.0
C      1  0.5066090000000  0.4289150000000  0.4492700000000 1.0
C      1  0.5424000000000  0.4529420000000  0.5337180000000 1.0
C      1  0.4975370000000  0.4295450000000  0.4962520000000 1.0
C      1  0.4451770000000  0.5588810000000  0.5028250000000 1.0
C      1  0.5608110000000  0.4993380000000  0.5314800000000 1.0
C      1  0.4514370000000  0.5301750000000  0.4632970000000 1.0
C      1  0.5447000000000  0.5311640000000  0.5639350000000 1.0
C      1  0.4578870000000  0.4581950000000  0.5171680000000 1.0
C      1  0.4855120000000  0.4310590000000  0.4698120000000 1.0
C      1  0.5318760000000  0.4379760000000  0.4614640000000 1.0
C      1  0.4992820000000  0.5135400000000  0.5742820000000 1.0
C      1  0.4550860000000  0.5564220000000  0.4767920000000 1.0
C      1  0.5224080000000  0.4387200000000  0.5478680000000 1.0
C      1  0.4424520000000  0.4752960000000  0.4714020000000 1.0
C      1  0.5305720000000  0.5719360000000  0.4856360000000 1.0
C      1  0.4861760000000  0.4475390000000  0.5183220000000 1.0
C      1  0.4569910000000  0.4395550000000  0.4647670000000 1.0
C      1  0.5354620000000  0.4836860000000  0.5699590000000 1.0
C      1  0.5068750000000  0.5573640000000  0.5538300000000 1.0
END
