TITL C-950533-5798-721 -6.13015917737605e-07 125000 -1108.80291892753 0 0 176 (C1) n - 1
REM
REM in /home/bkarasulu/work/CARBON/AIRSS/Generating-Clusters/EDIP-Nigel-Params/with-SteepDescent/Only-C1/SD-CG/HFTN-CG
REM
REM
REM
REM
REM
REM ./C.cell (11c1c37f851c82e70ff6c80c92926a4b)
REM
REM compiler GCC version 9.2.1 20190827 (Red Hat 9.2.1-1)
REM options -cpp -mtune=generic -march=x86-64 -g -O0 -fpre-include=/usr/include/finclude/math-vector-fortran.h
REM seed 916613537 1149188579 -185763835 689934874 -361566756 -1439501474 1308378725 -1083541557 -2117155722 -887804165 -1789928948 2025976174 -774607930 1699548392 1891866375 390391126 -1330440220 1238204338 -230750204 106649588 1024576651 1371027583 1635573859 -1163914447 -888988560 638897879 464367724 -172320464 -1618248265 -2922576 904101296 1932090011 2146377087
REM
CELL 1.54180   50.00000   50.00000   50.00000   90.00000   90.00000   90.00000
LATT -1
SFAC C  
C      1  0.4284680000000  0.4254080000000  0.5161190000000 1.0
C      1  0.6029930000000  0.5203100000000  0.5203360000000 1.0
C      1  0.4767780000000  0.4122020000000  0.5604400000000 1.0
C      1  0.4859020000000  0.5060100000000  0.3943650000000 1.0
C      1  0.5440420000000  0.5067140000000  0.4420220000000 1.0
C      1  0.5182780000000  0.6065320000000  0.4669960000000 1.0
C      1  0.4780100000000  0.4741900000000  0.5530920000000 1.0
C      1  0.4552410000000  0.4284680000000  0.4732220000000 1.0
C      1  0.5985620000000  0.5039260000000  0.4949370000000 1.0
C      1  0.4275640000000  0.6003560000000  0.4993630000000 1.0
C      1  0.4312400000000  0.4525780000000  0.4059930000000 1.0
C      1  0.4698640000000  0.6006160000000  0.4690210000000 1.0
C      1  0.5220200000000  0.5671200000000  0.4395090000000 1.0
C      1  0.5698300000000  0.4179630000000  0.4677260000000 1.0
C      1  0.4870810000000  0.5681940000000  0.5095210000000 1.0
C      1  0.4373720000000  0.5094350000000  0.4813200000000 1.0
C      1  0.4997550000000  0.4840050000000  0.5107250000000 1.0
C      1  0.5008150000000  0.4374020000000  0.5336050000000 1.0
C      1  0.5149230000000  0.5061090000000  0.3965980000000 1.0
C      1  0.6043780000000  0.5489400000000  0.5141450000000 1.0
C      1  0.5294470000000  0.4339090000000  0.5220650000000 1.0
C      1  0.4506520000000  0.5587490000000  0.5647700000000 1.0
C      1  0.5128280000000  0.4531630000000  0.4514240000000 1.0
C      1  0.5160640000000  0.5303900000000  0.5921280000000 1.0
C      1  0.5807210000000  0.5214220000000  0.5436680000000 1.0
C      1  0.5302150000000  0.4379100000000  0.4917450000000 1.0
C      1  0.5833550000000  0.5464990000000  0.5595700000000 1.0
C      1  0.5639190000000  0.4731130000000  0.5231520000000 1.0
C      1  0.4463870000000  0.5826700000000  0.5462420000000 1.0
C      1  0.4366510000000  0.5228960000000  0.4219720000000 1.0
C      1  0.5303950000000  0.5990410000000  0.5127410000000 1.0
C      1  0.4707150000000  0.4803970000000  0.3916070000000 1.0
C      1  0.5098540000000  0.5943980000000  0.4411980000000 1.0
C      1  0.4134400000000  0.5620450000000  0.4406470000000 1.0
C      1  0.4936500000000  0.6113610000000  0.4829960000000 1.0
C      1  0.5822280000000  0.4303800000000  0.4913520000000 1.0
C      1  0.4631280000000  0.4263730000000  0.4429080000000 1.0
C      1  0.4708270000000  0.4784650000000  0.4673650000000 1.0
C      1  0.5736640000000  0.5793880000000  0.5240020000000 1.0
C      1  0.4115400000000  0.4639510000000  0.5467280000000 1.0
C      1  0.4352750000000  0.5771640000000  0.5162440000000 1.0
C      1  0.4126780000000  0.4781240000000  0.5707460000000 1.0
C      1  0.4027200000000  0.4815080000000  0.5243480000000 1.0
C      1  0.5471220000000  0.5291020000000  0.5899870000000 1.0
C      1  0.4900390000000  0.3966990000000  0.4905420000000 1.0
C      1  0.5508390000000  0.5216660000000  0.4690070000000 1.0
C      1  0.4245340000000  0.5361710000000  0.4868920000000 1.0
C      1  0.5412660000000  0.4418790000000  0.5859140000000 1.0
C      1  0.4341450000000  0.5200730000000  0.5904360000000 1.0
C      1  0.5524150000000  0.5785560000000  0.5797090000000 1.0
C      1  0.4533810000000  0.4748680000000  0.5951350000000 1.0
C      1  0.5294370000000  0.3861150000000  0.5144810000000 1.0
C      1  0.6001360000000  0.5038980000000  0.4446440000000 1.0
C      1  0.5395310000000  0.5911630000000  0.4847200000000 1.0
C      1  0.5386310000000  0.5604140000000  0.4866430000000 1.0
C      1  0.5250960000000  0.5151660000000  0.4833210000000 1.0
C      1  0.5047070000000  0.4352620000000  0.4749270000000 1.0
C      1  0.4996820000000  0.3883610000000  0.5162910000000 1.0
C      1  0.5071210000000  0.5136800000000  0.5678950000000 1.0
C      1  0.4915500000000  0.4874270000000  0.5769500000000 1.0
C      1  0.4164340000000  0.5432000000000  0.4194800000000 1.0
C      1  0.5509500000000  0.5417070000000  0.4119720000000 1.0
C      1  0.4158510000000  0.5527140000000  0.5121790000000 1.0
C      1  0.5266530000000  0.4739250000000  0.5521710000000 1.0
C      1  0.5583590000000  0.4399470000000  0.5601940000000 1.0
C      1  0.5101380000000  0.5322280000000  0.5212700000000 1.0
C      1  0.5098370000000  0.5667550000000  0.5610390000000 1.0
C      1  0.5880650000000  0.5290380000000  0.4389020000000 1.0
C      1  0.4742350000000  0.4981350000000  0.5087480000000 1.0
C      1  0.5018200000000  0.4422930000000  0.4107520000000 1.0
C      1  0.4794340000000  0.5930260000000  0.4424760000000 1.0
C      1  0.4101580000000  0.4647740000000  0.4910100000000 1.0
C      1  0.5010510000000  0.5562820000000  0.5869320000000 1.0
C      1  0.5688470000000  0.5031240000000  0.4875760000000 1.0
C      1  0.5019150000000  0.4799600000000  0.4598500000000 1.0
C      1  0.5723920000000  0.4348260000000  0.4438850000000 1.0
C      1  0.4071970000000  0.4533290000000  0.4213040000000 1.0
C      1  0.5242580000000  0.5308100000000  0.4101550000000 1.0
C      1  0.4456930000000  0.4731460000000  0.4443490000000 1.0
C      1  0.5669120000000  0.5962680000000  0.4758520000000 1.0
C      1  0.4444780000000  0.5310650000000  0.3955040000000 1.0
C      1  0.5760270000000  0.4178250000000  0.5183580000000 1.0
C      1  0.5516710000000  0.5631360000000  0.4329530000000 1.0
C      1  0.4601950000000  0.5284970000000  0.6010440000000 1.0
C      1  0.4916150000000  0.5300110000000  0.5448890000000 1.0
C      1  0.4736730000000  0.5120390000000  0.6191970000000 1.0
C      1  0.5929290000000  0.5689140000000  0.5438470000000 1.0
C      1  0.4311290000000  0.5362070000000  0.5647020000000 1.0
C      1  0.5683860000000  0.5496550000000  0.4550910000000 1.0
C      1  0.4867450000000  0.5680960000000  0.5416620000000 1.0
C      1  0.6084320000000  0.4770590000000  0.4932100000000 1.0
C      1  0.5803090000000  0.5605650000000  0.5022830000000 1.0
C      1  0.5896470000000  0.4589990000000  0.4793700000000 1.0
C      1  0.4907590000000  0.5385420000000  0.5002790000000 1.0
C      1  0.4643280000000  0.5693060000000  0.4338040000000 1.0
C      1  0.4791250000000  0.4603170000000  0.4111000000000 1.0
C      1  0.4041290000000  0.5463600000000  0.5591910000000 1.0
C      1  0.4709040000000  0.5514840000000  0.5861910000000 1.0
C      1  0.3916390000000  0.5541220000000  0.4565070000000 1.0
C      1  0.5939830000000  0.4268690000000  0.5384010000000 1.0
C      1  0.5541380000000  0.4985170000000  0.5127200000000 1.0
C      1  0.4729200000000  0.5321280000000  0.3984250000000 1.0
C      1  0.3984260000000  0.4755970000000  0.4652700000000 1.0
C      1  0.5450000000000  0.4046860000000  0.5581240000000 1.0
C      1  0.5553070000000  0.5020240000000  0.5779990000000 1.0
C      1  0.4588160000000  0.5693140000000  0.4985570000000 1.0
C      1  0.4169610000000  0.4608410000000  0.4472320000000 1.0
C      1  0.4721420000000  0.4843440000000  0.6148510000000 1.0
C      1  0.5267530000000  0.4161370000000  0.5791880000000 1.0
C      1  0.5342270000000  0.5816340000000  0.5583520000000 1.0
C      1  0.4262260000000  0.4381520000000  0.4893250000000 1.0
C      1  0.4806940000000  0.5440970000000  0.4256870000000 1.0
C      1  0.5896470000000  0.4737070000000  0.5509480000000 1.0
C      1  0.5653200000000  0.5192930000000  0.4222110000000 1.0
C      1  0.4618550000000  0.4030430000000  0.4878990000000 1.0
C      1  0.4309580000000  0.4856610000000  0.4979350000000 1.0
C      1  0.5868930000000  0.4801720000000  0.4362080000000 1.0
C      1  0.5877280000000  0.4455570000000  0.5587480000000 1.0
C      1  0.4402670000000  0.5704090000000  0.4536090000000 1.0
C      1  0.5418360000000  0.4135100000000  0.4744660000000 1.0
C      1  0.5289780000000  0.4555550000000  0.4101000000000 1.0
C      1  0.5455600000000  0.4086360000000  0.5283360000000 1.0
C      1  0.5512600000000  0.5197620000000  0.5321890000000 1.0
C      1  0.5138870000000  0.4059110000000  0.4481920000000 1.0
C      1  0.5221070000000  0.4641760000000  0.5810800000000 1.0
C      1  0.4744400000000  0.4363800000000  0.5161870000000 1.0
C      1  0.5169310000000  0.4860820000000  0.4861510000000 1.0
C      1  0.4555640000000  0.4503700000000  0.4257330000000 1.0
C      1  0.4994220000000  0.5999190000000  0.5098200000000 1.0
C      1  0.4879810000000  0.5217580000000  0.4497130000000 1.0
C      1  0.4774530000000  0.4459950000000  0.4856750000000 1.0
C      1  0.5280980000000  0.4811620000000  0.3979890000000 1.0
C      1  0.4929130000000  0.4235810000000  0.4343720000000 1.0
C      1  0.4835230000000  0.6148000000000  0.5292770000000 1.0
C      1  0.4992280000000  0.4276010000000  0.5722650000000 1.0
C      1  0.4395580000000  0.5998180000000  0.4729160000000 1.0
C      1  0.4004180000000  0.5373630000000  0.5325460000000 1.0
C      1  0.4404910000000  0.4808930000000  0.3964480000000 1.0
C      1  0.5798530000000  0.5706960000000  0.4750440000000 1.0
C      1  0.5638950000000  0.4757950000000  0.4755600000000 1.0
C      1  0.5073570000000  0.5521730000000  0.4186840000000 1.0
C      1  0.4146270000000  0.5114940000000  0.5290730000000 1.0
C      1  0.5436230000000  0.5784520000000  0.5301100000000 1.0
C      1  0.4863640000000  0.4422110000000  0.5954250000000 1.0
C      1  0.4672340000000  0.5076090000000  0.4793040000000 1.0
C      1  0.5075950000000  0.3866560000000  0.4697260000000 1.0
C      1  0.5946890000000  0.4544600000000  0.4491760000000 1.0
C      1  0.5017720000000  0.4684070000000  0.5365220000000 1.0
C      1  0.4335150000000  0.4433390000000  0.5405880000000 1.0
C      1  0.4507510000000  0.4286980000000  0.5646480000000 1.0
C      1  0.4674300000000  0.5172910000000  0.5316230000000 1.0
C      1  0.5101240000000  0.5018120000000  0.4404060000000 1.0
C      1  0.5824980000000  0.4991470000000  0.5643120000000 1.0
C      1  0.4513620000000  0.4075710000000  0.5146590000000 1.0
C      1  0.5182550000000  0.5560730000000  0.4671120000000 1.0
C      1  0.4401740000000  0.5163470000000  0.5438100000000 1.0
C      1  0.5036330000000  0.5329230000000  0.4744430000000 1.0
C      1  0.5343980000000  0.3851610000000  0.4850650000000 1.0
C      1  0.4737430000000  0.5952700000000  0.5469200000000 1.0
C      1  0.5423100000000  0.4534490000000  0.4375920000000 1.0
C      1  0.4581580000000  0.4464290000000  0.5880850000000 1.0
C      1  0.5389160000000  0.4658000000000  0.4873190000000 1.0
C      1  0.3971420000000  0.5041590000000  0.4629500000000 1.0
C      1  0.5361840000000  0.5491280000000  0.5169100000000 1.0
C      1  0.4297540000000  0.4902400000000  0.5892720000000 1.0
C      1  0.5578950000000  0.4794380000000  0.4459570000000 1.0
C      1  0.5345760000000  0.5037070000000  0.5556370000000 1.0
C      1  0.4553450000000  0.4761920000000  0.5088750000000 1.0
C      1  0.4348790000000  0.4937340000000  0.4232900000000 1.0
C      1  0.5608930000000  0.5518400000000  0.5770410000000 1.0
C      1  0.4005300000000  0.5314720000000  0.4701750000000 1.0
C      1  0.4585040000000  0.4581000000000  0.5308760000000 1.0
C      1  0.5455910000000  0.4557020000000  0.5381090000000 1.0
C      1  0.4957380000000  0.4670160000000  0.6096940000000 1.0
C      1  0.4475820000000  0.5523180000000  0.4761450000000 1.0
C      1  0.4857840000000  0.3962560000000  0.5392760000000 1.0
END
