TITL C-951343-2256-428 -3.00575366134426e-06 125000 -1173.55222686683 0 0 189 (C1) n - 1
REM
REM in /home/bkarasulu/work/CARBON/AIRSS/Generating-Clusters/EDIP-Nigel-Params/with-SteepDescent/Only-C1/SD-CG/HFTN-CG
REM
REM
REM
REM
REM
REM ./C.cell (11c1c37f851c82e70ff6c80c92926a4b)
REM
REM compiler GCC version 9.2.1 20190827 (Red Hat 9.2.1-1)
REM options -cpp -mtune=generic -march=x86-64 -g -O0 -fpre-include=/usr/include/finclude/math-vector-fortran.h
REM seed -194801973 -803194048 1934451020 1682016581 -621951081 -36396464 -947313983 -188571795 1095140949 -683609799 -1124983491 586887458 2027192206 1123903923 1298495069 -253941266 -641275954 46411664 -1489247684 184059468 520757018 591441135 401371112 -749595370 1342588456 -1111660889 -2079449863 1524274247 86355255 771386477 -538706391 -2010814390 365468601
REM
CELL 1.54180   50.00000   50.00000   50.00000   90.00000   90.00000   90.00000
LATT -1
SFAC C  
C      1  0.5332270000000  0.5219630000000  0.5994480000000 1.0
C      1  0.4750110000000  0.5892040000000  0.4412450000000 1.0
C      1  0.4591250000000  0.4169000000000  0.4848270000000 1.0
C      1  0.5375480000000  0.5373790000000  0.5464780000000 1.0
C      1  0.4910540000000  0.5473880000000  0.6015050000000 1.0
C      1  0.4464640000000  0.5779390000000  0.4226400000000 1.0
C      1  0.5413900000000  0.6113390000000  0.4901730000000 1.0
C      1  0.5336070000000  0.5864660000000  0.5374140000000 1.0
C      1  0.4090710000000  0.5079620000000  0.5415250000000 1.0
C      1  0.4547570000000  0.5612870000000  0.5339310000000 1.0
C      1  0.4688850000000  0.4380910000000  0.4623000000000 1.0
C      1  0.5783780000000  0.5655290000000  0.5501650000000 1.0
C      1  0.5474530000000  0.5658100000000  0.5549150000000 1.0
C      1  0.4727770000000  0.3997930000000  0.5444690000000 1.0
C      1  0.5247170000000  0.4493820000000  0.5089940000000 1.0
C      1  0.5102320000000  0.5615610000000  0.4595160000000 1.0
C      1  0.4715300000000  0.4647220000000  0.5765490000000 1.0
C      1  0.4942490000000  0.5847590000000  0.5659760000000 1.0
C      1  0.5280460000000  0.5423850000000  0.3998620000000 1.0
C      1  0.5899800000000  0.5163950000000  0.4376390000000 1.0
C      1  0.5769600000000  0.5596270000000  0.4546890000000 1.0
C      1  0.5071410000000  0.5652340000000  0.5833760000000 1.0
C      1  0.4542220000000  0.4585040000000  0.4992040000000 1.0
C      1  0.6203260000000  0.4967810000000  0.4757400000000 1.0
C      1  0.4085170000000  0.4522120000000  0.5456830000000 1.0
C      1  0.5067610000000  0.5043090000000  0.6207420000000 1.0
C      1  0.5142010000000  0.4951140000000  0.5336520000000 1.0
C      1  0.4310240000000  0.5771100000000  0.4956310000000 1.0
C      1  0.4987110000000  0.4814980000000  0.4940970000000 1.0
C      1  0.6070030000000  0.4740770000000  0.4629080000000 1.0
C      1  0.4197670000000  0.4737420000000  0.4222780000000 1.0
C      1  0.4824650000000  0.4718790000000  0.4367960000000 1.0
C      1  0.4356550000000  0.5634130000000  0.4475520000000 1.0
C      1  0.6075270000000  0.5213590000000  0.4629220000000 1.0
C      1  0.4982640000000  0.6258670000000  0.5013330000000 1.0
C      1  0.4879060000000  0.5617280000000  0.4393720000000 1.0
C      1  0.4719920000000  0.5336030000000  0.4880060000000 1.0
C      1  0.5762320000000  0.5414510000000  0.5894990000000 1.0
C      1  0.4454640000000  0.5467200000000  0.5876170000000 1.0
C      1  0.4554560000000  0.5776410000000  0.5102970000000 1.0
C      1  0.6074100000000  0.5170100000000  0.5265010000000 1.0
C      1  0.5576730000000  0.5260400000000  0.5259280000000 1.0
C      1  0.5088580000000  0.5424540000000  0.4810620000000 1.0
C      1  0.4801500000000  0.5253970000000  0.5596900000000 1.0
C      1  0.4474700000000  0.5575900000000  0.4034690000000 1.0
C      1  0.4903220000000  0.4271350000000  0.5890370000000 1.0
C      1  0.3890150000000  0.4993650000000  0.4511070000000 1.0
C      1  0.5868030000000  0.5269480000000  0.4846640000000 1.0
C      1  0.4138510000000  0.4663900000000  0.5701160000000 1.0
C      1  0.4623270000000  0.4067500000000  0.4396610000000 1.0
C      1  0.4860620000000  0.3984950000000  0.4547670000000 1.0
C      1  0.5467050000000  0.4677560000000  0.5210740000000 1.0
C      1  0.3889570000000  0.5342140000000  0.4937860000000 1.0
C      1  0.5128830000000  0.6086600000000  0.4822440000000 1.0
C      1  0.5305730000000  0.4704640000000  0.4619370000000 1.0
C      1  0.5805330000000  0.4559890000000  0.5877190000000 1.0
C      1  0.5046520000000  0.5602990000000  0.4065790000000 1.0
C      1  0.5486840000000  0.5505360000000  0.4194340000000 1.0
C      1  0.5250320000000  0.5182220000000  0.4723520000000 1.0
C      1  0.4076870000000  0.4662040000000  0.5190150000000 1.0
C      1  0.5434800000000  0.5182960000000  0.4487440000000 1.0
C      1  0.4766230000000  0.5773390000000  0.4916970000000 1.0
C      1  0.6046080000000  0.4641030000000  0.5183470000000 1.0
C      1  0.5053530000000  0.5011870000000  0.5608570000000 1.0
C      1  0.4438310000000  0.4508620000000  0.4180470000000 1.0
C      1  0.4737020000000  0.4688430000000  0.5330830000000 1.0
C      1  0.4550190000000  0.5346080000000  0.4181850000000 1.0
C      1  0.4821650000000  0.5146570000000  0.4616100000000 1.0
C      1  0.4620040000000  0.5436020000000  0.4464890000000 1.0
C      1  0.5368470000000  0.5666830000000  0.5835640000000 1.0
C      1  0.5424870000000  0.5785100000000  0.4262810000000 1.0
C      1  0.6149290000000  0.4488710000000  0.4719560000000 1.0
C      1  0.5383560000000  0.4428900000000  0.5879460000000 1.0
C      1  0.5626670000000  0.5412280000000  0.4732530000000 1.0
C      1  0.4860320000000  0.4234050000000  0.4054900000000 1.0
C      1  0.5217540000000  0.5067040000000  0.4292350000000 1.0
C      1  0.4075490000000  0.5636420000000  0.5361070000000 1.0
C      1  0.5042980000000  0.5326590000000  0.6222960000000 1.0
C      1  0.4635540000000  0.5041830000000  0.5994670000000 1.0
C      1  0.5669960000000  0.4346160000000  0.5253350000000 1.0
C      1  0.4964180000000  0.5186710000000  0.4343890000000 1.0
C      1  0.6063070000000  0.4925320000000  0.5078380000000 1.0
C      1  0.4038610000000  0.4518260000000  0.4673150000000 1.0
C      1  0.4622300000000  0.4309170000000  0.5152850000000 1.0
C      1  0.4205920000000  0.4300680000000  0.4569850000000 1.0
C      1  0.4668690000000  0.4144860000000  0.5722820000000 1.0
C      1  0.5564290000000  0.5938960000000  0.4726740000000 1.0
C      1  0.4165110000000  0.4947520000000  0.5661620000000 1.0
C      1  0.3986100000000  0.5067860000000  0.4937340000000 1.0
C      1  0.4298840000000  0.4506030000000  0.5881780000000 1.0
C      1  0.5462690000000  0.4153400000000  0.5364480000000 1.0
C      1  0.5257350000000  0.4913520000000  0.4836830000000 1.0
C      1  0.4001580000000  0.4460200000000  0.4968680000000 1.0
C      1  0.4996360000000  0.4718460000000  0.5686440000000 1.0
C      1  0.4378750000000  0.4268530000000  0.5742500000000 1.0
C      1  0.4974680000000  0.4081590000000  0.5301080000000 1.0
C      1  0.4503570000000  0.3953110000000  0.5263050000000 1.0
C      1  0.5540800000000  0.5011910000000  0.3939440000000 1.0
C      1  0.5029170000000  0.5855830000000  0.5019890000000 1.0
C      1  0.5061830000000  0.4901310000000  0.3874420000000 1.0
C      1  0.5027880000000  0.4009510000000  0.5010190000000 1.0
C      1  0.5840020000000  0.5199400000000  0.5451740000000 1.0
C      1  0.4694320000000  0.4873160000000  0.4604350000000 1.0
C      1  0.3997010000000  0.4733200000000  0.4456000000000 1.0
C      1  0.5522290000000  0.4884610000000  0.5696130000000 1.0
C      1  0.5303650000000  0.3918470000000  0.4938950000000 1.0
C      1  0.4846270000000  0.4884700000000  0.6118310000000 1.0
C      1  0.4624620000000  0.4797380000000  0.4156720000000 1.0
C      1  0.5752130000000  0.4312490000000  0.4967420000000 1.0
C      1  0.5881920000000  0.5654490000000  0.5215950000000 1.0
C      1  0.4793940000000  0.5164080000000  0.5120930000000 1.0
C      1  0.4334850000000  0.5677550000000  0.5766940000000 1.0
C      1  0.5155580000000  0.5871430000000  0.4160620000000 1.0
C      1  0.5185400000000  0.4242230000000  0.5447120000000 1.0
C      1  0.5516770000000  0.5519690000000  0.5005590000000 1.0
C      1  0.4766950000000  0.4667240000000  0.4803930000000 1.0
C      1  0.6004480000000  0.5403080000000  0.5091110000000 1.0
C      1  0.4979350000000  0.4369920000000  0.4296130000000 1.0
C      1  0.5075570000000  0.4199650000000  0.4537070000000 1.0
C      1  0.5071650000000  0.5178360000000  0.5180380000000 1.0
C      1  0.5124340000000  0.5434850000000  0.5299930000000 1.0
C      1  0.5786850000000  0.4984330000000  0.4936830000000 1.0
C      1  0.5618240000000  0.4708690000000  0.4304590000000 1.0
C      1  0.5499600000000  0.5979840000000  0.5163630000000 1.0
C      1  0.5501960000000  0.4960440000000  0.5078030000000 1.0
C      1  0.4251300000000  0.4293630000000  0.5483220000000 1.0
C      1  0.5679230000000  0.4965260000000  0.4463360000000 1.0
C      1  0.5482270000000  0.4650670000000  0.5514340000000 1.0
C      1  0.4781690000000  0.4973730000000  0.3948130000000 1.0
C      1  0.5273350000000  0.5114640000000  0.3992420000000 1.0
C      1  0.5462290000000  0.4012860000000  0.4693560000000 1.0
C      1  0.5322010000000  0.5126440000000  0.5704340000000 1.0
C      1  0.5505460000000  0.5461080000000  0.5996250000000 1.0
C      1  0.5756330000000  0.5430780000000  0.4311610000000 1.0
C      1  0.3930600000000  0.5519720000000  0.4722540000000 1.0
C      1  0.4967500000000  0.6174200000000  0.5278220000000 1.0
C      1  0.5525100000000  0.4710510000000  0.5952500000000 1.0
C      1  0.4257380000000  0.4101520000000  0.5273990000000 1.0
C      1  0.4792340000000  0.4519810000000  0.6030010000000 1.0
C      1  0.5311650000000  0.4041260000000  0.4439460000000 1.0
C      1  0.4691550000000  0.5312240000000  0.5881480000000 1.0
C      1  0.4107120000000  0.5450260000000  0.4504360000000 1.0
C      1  0.5848240000000  0.4572890000000  0.5397310000000 1.0
C      1  0.5051720000000  0.6025780000000  0.4442100000000 1.0
C      1  0.4294400000000  0.4111870000000  0.4786120000000 1.0
C      1  0.5244850000000  0.4665210000000  0.4067740000000 1.0
C      1  0.4647630000000  0.5917800000000  0.4690520000000 1.0
C      1  0.3945290000000  0.4934000000000  0.5201930000000 1.0
C      1  0.5082600000000  0.5977170000000  0.5442730000000 1.0
C      1  0.4337640000000  0.4998600000000  0.4325260000000 1.0
C      1  0.4050340000000  0.5359040000000  0.5438610000000 1.0
C      1  0.4408520000000  0.4935400000000  0.4614460000000 1.0
C      1  0.5526590000000  0.4748430000000  0.4034450000000 1.0
C      1  0.4507430000000  0.4891250000000  0.5396590000000 1.0
C      1  0.5794390000000  0.4951690000000  0.5619590000000 1.0
C      1  0.5270500000000  0.4438100000000  0.4773420000000 1.0
C      1  0.4360470000000  0.4796950000000  0.5120610000000 1.0
C      1  0.4091260000000  0.5166780000000  0.4407570000000 1.0
C      1  0.4399810000000  0.5352250000000  0.5265110000000 1.0
C      1  0.4799960000000  0.3949850000000  0.4833240000000 1.0
C      1  0.5593170000000  0.4428420000000  0.4427140000000 1.0
C      1  0.5023790000000  0.4716620000000  0.5208400000000 1.0
C      1  0.4128070000000  0.4187200000000  0.5017930000000 1.0
C      1  0.5153030000000  0.4775010000000  0.4349530000000 1.0
C      1  0.4516110000000  0.4875720000000  0.5785470000000 1.0
C      1  0.5222910000000  0.4365520000000  0.4089940000000 1.0
C      1  0.4433210000000  0.4460150000000  0.4478080000000 1.0
C      1  0.4670010000000  0.4426020000000  0.5459040000000 1.0
C      1  0.4593910000000  0.4216360000000  0.4145980000000 1.0
C      1  0.4410530000000  0.5304350000000  0.4960490000000 1.0
C      1  0.5124010000000  0.4414760000000  0.5717740000000 1.0
C      1  0.4367460000000  0.5845150000000  0.4685810000000 1.0
C      1  0.5443070000000  0.4237370000000  0.4256370000000 1.0
C      1  0.5885380000000  0.5427140000000  0.5644690000000 1.0
C      1  0.5967990000000  0.4742720000000  0.5717700000000 1.0
C      1  0.5632130000000  0.4365510000000  0.5713790000000 1.0
C      1  0.4293490000000  0.5032760000000  0.4893500000000 1.0
C      1  0.5789170000000  0.4819050000000  0.4697470000000 1.0
C      1  0.6008870000000  0.4451250000000  0.4960040000000 1.0
C      1  0.4326090000000  0.5739980000000  0.5497410000000 1.0
C      1  0.4051390000000  0.5672320000000  0.5058120000000 1.0
C      1  0.5206880000000  0.5580970000000  0.5041590000000 1.0
C      1  0.4863530000000  0.5530660000000  0.5465330000000 1.0
C      1  0.5450620000000  0.3945930000000  0.5176070000000 1.0
C      1  0.5341660000000  0.5812370000000  0.4551360000000 1.0
C      1  0.4616630000000  0.5161810000000  0.5359820000000 1.0
C      1  0.4804180000000  0.5233040000000  0.4097730000000 1.0
C      1  0.5548530000000  0.4301660000000  0.4726930000000 1.0
C      1  0.5675870000000  0.5777180000000  0.5024630000000 1.0
END
