TITL C-950530-3293-596 -1.51814503010568e-06 125000 -845.027454284734 0 0 135 (C1) n - 1
REM
REM in /home/bkarasulu/work/CARBON/AIRSS/Generating-Clusters/EDIP-Nigel-Params/with-SteepDescent/Only-C1/SD-CG/HFTN-CG
REM
REM
REM
REM
REM
REM ./C.cell (11c1c37f851c82e70ff6c80c92926a4b)
REM
REM compiler GCC version 9.2.1 20190827 (Red Hat 9.2.1-1)
REM options -cpp -mtune=generic -march=x86-64 -g -O0 -fpre-include=/usr/include/finclude/math-vector-fortran.h
REM seed 1972936747 -733562255 -2033404418 1286703429 -299085656 -280817158 428554839 436660873 1721708986 16239864 2045972386 -75404343 1318339477 1530644698 -284024258 -1915887305 -1969478724 -424194557 1667314729 -222312392 1608902533 1624221681 -1594956065 -791844127 -905146278 1827076270 -1874041773 -1538914182 167559577 -517095109 556659624 751178628 3438994
REM
CELL 1.54180   50.00000   50.00000   50.00000   90.00000   90.00000   90.00000
LATT -1
SFAC C  
C      1  0.5042280000000  0.5202840000000  0.4935700000000 1.0
C      1  0.4197750000000  0.4756160000000  0.5694380000000 1.0
C      1  0.5101030000000  0.4936620000000  0.4776180000000 1.0
C      1  0.5955760000000  0.5408410000000  0.4726650000000 1.0
C      1  0.5101940000000  0.5010230000000  0.4493940000000 1.0
C      1  0.4067010000000  0.4623260000000  0.5478010000000 1.0
C      1  0.5021630000000  0.4109450000000  0.4277620000000 1.0
C      1  0.5297240000000  0.4684500000000  0.5105720000000 1.0
C      1  0.4411150000000  0.5461930000000  0.4570440000000 1.0
C      1  0.4192980000000  0.4427690000000  0.5310780000000 1.0
C      1  0.4686250000000  0.4032300000000  0.5169940000000 1.0
C      1  0.5163470000000  0.6014200000000  0.5084540000000 1.0
C      1  0.5929380000000  0.4551820000000  0.4695970000000 1.0
C      1  0.4793110000000  0.5136080000000  0.4033980000000 1.0
C      1  0.5148350000000  0.5484160000000  0.5825420000000 1.0
C      1  0.4950100000000  0.4362240000000  0.4667140000000 1.0
C      1  0.4037080000000  0.5019780000000  0.5279740000000 1.0
C      1  0.5857990000000  0.5273050000000  0.4472670000000 1.0
C      1  0.4573630000000  0.5040940000000  0.4239920000000 1.0
C      1  0.5260090000000  0.5700010000000  0.4350010000000 1.0
C      1  0.4557920000000  0.4869640000000  0.5471390000000 1.0
C      1  0.5718720000000  0.5573590000000  0.4771710000000 1.0
C      1  0.5540600000000  0.4426280000000  0.5355920000000 1.0
C      1  0.4885850000000  0.4190670000000  0.5571200000000 1.0
C      1  0.4638950000000  0.4775950000000  0.4584810000000 1.0
C      1  0.5139730000000  0.4840910000000  0.4244980000000 1.0
C      1  0.5921920000000  0.5268830000000  0.5600690000000 1.0
C      1  0.5453190000000  0.5098030000000  0.5805620000000 1.0
C      1  0.5559550000000  0.4238020000000  0.4355610000000 1.0
C      1  0.4629720000000  0.4145880000000  0.5438470000000 1.0
C      1  0.5536350000000  0.5197690000000  0.4126180000000 1.0
C      1  0.4889730000000  0.4568110000000  0.5186660000000 1.0
C      1  0.5658210000000  0.5397400000000  0.4298920000000 1.0
C      1  0.5577240000000  0.5046270000000  0.4933660000000 1.0
C      1  0.4427940000000  0.4847470000000  0.5021160000000 1.0
C      1  0.5637760000000  0.4922650000000  0.4210870000000 1.0
C      1  0.4688990000000  0.4707390000000  0.5923640000000 1.0
C      1  0.4731240000000  0.5213840000000  0.4976270000000 1.0
C      1  0.4497310000000  0.5770680000000  0.4968380000000 1.0
C      1  0.3996800000000  0.5308610000000  0.5233610000000 1.0
C      1  0.4059320000000  0.5101110000000  0.4619190000000 1.0
C      1  0.4913320000000  0.4344370000000  0.4963530000000 1.0
C      1  0.5488110000000  0.5378280000000  0.4868740000000 1.0
C      1  0.4364290000000  0.4317790000000  0.4830140000000 1.0
C      1  0.4591570000000  0.4316690000000  0.4350510000000 1.0
C      1  0.4094320000000  0.5464580000000  0.5480850000000 1.0
C      1  0.5118920000000  0.4149960000000  0.4558470000000 1.0
C      1  0.5302530000000  0.4928480000000  0.5309970000000 1.0
C      1  0.5392780000000  0.4825450000000  0.5674050000000 1.0
C      1  0.5403080000000  0.4220450000000  0.4591080000000 1.0
C      1  0.4208940000000  0.5324260000000  0.4732200000000 1.0
C      1  0.5115790000000  0.4531570000000  0.5401890000000 1.0
C      1  0.5217770000000  0.5218990000000  0.5936910000000 1.0
C      1  0.4350930000000  0.4365660000000  0.4528400000000 1.0
C      1  0.4986920000000  0.4007220000000  0.5151070000000 1.0
C      1  0.5103070000000  0.4090040000000  0.5418210000000 1.0
C      1  0.4264860000000  0.5678160000000  0.5100510000000 1.0
C      1  0.3909690000000  0.4849240000000  0.5094840000000 1.0
C      1  0.4918380000000  0.4310960000000  0.5818840000000 1.0
C      1  0.4768020000000  0.4988550000000  0.5886380000000 1.0
C      1  0.5377210000000  0.5913930000000  0.4907330000000 1.0
C      1  0.4693120000000  0.5927280000000  0.5127990000000 1.0
C      1  0.5573520000000  0.5039700000000  0.5239880000000 1.0
C      1  0.4810100000000  0.5013950000000  0.5593150000000 1.0
C      1  0.4299870000000  0.5301350000000  0.5626570000000 1.0
C      1  0.4860260000000  0.4757500000000  0.4828130000000 1.0
C      1  0.4951230000000  0.4583730000000  0.5862460000000 1.0
C      1  0.5958910000000  0.4998050000000  0.5551830000000 1.0
C      1  0.5353630000000  0.4229790000000  0.5464440000000 1.0
C      1  0.4714700000000  0.4920190000000  0.5027850000000 1.0
C      1  0.4719230000000  0.5830470000000  0.4527310000000 1.0
C      1  0.5431920000000  0.5497000000000  0.5143480000000 1.0
C      1  0.5084380000000  0.4738370000000  0.5633240000000 1.0
C      1  0.4262860000000  0.5687940000000  0.5387540000000 1.0
C      1  0.4857360000000  0.5513210000000  0.5759020000000 1.0
C      1  0.5420890000000  0.4724900000000  0.4251390000000 1.0
C      1  0.4770980000000  0.5764480000000  0.5658050000000 1.0
C      1  0.5334000000000  0.5814610000000  0.5510710000000 1.0
C      1  0.4535210000000  0.4131270000000  0.4952410000000 1.0
C      1  0.5116670000000  0.5439180000000  0.4246510000000 1.0
C      1  0.4219540000000  0.5035610000000  0.5684690000000 1.0
C      1  0.5204850000000  0.5426370000000  0.4748550000000 1.0
C      1  0.5675440000000  0.5771690000000  0.4571030000000 1.0
C      1  0.4454510000000  0.4604780000000  0.5735030000000 1.0
C      1  0.4632350000000  0.4611120000000  0.5333140000000 1.0
C      1  0.5613570000000  0.5327040000000  0.5307700000000 1.0
C      1  0.5643360000000  0.4409970000000  0.5073180000000 1.0
C      1  0.5368960000000  0.4833590000000  0.4857640000000 1.0
C      1  0.4936420000000  0.5856520000000  0.4698080000000 1.0
C      1  0.5318390000000  0.5520530000000  0.5576120000000 1.0
C      1  0.5539110000000  0.5776160000000  0.5120580000000 1.0
C      1  0.5416930000000  0.4431220000000  0.4200170000000 1.0
C      1  0.4346480000000  0.5008550000000  0.5258430000000 1.0
C      1  0.6016450000000  0.5245450000000  0.4979110000000 1.0
C      1  0.5886130000000  0.4977250000000  0.4912620000000 1.0
C      1  0.5889710000000  0.4528250000000  0.4978930000000 1.0
C      1  0.4467820000000  0.5270920000000  0.5158370000000 1.0
C      1  0.4245440000000  0.4634040000000  0.4436070000000 1.0
C      1  0.5564620000000  0.5902160000000  0.5375640000000 1.0
C      1  0.4386670000000  0.4922460000000  0.4737540000000 1.0
C      1  0.4007110000000  0.4669240000000  0.4903570000000 1.0
C      1  0.5949810000000  0.4775280000000  0.5125730000000 1.0
C      1  0.5145090000000  0.5168120000000  0.5211910000000 1.0
C      1  0.4806050000000  0.5413890000000  0.4186410000000 1.0
C      1  0.5616560000000  0.4660760000000  0.5520240000000 1.0
C      1  0.5168190000000  0.5285850000000  0.4490450000000 1.0
C      1  0.5206140000000  0.5739500000000  0.4662290000000 1.0
C      1  0.5628000000000  0.5320170000000  0.5696070000000 1.0
C      1  0.4822150000000  0.5328920000000  0.5522870000000 1.0
C      1  0.5259060000000  0.5266670000000  0.4032980000000 1.0
C      1  0.4525630000000  0.5407960000000  0.5421150000000 1.0
C      1  0.5217960000000  0.4305320000000  0.5053350000000 1.0
C      1  0.5126240000000  0.4364630000000  0.4146460000000 1.0
C      1  0.5109040000000  0.5425000000000  0.5352710000000 1.0
C      1  0.5936590000000  0.4830910000000  0.4657990000000 1.0
C      1  0.4733180000000  0.4079360000000  0.4279500000000 1.0
C      1  0.5078930000000  0.5026740000000  0.4007200000000 1.0
C      1  0.5913520000000  0.5370940000000  0.5247430000000 1.0
C      1  0.4112890000000  0.4803790000000  0.4652670000000 1.0
C      1  0.4829350000000  0.5862840000000  0.5398610000000 1.0
C      1  0.4962760000000  0.4596670000000  0.4233500000000 1.0
C      1  0.5844990000000  0.4984050000000  0.4427920000000 1.0
C      1  0.4424860000000  0.4787250000000  0.4256540000000 1.0
C      1  0.4574480000000  0.5317350000000  0.4371250000000 1.0
C      1  0.4464360000000  0.4397530000000  0.5448310000000 1.0
C      1  0.4517960000000  0.5710960000000  0.4679330000000 1.0
C      1  0.4214160000000  0.5397090000000  0.5032420000000 1.0
C      1  0.4193600000000  0.4471980000000  0.5014250000000 1.0
C      1  0.5000990000000  0.5062070000000  0.6020590000000 1.0
C      1  0.4908260000000  0.6010960000000  0.4942270000000 1.0
C      1  0.5789300000000  0.4855330000000  0.5368720000000 1.0
C      1  0.4784450000000  0.4513500000000  0.4460520000000 1.0
C      1  0.5555680000000  0.5670910000000  0.4338910000000 1.0
C      1  0.5461570000000  0.4272590000000  0.4877440000000 1.0
C      1  0.5109780000000  0.5869890000000  0.5332230000000 1.0
END
