TITL C-951339-9237-167 -3.12875565137351e-07 125000 -238.949389688762 0 0 40 (C1) n - 1
REM
REM in /home/bkarasulu/work/CARBON/AIRSS/Generating-Clusters/EDIP-Nigel-Params/with-SteepDescent/Only-C1/SD-CG/HFTN-CG
REM
REM
REM
REM
REM
REM ./C.cell (11c1c37f851c82e70ff6c80c92926a4b)
REM
REM compiler GCC version 9.2.1 20190827 (Red Hat 9.2.1-1)
REM options -cpp -mtune=generic -march=x86-64 -g -O0 -fpre-include=/usr/include/finclude/math-vector-fortran.h
REM seed 1034714953 1059489142 -1696035022 884360812 2096905131 -2034475406 -1771588665 2078208999 367851604 1391490978 -168245850 109117157 -1565087696 -1617951212 -551630414 -1160307996 -278176014 964973991 2118899359 1627153187 -1839665737 -1729632813 733560563 -1406619210 837093835 -890422410 2121480204 -1687787140 -1444197262 491887580 1147698643 -103427250 346321725
REM
CELL 1.54180   50.00000   50.00000   50.00000   90.00000   90.00000   90.00000
LATT -1
SFAC C  
C      1  0.5040480000000  0.4471980000000  0.5437060000000 1.0
C      1  0.4839890000000  0.5590010000000  0.4717990000000 1.0
C      1  0.5344540000000  0.4512730000000  0.4894650000000 1.0
C      1  0.4654010000000  0.5488050000000  0.4936920000000 1.0
C      1  0.5079980000000  0.4687870000000  0.5616660000000 1.0
C      1  0.4528480000000  0.4905780000000  0.4977160000000 1.0
C      1  0.5330340000000  0.4930400000000  0.5023630000000 1.0
C      1  0.5096360000000  0.4387390000000  0.4876870000000 1.0
C      1  0.5276410000000  0.4618120000000  0.4434170000000 1.0
C      1  0.4490020000000  0.4980730000000  0.5261490000000 1.0
C      1  0.4505070000000  0.5253260000000  0.5335640000000 1.0
C      1  0.4860520000000  0.5390200000000  0.4473100000000 1.0
C      1  0.5177360000000  0.5438640000000  0.5204170000000 1.0
C      1  0.4821230000000  0.4820130000000  0.4906400000000 1.0
C      1  0.5022560000000  0.4703220000000  0.4460450000000 1.0
C      1  0.4809230000000  0.5120050000000  0.4513100000000 1.0
C      1  0.4635960000000  0.4789890000000  0.5424690000000 1.0
C      1  0.4985320000000  0.5229030000000  0.5237980000000 1.0
C      1  0.5521910000000  0.5026370000000  0.4817710000000 1.0
C      1  0.5299370000000  0.4871400000000  0.5552820000000 1.0
C      1  0.4283180000000  0.5302030000000  0.4776760000000 1.0
C      1  0.4718580000000  0.5355210000000  0.5189100000000 1.0
C      1  0.5591360000000  0.5507410000000  0.4953850000000 1.0
C      1  0.5484120000000  0.4795640000000  0.5347690000000 1.0
C      1  0.5448380000000  0.4583300000000  0.5157440000000 1.0
C      1  0.5311580000000  0.5516460000000  0.4974330000000 1.0
C      1  0.4869500000000  0.4515030000000  0.4981860000000 1.0
C      1  0.5657810000000  0.5261590000000  0.4867680000000 1.0
C      1  0.5158000000000  0.5630320000000  0.4756970000000 1.0
C      1  0.4383010000000  0.5528980000000  0.4880560000000 1.0
C      1  0.4858230000000  0.4883400000000  0.5601040000000 1.0
C      1  0.4823910000000  0.4423690000000  0.5261600000000 1.0
C      1  0.5016770000000  0.5117650000000  0.5516220000000 1.0
C      1  0.4366190000000  0.5048070000000  0.4798950000000 1.0
C      1  0.5454920000000  0.4621060000000  0.4648490000000 1.0
C      1  0.4583510000000  0.4514910000000  0.5376490000000 1.0
C      1  0.5138890000000  0.5485220000000  0.4498500000000 1.0
C      1  0.4849380000000  0.4861890000000  0.4607280000000 1.0
C      1  0.5039060000000  0.5006450000000  0.5035810000000 1.0
C      1  0.5644570000000  0.4826430000000  0.4666720000000 1.0
END
