TITL C-950525-1983-341 -2.82480304374216e-06 125000 -609.042287921271 0 0 98 (C1) n - 1
REM
REM in /home/bkarasulu/work/CARBON/AIRSS/Generating-Clusters/EDIP-Nigel-Params/with-SteepDescent/Only-C1/SD-CG/HFTN-CG
REM
REM
REM
REM
REM
REM ./C.cell (11c1c37f851c82e70ff6c80c92926a4b)
REM
REM compiler GCC version 9.2.1 20190827 (Red Hat 9.2.1-1)
REM options -cpp -mtune=generic -march=x86-64 -g -O0 -fpre-include=/usr/include/finclude/math-vector-fortran.h
REM seed -1919759189 -1123204471 511089566 2139166410 -1674595634 -1078235588 -1169018619 594658654 -1893829521 -96954453 -117291060 -991980369 1510059677 262915172 1548676631 -1603858504 -2140433546 834792772 2070295748 -9707820 -1203195272 -1335864769 802741356 -2042083634 -2102294658 1082529463 -455960923 2095398681 1782412423 -782937596 50294770 68632681 -2090753511
REM
CELL 1.54180   50.00000   50.00000   50.00000   90.00000   90.00000   90.00000
LATT -1
SFAC C  
C      1  0.4644600000000  0.5494580000000  0.5633850000000 1.0
C      1  0.5104230000000  0.4126430000000  0.5309840000000 1.0
C      1  0.5868170000000  0.4832090000000  0.4722010000000 1.0
C      1  0.5080120000000  0.5437500000000  0.4483080000000 1.0
C      1  0.5175440000000  0.4719350000000  0.4803250000000 1.0
C      1  0.4375340000000  0.4367810000000  0.4776150000000 1.0
C      1  0.4770950000000  0.5821550000000  0.4576220000000 1.0
C      1  0.4967030000000  0.4770600000000  0.5023150000000 1.0
C      1  0.5032830000000  0.5793040000000  0.5008650000000 1.0
C      1  0.4770060000000  0.4345390000000  0.4507380000000 1.0
C      1  0.5129890000000  0.5627270000000  0.5615470000000 1.0
C      1  0.4299760000000  0.4313890000000  0.5069180000000 1.0
C      1  0.4424050000000  0.5574670000000  0.4875900000000 1.0
C      1  0.4538710000000  0.4736530000000  0.5662370000000 1.0
C      1  0.4289260000000  0.4800990000000  0.5072820000000 1.0
C      1  0.5024090000000  0.4167240000000  0.5042530000000 1.0
C      1  0.4581790000000  0.5364550000000  0.4196660000000 1.0
C      1  0.5347640000000  0.4569410000000  0.5299210000000 1.0
C      1  0.4347780000000  0.4593590000000  0.4565900000000 1.0
C      1  0.5566610000000  0.5465060000000  0.4546790000000 1.0
C      1  0.4603560000000  0.4602320000000  0.4415920000000 1.0
C      1  0.5673530000000  0.4445400000000  0.5021540000000 1.0
C      1  0.5499840000000  0.5351410000000  0.5474790000000 1.0
C      1  0.5318310000000  0.5808650000000  0.5511310000000 1.0
C      1  0.5370100000000  0.4861880000000  0.5237700000000 1.0
C      1  0.5497930000000  0.4543760000000  0.4548650000000 1.0
C      1  0.4609020000000  0.4315770000000  0.5442320000000 1.0
C      1  0.5504700000000  0.5657640000000  0.5093460000000 1.0
C      1  0.5154980000000  0.4892590000000  0.4040180000000 1.0
C      1  0.5184420000000  0.4281270000000  0.4824610000000 1.0
C      1  0.5036740000000  0.5134210000000  0.4105970000000 1.0
C      1  0.4833650000000  0.4361660000000  0.5626350000000 1.0
C      1  0.4120640000000  0.5244460000000  0.5025210000000 1.0
C      1  0.5129440000000  0.5304590000000  0.5039720000000 1.0
C      1  0.5003420000000  0.5916560000000  0.4735690000000 1.0
C      1  0.4217250000000  0.4851760000000  0.4638690000000 1.0
C      1  0.4749570000000  0.5196170000000  0.4765390000000 1.0
C      1  0.5509790000000  0.5642790000000  0.5386400000000 1.0
C      1  0.5740740000000  0.4737750000000  0.4981060000000 1.0
C      1  0.5454220000000  0.4418310000000  0.4816690000000 1.0
C      1  0.5686220000000  0.5308900000000  0.4786040000000 1.0
C      1  0.4617710000000  0.4215030000000  0.4725250000000 1.0
C      1  0.5599200000000  0.4987730000000  0.5397680000000 1.0
C      1  0.5327640000000  0.4467440000000  0.5578340000000 1.0
C      1  0.4535010000000  0.4163970000000  0.5195520000000 1.0
C      1  0.4803700000000  0.5681850000000  0.5206860000000 1.0
C      1  0.4252200000000  0.4558670000000  0.5239150000000 1.0
C      1  0.4909930000000  0.5021700000000  0.5402490000000 1.0
C      1  0.4079190000000  0.4795680000000  0.4871570000000 1.0
C      1  0.4992580000000  0.5191310000000  0.4632710000000 1.0
C      1  0.4197280000000  0.5052850000000  0.5215340000000 1.0
C      1  0.4935480000000  0.4728080000000  0.5969420000000 1.0
C      1  0.4428310000000  0.4536860000000  0.5474530000000 1.0
C      1  0.4530230000000  0.5761740000000  0.4700240000000 1.0
C      1  0.5646580000000  0.4800080000000  0.4510040000000 1.0
C      1  0.5934270000000  0.5121230000000  0.4802260000000 1.0
C      1  0.5456420000000  0.4848810000000  0.4947420000000 1.0
C      1  0.5182870000000  0.4676420000000  0.4193880000000 1.0
C      1  0.5096110000000  0.4994490000000  0.5180500000000 1.0
C      1  0.4241870000000  0.5347830000000  0.4793380000000 1.0
C      1  0.5207800000000  0.5338570000000  0.4235240000000 1.0
C      1  0.4740490000000  0.4136110000000  0.4982010000000 1.0
C      1  0.5099790000000  0.4261600000000  0.5559530000000 1.0
C      1  0.4869200000000  0.5618830000000  0.4414650000000 1.0
C      1  0.5363770000000  0.4728620000000  0.5749260000000 1.0
C      1  0.4852510000000  0.5680190000000  0.5521540000000 1.0
C      1  0.5427440000000  0.5021970000000  0.4524780000000 1.0
C      1  0.5225340000000  0.5348420000000  0.5617310000000 1.0
C      1  0.5247890000000  0.5579580000000  0.4951400000000 1.0
C      1  0.4747280000000  0.5159590000000  0.4108770000000 1.0
C      1  0.4445280000000  0.5442840000000  0.5410250000000 1.0
C      1  0.5578640000000  0.4401520000000  0.5290240000000 1.0
C      1  0.4421620000000  0.5175480000000  0.4320390000000 1.0
C      1  0.5295590000000  0.5592590000000  0.4640090000000 1.0
C      1  0.4780630000000  0.4612540000000  0.5768830000000 1.0
C      1  0.5456690000000  0.5120530000000  0.4809530000000 1.0
C      1  0.4796260000000  0.4720500000000  0.4626370000000 1.0
C      1  0.4660560000000  0.4783130000000  0.4941050000000 1.0
C      1  0.4619200000000  0.5073430000000  0.4980490000000 1.0
C      1  0.5968180000000  0.5126970000000  0.5115290000000 1.0
C      1  0.5059600000000  0.4369210000000  0.4574870000000 1.0
C      1  0.5839820000000  0.4890450000000  0.5227730000000 1.0
C      1  0.5476740000000  0.5261610000000  0.4341110000000 1.0
C      1  0.5717970000000  0.5482270000000  0.5024290000000 1.0
C      1  0.4873210000000  0.5400210000000  0.5138920000000 1.0
C      1  0.5247550000000  0.5876360000000  0.4584630000000 1.0
C      1  0.4323270000000  0.5166820000000  0.5456970000000 1.0
C      1  0.4726260000000  0.5223960000000  0.5749400000000 1.0
C      1  0.5584970000000  0.4877170000000  0.5660090000000 1.0
C      1  0.5015900000000  0.5125610000000  0.5665910000000 1.0
C      1  0.5244110000000  0.4520460000000  0.4412770000000 1.0
C      1  0.5817090000000  0.5340240000000  0.5248660000000 1.0
C      1  0.4495080000000  0.5633000000000  0.5159470000000 1.0
C      1  0.4697530000000  0.5193180000000  0.5251400000000 1.0
C      1  0.4525650000000  0.5028440000000  0.5624580000000 1.0
C      1  0.5114270000000  0.4920560000000  0.4548720000000 1.0
C      1  0.5124390000000  0.4884680000000  0.5834300000000 1.0
C      1  0.4309440000000  0.5131590000000  0.4584450000000 1.0
END
