TITL C-951335-1172-749 -1.37216787476689e-06 125000 -466.018483390975 0 0 76 (C1) n - 1
REM
REM in /home/bkarasulu/work/CARBON/AIRSS/Generating-Clusters/EDIP-Nigel-Params/with-SteepDescent/Only-C1/SD-CG/HFTN-CG
REM
REM
REM
REM
REM
REM ./C.cell (11c1c37f851c82e70ff6c80c92926a4b)
REM
REM compiler GCC version 9.2.1 20190827 (Red Hat 9.2.1-1)
REM options -cpp -mtune=generic -march=x86-64 -g -O0 -fpre-include=/usr/include/finclude/math-vector-fortran.h
REM seed 935909925 -1310773145 363188634 853852013 -1779622031 1460272094 1971908819 -1332298240 812689508 -1089022681 -1407970756 -40806709 1149176813 1255646284 1053942022 -581627756 -1642957407 -1891300792 -1236469705 -253095683 -675233277 56937014 -2062715014 571513936 1152491746 2073516153 -2126551036 1920606942 -2060315995 62922082 -1777866378 -1787684058 -2082833699
REM
CELL 1.54180   50.00000   50.00000   50.00000   90.00000   90.00000   90.00000
LATT -1
SFAC C  
C      1  0.4208760000000  0.5505250000000  0.5356750000000 1.0
C      1  0.5057990000000  0.4891950000000  0.5093580000000 1.0
C      1  0.4314860000000  0.5638430000000  0.5006970000000 1.0
C      1  0.4305070000000  0.5252580000000  0.5491630000000 1.0
C      1  0.4512850000000  0.4968880000000  0.4467240000000 1.0
C      1  0.4484960000000  0.5091290000000  0.4892420000000 1.0
C      1  0.4380030000000  0.4748090000000  0.5375760000000 1.0
C      1  0.5461770000000  0.4625150000000  0.5485700000000 1.0
C      1  0.5353100000000  0.5310310000000  0.5555020000000 1.0
C      1  0.5647470000000  0.4464810000000  0.5079500000000 1.0
C      1  0.4531600000000  0.4681680000000  0.4472120000000 1.0
C      1  0.4416970000000  0.4305570000000  0.4806280000000 1.0
C      1  0.5226360000000  0.4249440000000  0.5302260000000 1.0
C      1  0.5219280000000  0.5194200000000  0.4646030000000 1.0
C      1  0.4765820000000  0.5211020000000  0.4873180000000 1.0
C      1  0.5411300000000  0.5038180000000  0.5157710000000 1.0
C      1  0.5532860000000  0.5499820000000  0.4939400000000 1.0
C      1  0.5633440000000  0.5066860000000  0.4443350000000 1.0
C      1  0.4318390000000  0.5151600000000  0.5114200000000 1.0
C      1  0.4892990000000  0.4903490000000  0.5733210000000 1.0
C      1  0.4605000000000  0.5445990000000  0.4350100000000 1.0
C      1  0.5572390000000  0.4659470000000  0.4690060000000 1.0
C      1  0.4845950000000  0.5468290000000  0.4520070000000 1.0
C      1  0.4892200000000  0.4773050000000  0.4573320000000 1.0
C      1  0.5065190000000  0.5360360000000  0.5561760000000 1.0
C      1  0.4753800000000  0.5529010000000  0.4809860000000 1.0
C      1  0.5542900000000  0.4903660000000  0.5421850000000 1.0
C      1  0.5456050000000  0.5061360000000  0.5669620000000 1.0
C      1  0.4961810000000  0.5736330000000  0.4928430000000 1.0
C      1  0.5823470000000  0.4868940000000  0.5351640000000 1.0
C      1  0.4548730000000  0.4537350000000  0.4724160000000 1.0
C      1  0.5080920000000  0.4612770000000  0.4402840000000 1.0
C      1  0.4838270000000  0.4557150000000  0.5348550000000 1.0
C      1  0.5144300000000  0.4355070000000  0.4498400000000 1.0
C      1  0.4988660000000  0.4087950000000  0.4874200000000 1.0
C      1  0.4912130000000  0.5086010000000  0.4188320000000 1.0
C      1  0.5534580000000  0.5445340000000  0.5376350000000 1.0
C      1  0.5266110000000  0.5432190000000  0.4827730000000 1.0
C      1  0.4860560000000  0.4689630000000  0.5080540000000 1.0
C      1  0.5122810000000  0.5682660000000  0.5182120000000 1.0
C      1  0.4814370000000  0.4132600000000  0.5089400000000 1.0
C      1  0.5242350000000  0.4647620000000  0.5669120000000 1.0
C      1  0.5160150000000  0.5701700000000  0.4717120000000 1.0
C      1  0.5743600000000  0.5100860000000  0.4720950000000 1.0
C      1  0.5364590000000  0.5199700000000  0.4393240000000 1.0
C      1  0.4830890000000  0.4569830000000  0.4805200000000 1.0
C      1  0.4674750000000  0.5513790000000  0.5361730000000 1.0
C      1  0.5634380000000  0.5246360000000  0.5058420000000 1.0
C      1  0.5042900000000  0.5673000000000  0.4460040000000 1.0
C      1  0.5290680000000  0.4765040000000  0.4263030000000 1.0
C      1  0.4586150000000  0.4620330000000  0.5507960000000 1.0
C      1  0.5594930000000  0.4399620000000  0.4803710000000 1.0
C      1  0.4337220000000  0.5076830000000  0.4654780000000 1.0
C      1  0.4476730000000  0.5626850000000  0.4770130000000 1.0
C      1  0.4240830000000  0.4985940000000  0.5335460000000 1.0
C      1  0.4956590000000  0.5579130000000  0.5405250000000 1.0
C      1  0.5002880000000  0.4331000000000  0.4737690000000 1.0
C      1  0.4845970000000  0.5185040000000  0.5646260000000 1.0
C      1  0.5447690000000  0.5650610000000  0.5186300000000 1.0
C      1  0.4944170000000  0.4270430000000  0.5315930000000 1.0
C      1  0.5268180000000  0.4897240000000  0.5829580000000 1.0
C      1  0.4931430000000  0.5100840000000  0.4619860000000 1.0
C      1  0.4387370000000  0.5528390000000  0.4518240000000 1.0
C      1  0.5551430000000  0.4776310000000  0.4418380000000 1.0
C      1  0.4552790000000  0.4205150000000  0.5018220000000 1.0
C      1  0.4438190000000  0.5664980000000  0.5270190000000 1.0
C      1  0.5187990000000  0.5303130000000  0.5144030000000 1.0
C      1  0.5197040000000  0.5042870000000  0.4194280000000 1.0
C      1  0.5687010000000  0.4855620000000  0.4861960000000 1.0
C      1  0.5795930000000  0.4728580000000  0.5100470000000 1.0
C      1  0.4647100000000  0.4748580000000  0.5752820000000 1.0
C      1  0.4650810000000  0.5151940000000  0.4281950000000 1.0
C      1  0.5017560000000  0.4735260000000  0.5505860000000 1.0
C      1  0.4940280000000  0.5148250000000  0.5102560000000 1.0
C      1  0.5424700000000  0.4444520000000  0.5268680000000 1.0
C      1  0.4598670000000  0.5300850000000  0.5538970000000 1.0
END
