TITL C-951343-2256-337 -6.23245153995231e-06 125000 -1178.44257718301 0 0 188 (C1) n - 1
REM
REM in /home/bkarasulu/work/CARBON/AIRSS/Generating-Clusters/EDIP-Nigel-Params/with-SteepDescent/Only-C1/SD-CG/HFTN-CG
REM
REM
REM
REM
REM
REM ./C.cell (11c1c37f851c82e70ff6c80c92926a4b)
REM
REM compiler GCC version 9.2.1 20190827 (Red Hat 9.2.1-1)
REM options -cpp -mtune=generic -march=x86-64 -g -O0 -fpre-include=/usr/include/finclude/math-vector-fortran.h
REM seed -877741345 -1190465107 -372259718 1850841770 1959040022 -1161260935 188935375 651757161 249096778 2128735470 699231011 1647831574 -1654905068 1305563425 1363155132 -1287864001 1245513873 1698878092 1340271820 1081996234 -941945130 1030869378 401977868 114244179 1218083925 1319793831 -1477540725 2136371898 785237002 574281543 -905413888 -1102307514 564599460
REM
CELL 1.54180   50.00000   50.00000   50.00000   90.00000   90.00000   90.00000
LATT -1
SFAC C  
C      1  0.5494330000000  0.5785850000000  0.5513000000000 1.0
C      1  0.4276750000000  0.5264730000000  0.5711700000000 1.0
C      1  0.5428160000000  0.4028270000000  0.4875470000000 1.0
C      1  0.5441850000000  0.4175500000000  0.5126120000000 1.0
C      1  0.4174890000000  0.4707520000000  0.5384610000000 1.0
C      1  0.3856620000000  0.5235060000000  0.4995530000000 1.0
C      1  0.4557770000000  0.5158630000000  0.5802520000000 1.0
C      1  0.4147980000000  0.4281130000000  0.5145560000000 1.0
C      1  0.5285560000000  0.5463950000000  0.5452740000000 1.0
C      1  0.5334320000000  0.4624370000000  0.5440420000000 1.0
C      1  0.4528810000000  0.4429290000000  0.5796320000000 1.0
C      1  0.5612420000000  0.5340830000000  0.4224700000000 1.0
C      1  0.5234310000000  0.5519560000000  0.5950120000000 1.0
C      1  0.5422970000000  0.4794490000000  0.4044400000000 1.0
C      1  0.4804980000000  0.5305950000000  0.5545260000000 1.0
C      1  0.4269400000000  0.6019690000000  0.5014790000000 1.0
C      1  0.5168510000000  0.5068910000000  0.5197310000000 1.0
C      1  0.5646870000000  0.5639280000000  0.5084990000000 1.0
C      1  0.5078120000000  0.5122750000000  0.4708760000000 1.0
C      1  0.4584390000000  0.3891970000000  0.4792930000000 1.0
C      1  0.5625250000000  0.4403310000000  0.5113470000000 1.0
C      1  0.4273500000000  0.5799320000000  0.4539260000000 1.0
C      1  0.4993400000000  0.4191900000000  0.4745040000000 1.0
C      1  0.4943590000000  0.4648040000000  0.6021580000000 1.0
C      1  0.5072880000000  0.4604620000000  0.4492050000000 1.0
C      1  0.4624410000000  0.4098530000000  0.5463830000000 1.0
C      1  0.5297690000000  0.4421990000000  0.4391980000000 1.0
C      1  0.4173700000000  0.5234580000000  0.5430940000000 1.0
C      1  0.5091640000000  0.3960880000000  0.4594010000000 1.0
C      1  0.5725040000000  0.4521760000000  0.4348600000000 1.0
C      1  0.4863040000000  0.4438310000000  0.4613810000000 1.0
C      1  0.4617230000000  0.4352360000000  0.5009530000000 1.0
C      1  0.4218140000000  0.5401410000000  0.4801170000000 1.0
C      1  0.4337050000000  0.5344490000000  0.4337430000000 1.0
C      1  0.5329850000000  0.4938010000000  0.4310980000000 1.0
C      1  0.6237790000000  0.5292580000000  0.4918140000000 1.0
C      1  0.3889330000000  0.4744390000000  0.4984830000000 1.0
C      1  0.5416370000000  0.5767930000000  0.4371870000000 1.0
C      1  0.5372310000000  0.5288760000000  0.5215330000000 1.0
C      1  0.4282620000000  0.4577060000000  0.4763190000000 1.0
C      1  0.5716250000000  0.5308840000000  0.4709110000000 1.0
C      1  0.5347300000000  0.5836260000000  0.5765330000000 1.0
C      1  0.5579740000000  0.5626220000000  0.4185830000000 1.0
C      1  0.4911810000000  0.4244840000000  0.4104150000000 1.0
C      1  0.4681520000000  0.5637380000000  0.5007950000000 1.0
C      1  0.5198070000000  0.4170850000000  0.5280120000000 1.0
C      1  0.4803450000000  0.4802690000000  0.5489320000000 1.0
C      1  0.4674370000000  0.5917800000000  0.4883480000000 1.0
C      1  0.5087590000000  0.4930340000000  0.4942200000000 1.0
C      1  0.4337820000000  0.4312310000000  0.4911430000000 1.0
C      1  0.4225400000000  0.5077270000000  0.4367680000000 1.0
C      1  0.4992640000000  0.5524640000000  0.5399020000000 1.0
C      1  0.5344410000000  0.4937050000000  0.6147780000000 1.0
C      1  0.5859820000000  0.4366540000000  0.5307130000000 1.0
C      1  0.4491890000000  0.4765650000000  0.4067590000000 1.0
C      1  0.5157570000000  0.5890570000000  0.4279640000000 1.0
C      1  0.4010350000000  0.4544100000000  0.5186510000000 1.0
C      1  0.4944890000000  0.5541090000000  0.5100590000000 1.0
C      1  0.5813220000000  0.5269050000000  0.4438280000000 1.0
C      1  0.5783380000000  0.4414560000000  0.5584540000000 1.0
C      1  0.4558190000000  0.5427590000000  0.4160440000000 1.0
C      1  0.5406280000000  0.5968220000000  0.5300600000000 1.0
C      1  0.4666670000000  0.4911400000000  0.5249710000000 1.0
C      1  0.4708440000000  0.4189530000000  0.5744940000000 1.0
C      1  0.5205910000000  0.4337600000000  0.4113890000000 1.0
C      1  0.4734820000000  0.4574010000000  0.4853600000000 1.0
C      1  0.3893100000000  0.4765730000000  0.4666260000000 1.0
C      1  0.5930280000000  0.4670420000000  0.4501330000000 1.0
C      1  0.4986250000000  0.5084440000000  0.5675570000000 1.0
C      1  0.4931700000000  0.5995730000000  0.4750330000000 1.0
C      1  0.5512830000000  0.4348440000000  0.5647230000000 1.0
C      1  0.4786160000000  0.4852720000000  0.4962890000000 1.0
C      1  0.4864330000000  0.3886690000000  0.4446300000000 1.0
C      1  0.5467960000000  0.4658420000000  0.5153380000000 1.0
C      1  0.5609430000000  0.4728880000000  0.5856770000000 1.0
C      1  0.4547800000000  0.5616120000000  0.5720250000000 1.0
C      1  0.4451630000000  0.4535060000000  0.4515360000000 1.0
C      1  0.5055590000000  0.3932860000000  0.5194790000000 1.0
C      1  0.5120610000000  0.4453860000000  0.5904920000000 1.0
C      1  0.3995520000000  0.5037720000000  0.4552320000000 1.0
C      1  0.5678490000000  0.5161680000000  0.3980630000000 1.0
C      1  0.4062700000000  0.4555980000000  0.4570940000000 1.0
C      1  0.4283430000000  0.4220450000000  0.5414390000000 1.0
C      1  0.5527910000000  0.5008120000000  0.5523440000000 1.0
C      1  0.5034810000000  0.4847010000000  0.4319600000000 1.0
C      1  0.4996780000000  0.4222140000000  0.5788660000000 1.0
C      1  0.4358260000000  0.5990860000000  0.4717130000000 1.0
C      1  0.4015960000000  0.4974610000000  0.5400020000000 1.0
C      1  0.5105690000000  0.5445510000000  0.4118430000000 1.0
C      1  0.4893640000000  0.5092230000000  0.4468940000000 1.0
C      1  0.4384490000000  0.4092010000000  0.4695420000000 1.0
C      1  0.4080130000000  0.5137400000000  0.4818930000000 1.0
C      1  0.4508300000000  0.5173530000000  0.6230100000000 1.0
C      1  0.4554900000000  0.5025690000000  0.4810500000000 1.0
C      1  0.4383690000000  0.4823800000000  0.5203480000000 1.0
C      1  0.6074180000000  0.5507180000000  0.5012910000000 1.0
C      1  0.4644800000000  0.4670600000000  0.5943760000000 1.0
C      1  0.5843370000000  0.4932910000000  0.4098540000000 1.0
C      1  0.4497900000000  0.4241480000000  0.4457610000000 1.0
C      1  0.5964030000000  0.4831070000000  0.4990970000000 1.0
C      1  0.4714480000000  0.5670880000000  0.4202930000000 1.0
C      1  0.4307830000000  0.4870440000000  0.4913160000000 1.0
C      1  0.5325320000000  0.5349240000000  0.5725400000000 1.0
C      1  0.4478500000000  0.5318070000000  0.4910920000000 1.0
C      1  0.5542260000000  0.4866120000000  0.4557460000000 1.0
C      1  0.4864740000000  0.4528320000000  0.5396800000000 1.0
C      1  0.5338290000000  0.5254180000000  0.4323150000000 1.0
C      1  0.5043760000000  0.5362290000000  0.6115280000000 1.0
C      1  0.4104730000000  0.5685390000000  0.5526850000000 1.0
C      1  0.5105600000000  0.5614200000000  0.4609390000000 1.0
C      1  0.6114600000000  0.4467940000000  0.5255760000000 1.0
C      1  0.5989230000000  0.5299840000000  0.5226450000000 1.0
C      1  0.4483450000000  0.5641640000000  0.5244780000000 1.0
C      1  0.5068210000000  0.4888060000000  0.6131340000000 1.0
C      1  0.4228520000000  0.5526800000000  0.4535380000000 1.0
C      1  0.4680470000000  0.5635860000000  0.5974490000000 1.0
C      1  0.4629820000000  0.4374760000000  0.5310040000000 1.0
C      1  0.4927800000000  0.5812470000000  0.5474600000000 1.0
C      1  0.5446700000000  0.5022350000000  0.3852670000000 1.0
C      1  0.4208800000000  0.5760070000000  0.5163270000000 1.0
C      1  0.4778050000000  0.4450470000000  0.3949490000000 1.0
C      1  0.4767660000000  0.3880180000000  0.5288120000000 1.0
C      1  0.5411170000000  0.5470090000000  0.4983640000000 1.0
C      1  0.4584330000000  0.5026750000000  0.4504840000000 1.0
C      1  0.5269370000000  0.4679050000000  0.4926180000000 1.0
C      1  0.5091990000000  0.5093750000000  0.3766440000000 1.0
C      1  0.5692270000000  0.4672410000000  0.4093160000000 1.0
C      1  0.5283160000000  0.5333570000000  0.4638410000000 1.0
C      1  0.5692380000000  0.4434470000000  0.4819550000000 1.0
C      1  0.4954850000000  0.4685250000000  0.3973950000000 1.0
C      1  0.5569820000000  0.5186660000000  0.5750870000000 1.0
C      1  0.5164430000000  0.5640440000000  0.4934130000000 1.0
C      1  0.4613980000000  0.4859790000000  0.5721490000000 1.0
C      1  0.4330880000000  0.5019230000000  0.6074440000000 1.0
C      1  0.4672330000000  0.5195610000000  0.5307930000000 1.0
C      1  0.5876700000000  0.4966540000000  0.4394690000000 1.0
C      1  0.5827430000000  0.5564680000000  0.4853880000000 1.0
C      1  0.4960660000000  0.5296220000000  0.3918110000000 1.0
C      1  0.5191160000000  0.3842900000000  0.4940530000000 1.0
C      1  0.4545940000000  0.6099800000000  0.5093960000000 1.0
C      1  0.5820080000000  0.5785700000000  0.4662420000000 1.0
C      1  0.5581400000000  0.5055080000000  0.4792620000000 1.0
C      1  0.6008700000000  0.5170490000000  0.5500410000000 1.0
C      1  0.5942390000000  0.4601320000000  0.4786420000000 1.0
C      1  0.4628430000000  0.4978290000000  0.3899840000000 1.0
C      1  0.5713680000000  0.5573340000000  0.5432900000000 1.0
C      1  0.4930380000000  0.5414090000000  0.4395480000000 1.0
C      1  0.4621400000000  0.5776170000000  0.5490030000000 1.0
C      1  0.3987120000000  0.5461110000000  0.5398580000000 1.0
C      1  0.5641050000000  0.4245780000000  0.4411680000000 1.0
C      1  0.4952540000000  0.5110440000000  0.5990050000000 1.0
C      1  0.4933330000000  0.5764850000000  0.5973540000000 1.0
C      1  0.4990950000000  0.5729190000000  0.4097180000000 1.0
C      1  0.5565820000000  0.5891170000000  0.4592980000000 1.0
C      1  0.5947550000000  0.4875500000000  0.5475480000000 1.0
C      1  0.4767310000000  0.4108180000000  0.4922880000000 1.0
C      1  0.4885260000000  0.4883780000000  0.3768460000000 1.0
C      1  0.5118600000000  0.4392760000000  0.5468440000000 1.0
C      1  0.4664230000000  0.5401600000000  0.6146580000000 1.0
C      1  0.4308090000000  0.4470460000000  0.5583850000000 1.0
C      1  0.5848640000000  0.4686400000000  0.5684850000000 1.0
C      1  0.5572450000000  0.4985000000000  0.5992850000000 1.0
C      1  0.4265080000000  0.5557810000000  0.5735160000000 1.0
C      1  0.5422480000000  0.5985890000000  0.4832640000000 1.0
C      1  0.5225370000000  0.4932460000000  0.5468350000000 1.0
C      1  0.3838330000000  0.4986350000000  0.5157640000000 1.0
C      1  0.5146840000000  0.6069810000000  0.4924320000000 1.0
C      1  0.5060850000000  0.5867660000000  0.5742230000000 1.0
C      1  0.4540860000000  0.4769050000000  0.4357710000000 1.0
C      1  0.5637790000000  0.5138090000000  0.5269890000000 1.0
C      1  0.5456390000000  0.4604070000000  0.4694330000000 1.0
C      1  0.4480290000000  0.4793210000000  0.6158170000000 1.0
C      1  0.5801530000000  0.5349600000000  0.5625280000000 1.0
C      1  0.5577740000000  0.5929800000000  0.5071150000000 1.0
C      1  0.6083390000000  0.4745010000000  0.5248090000000 1.0
C      1  0.5129390000000  0.5930350000000  0.5198180000000 1.0
C      1  0.3930210000000  0.5492020000000  0.5124680000000 1.0
C      1  0.4589910000000  0.3790310000000  0.5071110000000 1.0
C      1  0.5645280000000  0.4163860000000  0.4691680000000 1.0
C      1  0.4711640000000  0.5220690000000  0.4032340000000 1.0
C      1  0.5665120000000  0.4924020000000  0.5053920000000 1.0
C      1  0.5229530000000  0.4585270000000  0.3946590000000 1.0
C      1  0.4774770000000  0.4152910000000  0.4361490000000 1.0
C      1  0.4500540000000  0.4502190000000  0.3958970000000 1.0
C      1  0.4983190000000  0.5989020000000  0.4477260000000 1.0
C      1  0.6126380000000  0.5044600000000  0.4894160000000 1.0
C      1  0.4435650000000  0.5329230000000  0.5226720000000 1.0
C      1  0.5408100000000  0.4503600000000  0.5859280000000 1.0
END
