TITL C-951335-1172-329 -6.8570216285086e-08 125000 -448.569094770081 0 0 73 (C1) n - 1
REM
REM in /home/bkarasulu/work/CARBON/AIRSS/Generating-Clusters/EDIP-Nigel-Params/with-SteepDescent/Only-C1/SD-CG/HFTN-CG
REM
REM
REM
REM
REM
REM ./C.cell (11c1c37f851c82e70ff6c80c92926a4b)
REM
REM compiler GCC version 9.2.1 20190827 (Red Hat 9.2.1-1)
REM options -cpp -mtune=generic -march=x86-64 -g -O0 -fpre-include=/usr/include/finclude/math-vector-fortran.h
REM seed 192645545 470541054 -550090269 -960219137 -1421444074 -1464465519 -610267312 -1093891190 1038272797 -1123298357 -2139459139 103136792 -1784427864 -1215347274 1553806342 1722982048 -1882775088 1230018285 -1836217371 -313213685 -1210525711 -809736449 1589265726 -359150678 1875599793 -1637323717 -1362768619 -1348789689 -528880030 -1918478536 -900179755 -491637149 -1250653572
REM
CELL 1.54180   50.00000   50.00000   50.00000   90.00000   90.00000   90.00000
LATT -1
SFAC C  
C      1  0.5330500000000  0.5664260000000  0.4983440000000 1.0
C      1  0.4852550000000  0.4430510000000  0.5162520000000 1.0
C      1  0.5105230000000  0.5472600000000  0.5586710000000 1.0
C      1  0.5534000000000  0.5305380000000  0.4644930000000 1.0
C      1  0.5553930000000  0.4497510000000  0.5009270000000 1.0
C      1  0.5153300000000  0.4272940000000  0.4759970000000 1.0
C      1  0.5631050000000  0.4870700000000  0.5323000000000 1.0
C      1  0.4599730000000  0.4473360000000  0.5010510000000 1.0
C      1  0.4982030000000  0.4790800000000  0.5921900000000 1.0
C      1  0.4732380000000  0.5694670000000  0.4747890000000 1.0
C      1  0.4942400000000  0.4617940000000  0.5383940000000 1.0
C      1  0.5236890000000  0.4719960000000  0.4224500000000 1.0
C      1  0.4995870000000  0.5209960000000  0.4680560000000 1.0
C      1  0.4237780000000  0.4738750000000  0.4834780000000 1.0
C      1  0.5097500000000  0.4284960000000  0.5053740000000 1.0
C      1  0.4638870000000  0.5009790000000  0.5476850000000 1.0
C      1  0.5479000000000  0.5550360000000  0.5210550000000 1.0
C      1  0.5007230000000  0.5305370000000  0.4974380000000 1.0
C      1  0.4698350000000  0.4840860000000  0.5879220000000 1.0
C      1  0.4599310000000  0.5392950000000  0.5522030000000 1.0
C      1  0.4973810000000  0.5117550000000  0.4256480000000 1.0
C      1  0.5676340000000  0.4839600000000  0.4588750000000 1.0
C      1  0.4289720000000  0.4805550000000  0.5313020000000 1.0
C      1  0.4699050000000  0.4990810000000  0.4282680000000 1.0
C      1  0.5086890000000  0.4650400000000  0.4468960000000 1.0
C      1  0.5137660000000  0.5584520000000  0.4502880000000 1.0
C      1  0.4843790000000  0.4545220000000  0.5663150000000 1.0
C      1  0.5308650000000  0.5487620000000  0.4725070000000 1.0
C      1  0.5690250000000  0.5228710000000  0.4882120000000 1.0
C      1  0.5532960000000  0.5268090000000  0.5143350000000 1.0
C      1  0.5029050000000  0.5397830000000  0.4311020000000 1.0
C      1  0.5444020000000  0.5051490000000  0.4206320000000 1.0
C      1  0.5561970000000  0.4569590000000  0.4634650000000 1.0
C      1  0.5104430000000  0.5254460000000  0.5764630000000 1.0
C      1  0.4763780000000  0.5532830000000  0.5001060000000 1.0
C      1  0.4854940000000  0.5534110000000  0.5454660000000 1.0
C      1  0.5340130000000  0.4396240000000  0.5184790000000 1.0
C      1  0.4247580000000  0.5085800000000  0.5307380000000 1.0
C      1  0.4503970000000  0.5373850000000  0.5037970000000 1.0
C      1  0.5249260000000  0.5155210000000  0.5111870000000 1.0
C      1  0.4680440000000  0.5268270000000  0.4628570000000 1.0
C      1  0.4552160000000  0.5122980000000  0.4867720000000 1.0
C      1  0.4913650000000  0.4218970000000  0.4605120000000 1.0
C      1  0.4958740000000  0.5773020000000  0.4604550000000 1.0
C      1  0.5441670000000  0.4765360000000  0.5510630000000 1.0
C      1  0.5499560000000  0.5054560000000  0.4487810000000 1.0
C      1  0.5559910000000  0.4794780000000  0.5042120000000 1.0
C      1  0.4397540000000  0.5328000000000  0.5301570000000 1.0
C      1  0.5182560000000  0.4976390000000  0.4112950000000 1.0
C      1  0.4555050000000  0.5226660000000  0.4356990000000 1.0
C      1  0.4853830000000  0.4901560000000  0.5300680000000 1.0
C      1  0.4394550000000  0.4924310000000  0.4695010000000 1.0
C      1  0.5173620000000  0.4996790000000  0.5856210000000 1.0
C      1  0.4386060000000  0.4675130000000  0.5062960000000 1.0
C      1  0.4564090000000  0.5541160000000  0.4582980000000 1.0
C      1  0.4810610000000  0.4969810000000  0.4997510000000 1.0
C      1  0.4688480000000  0.5102110000000  0.5753590000000 1.0
C      1  0.5337760000000  0.5565740000000  0.5456960000000 1.0
C      1  0.4554460000000  0.4536500000000  0.5693020000000 1.0
C      1  0.5116810000000  0.5791900000000  0.5122850000000 1.0
C      1  0.4602870000000  0.4814900000000  0.4512270000000 1.0
C      1  0.5408090000000  0.4893120000000  0.5756100000000 1.0
C      1  0.5273860000000  0.4529720000000  0.4666930000000 1.0
C      1  0.5051190000000  0.4897100000000  0.4764080000000 1.0
C      1  0.4864250000000  0.5703820000000  0.5218370000000 1.0
C      1  0.4589260000000  0.4359430000000  0.4742780000000 1.0
C      1  0.5755470000000  0.4935630000000  0.4857090000000 1.0
C      1  0.5275900000000  0.4903170000000  0.4977540000000 1.0
C      1  0.5245730000000  0.4581250000000  0.5393140000000 1.0
C      1  0.4610040000000  0.4522990000000  0.4493450000000 1.0
C      1  0.4876550000000  0.4435710000000  0.4412630000000 1.0
C      1  0.5686600000000  0.5142490000000  0.5359260000000 1.0
C      1  0.4392480000000  0.4733550000000  0.5575030000000 1.0
END
