TITL C-950536-5891-507 -6.19598254464502e-08 125000 -333.038650585617 0 0 55 (C1) n - 1
REM
REM in /home/bkarasulu/work/CARBON/AIRSS/Generating-Clusters/EDIP-Nigel-Params/with-SteepDescent/Only-C1/SD-CG/HFTN-CG
REM
REM
REM
REM
REM
REM ./C.cell (11c1c37f851c82e70ff6c80c92926a4b)
REM
REM compiler GCC version 9.2.1 20190827 (Red Hat 9.2.1-1)
REM options -cpp -mtune=generic -march=x86-64 -g -O0 -fpre-include=/usr/include/finclude/math-vector-fortran.h
REM seed 792520850 458654023 -1007859265 -909883259 695905359 389620919 239326707 -348851711 -920519631 1673875028 -109633 927699589 -557451800 -246204665 -274835325 -4987273 -291311207 2081623893 -264669242 -930471757 -1588423039 -1282746870 224601403 1869928223 -1252567811 1587771772 -43051984 282639458 1015434637 1086659772 542003072 1506966278 -1846309256
REM
CELL 1.54180   50.00000   50.00000   50.00000   90.00000   90.00000   90.00000
LATT -1
SFAC C  
C      1  0.4765150000000  0.5029720000000  0.5655330000000 1.0
C      1  0.5594220000000  0.5320560000000  0.4747230000000 1.0
C      1  0.4730860000000  0.4918520000000  0.4363620000000 1.0
C      1  0.4845580000000  0.5059380000000  0.4892770000000 1.0
C      1  0.4489600000000  0.4938860000000  0.4791890000000 1.0
C      1  0.5411750000000  0.4556740000000  0.5298860000000 1.0
C      1  0.4782140000000  0.4567520000000  0.4662710000000 1.0
C      1  0.5570890000000  0.4686290000000  0.4465530000000 1.0
C      1  0.4959890000000  0.5460510000000  0.4831620000000 1.0
C      1  0.5045110000000  0.4585770000000  0.5625030000000 1.0
C      1  0.5497350000000  0.5171760000000  0.4996630000000 1.0
C      1  0.4347620000000  0.4995770000000  0.5382350000000 1.0
C      1  0.5406190000000  0.5572080000000  0.4658170000000 1.0
C      1  0.5054930000000  0.4853310000000  0.4934360000000 1.0
C      1  0.4794520000000  0.5732170000000  0.5189180000000 1.0
C      1  0.5257480000000  0.4990070000000  0.5489940000000 1.0
C      1  0.5248260000000  0.5267180000000  0.5432040000000 1.0
C      1  0.4475910000000  0.5241430000000  0.4732120000000 1.0
C      1  0.4775590000000  0.4796510000000  0.5277510000000 1.0
C      1  0.5282160000000  0.5637950000000  0.5146610000000 1.0
C      1  0.5302130000000  0.4585090000000  0.4503860000000 1.0
C      1  0.4986340000000  0.4560630000000  0.4867750000000 1.0
C      1  0.4637830000000  0.5332430000000  0.4488030000000 1.0
C      1  0.5223760000000  0.4863910000000  0.4458260000000 1.0
C      1  0.4504230000000  0.4909950000000  0.5612200000000 1.0
C      1  0.5701770000000  0.4703400000000  0.4962000000000 1.0
C      1  0.4965560000000  0.5001940000000  0.4530000000000 1.0
C      1  0.4762990000000  0.5308740000000  0.5555610000000 1.0
C      1  0.5231990000000  0.5414460000000  0.4434640000000 1.0
C      1  0.5020780000000  0.5433570000000  0.5498600000000 1.0
C      1  0.5173520000000  0.4439810000000  0.5416870000000 1.0
C      1  0.5509980000000  0.4492550000000  0.5032060000000 1.0
C      1  0.4584940000000  0.5146510000000  0.4280750000000 1.0
C      1  0.5196060000000  0.5631110000000  0.4863150000000 1.0
C      1  0.4866950000000  0.4383350000000  0.5099060000000 1.0
C      1  0.5248750000000  0.4459270000000  0.4766030000000 1.0
C      1  0.5478930000000  0.4832110000000  0.5369210000000 1.0
C      1  0.4597430000000  0.4757640000000  0.4569180000000 1.0
C      1  0.5046470000000  0.4241630000000  0.5264460000000 1.0
C      1  0.4952820000000  0.5328910000000  0.4553960000000 1.0
C      1  0.4725380000000  0.5585480000000  0.4959330000000 1.0
C      1  0.4722460000000  0.5043060000000  0.5153090000000 1.0
C      1  0.5652630000000  0.4943080000000  0.5140620000000 1.0
C      1  0.4666440000000  0.4536860000000  0.5253330000000 1.0
C      1  0.5404960000000  0.5372420000000  0.5214470000000 1.0
C      1  0.4305740000000  0.4783000000000  0.5166720000000 1.0
C      1  0.5287150000000  0.5002340000000  0.4893530000000 1.0
C      1  0.4502150000000  0.5399020000000  0.4991930000000 1.0
C      1  0.4389060000000  0.4515680000000  0.5210210000000 1.0
C      1  0.5030850000000  0.4869590000000  0.5632340000000 1.0
C      1  0.5461120000000  0.5228880000000  0.4493620000000 1.0
C      1  0.5035380000000  0.5674210000000  0.5327280000000 1.0
C      1  0.5721170000000  0.4751580000000  0.4687200000000 1.0
C      1  0.4530170000000  0.5230070000000  0.5271590000000 1.0
C      1  0.4236910000000  0.4855650000000  0.4905590000000 1.0
END
