TITL C-951339-9237-542 -4.46825239892247e-06 125000 -1074.07823731393 0 0 172 (C1) n - 1
REM
REM in /home/bkarasulu/work/CARBON/AIRSS/Generating-Clusters/EDIP-Nigel-Params/with-SteepDescent/Only-C1/SD-CG/HFTN-CG
REM
REM
REM
REM
REM
REM ./C.cell (11c1c37f851c82e70ff6c80c92926a4b)
REM
REM compiler GCC version 9.2.1 20190827 (Red Hat 9.2.1-1)
REM options -cpp -mtune=generic -march=x86-64 -g -O0 -fpre-include=/usr/include/finclude/math-vector-fortran.h
REM seed 1644197277 2068739038 1654703652 -897363995 -1986102422 -954603238 -293289527 1479830886 -971308865 765618231 1289984774 1659849735 -199582891 -563115113 1897416671 -197342504 1631185095 1952042983 -473390839 -1561952687 -1048396371 1251949276 -2016206292 -1563273389 -950496753 408526654 -1125790376 -318487867 1374570709 1043865626 -972027663 172181557 379019345
REM
CELL 1.54180   50.00000   50.00000   50.00000   90.00000   90.00000   90.00000
LATT -1
SFAC C  
C      1  0.4503540000000  0.5206750000000  0.4643630000000 1.0
C      1  0.5779020000000  0.5589360000000  0.4963120000000 1.0
C      1  0.5559150000000  0.4599160000000  0.3979760000000 1.0
C      1  0.5520270000000  0.4024220000000  0.4702310000000 1.0
C      1  0.5867640000000  0.4164550000000  0.5068920000000 1.0
C      1  0.5918850000000  0.4583830000000  0.5462760000000 1.0
C      1  0.3967270000000  0.5367760000000  0.4817890000000 1.0
C      1  0.5870310000000  0.5103400000000  0.5191940000000 1.0
C      1  0.5208090000000  0.5161370000000  0.5869430000000 1.0
C      1  0.5365420000000  0.5067460000000  0.6108660000000 1.0
C      1  0.5587470000000  0.5839510000000  0.5684720000000 1.0
C      1  0.4780330000000  0.4415090000000  0.5620760000000 1.0
C      1  0.5865360000000  0.4611630000000  0.4419750000000 1.0
C      1  0.5835560000000  0.4393500000000  0.4602140000000 1.0
C      1  0.5740430000000  0.4799380000000  0.5573950000000 1.0
C      1  0.4355290000000  0.4665190000000  0.5799480000000 1.0
C      1  0.5120020000000  0.4322630000000  0.4747720000000 1.0
C      1  0.5877520000000  0.5019330000000  0.5742290000000 1.0
C      1  0.5298770000000  0.5962350000000  0.4573940000000 1.0
C      1  0.4903140000000  0.5660300000000  0.5406680000000 1.0
C      1  0.4758030000000  0.5811830000000  0.5781830000000 1.0
C      1  0.4240220000000  0.5770250000000  0.4851130000000 1.0
C      1  0.4741310000000  0.4187340000000  0.4121970000000 1.0
C      1  0.5769770000000  0.4839660000000  0.4564290000000 1.0
C      1  0.5478550000000  0.6080790000000  0.4892310000000 1.0
C      1  0.5743590000000  0.5334070000000  0.4521830000000 1.0
C      1  0.4920490000000  0.5101190000000  0.5375760000000 1.0
C      1  0.5137550000000  0.5378860000000  0.4986380000000 1.0
C      1  0.4532410000000  0.4068890000000  0.4729520000000 1.0
C      1  0.5046690000000  0.5853170000000  0.4475130000000 1.0
C      1  0.4107630000000  0.5504640000000  0.5273850000000 1.0
C      1  0.5490590000000  0.4362080000000  0.5583580000000 1.0
C      1  0.4762850000000  0.5417350000000  0.5543910000000 1.0
C      1  0.5701030000000  0.3978800000000  0.4925220000000 1.0
C      1  0.5252110000000  0.4745660000000  0.5117160000000 1.0
C      1  0.4779260000000  0.5864980000000  0.4635720000000 1.0
C      1  0.4755910000000  0.5609910000000  0.4811510000000 1.0
C      1  0.4657150000000  0.4066980000000  0.5256780000000 1.0
C      1  0.4085220000000  0.4812020000000  0.4645940000000 1.0
C      1  0.4891400000000  0.5282110000000  0.5146440000000 1.0
C      1  0.4453330000000  0.5447770000000  0.5549990000000 1.0
C      1  0.4933370000000  0.4803790000000  0.4819810000000 1.0
C      1  0.5366290000000  0.6240370000000  0.5091680000000 1.0
C      1  0.5173290000000  0.5676230000000  0.5014690000000 1.0
C      1  0.4290430000000  0.4610930000000  0.5090820000000 1.0
C      1  0.4738380000000  0.5044820000000  0.4163290000000 1.0
C      1  0.4580850000000  0.5766770000000  0.4195500000000 1.0
C      1  0.4747890000000  0.4594320000000  0.4404890000000 1.0
C      1  0.5450750000000  0.4634230000000  0.5697110000000 1.0
C      1  0.4886700000000  0.5751510000000  0.5066010000000 1.0
C      1  0.5957880000000  0.4434480000000  0.4959410000000 1.0
C      1  0.5140320000000  0.4707490000000  0.4117520000000 1.0
C      1  0.5034710000000  0.4935820000000  0.5772800000000 1.0
C      1  0.4153490000000  0.5157260000000  0.4904680000000 1.0
C      1  0.4319080000000  0.5688460000000  0.4578410000000 1.0
C      1  0.5550950000000  0.4711250000000  0.5123360000000 1.0
C      1  0.4994430000000  0.5421630000000  0.4090440000000 1.0
C      1  0.4817900000000  0.4329730000000  0.4606380000000 1.0
C      1  0.4779010000000  0.3900500000000  0.4695970000000 1.0
C      1  0.5425470000000  0.5112220000000  0.5374340000000 1.0
C      1  0.4808370000000  0.5498870000000  0.5834130000000 1.0
C      1  0.4591890000000  0.5345150000000  0.5988490000000 1.0
C      1  0.4714840000000  0.6044690000000  0.5341270000000 1.0
C      1  0.5370390000000  0.4041160000000  0.5116060000000 1.0
C      1  0.4402860000000  0.5255910000000  0.5325470000000 1.0
C      1  0.4498620000000  0.4777260000000  0.4423120000000 1.0
C      1  0.4726140000000  0.4421850000000  0.4900990000000 1.0
C      1  0.5757570000000  0.4340160000000  0.5459590000000 1.0
C      1  0.4444570000000  0.4963590000000  0.5424800000000 1.0
C      1  0.4934800000000  0.3949620000000  0.4470730000000 1.0
C      1  0.4299190000000  0.4306340000000  0.5453330000000 1.0
C      1  0.4362590000000  0.5380610000000  0.4424450000000 1.0
C      1  0.5652810000000  0.4925340000000  0.5313400000000 1.0
C      1  0.4949040000000  0.4773720000000  0.4528720000000 1.0
C      1  0.4535590000000  0.5489270000000  0.4199810000000 1.0
C      1  0.5815230000000  0.5589360000000  0.5259730000000 1.0
C      1  0.4362560000000  0.5714330000000  0.5474070000000 1.0
C      1  0.5938860000000  0.5333740000000  0.5360990000000 1.0
C      1  0.4729730000000  0.4866190000000  0.5313530000000 1.0
C      1  0.5188820000000  0.4914590000000  0.4884790000000 1.0
C      1  0.4205880000000  0.4557280000000  0.5573880000000 1.0
C      1  0.4901030000000  0.4595070000000  0.5392610000000 1.0
C      1  0.3976590000000  0.5173380000000  0.5616220000000 1.0
C      1  0.4649160000000  0.4603010000000  0.5820970000000 1.0
C      1  0.4390960000000  0.4515160000000  0.4082120000000 1.0
C      1  0.5730370000000  0.5071800000000  0.4397870000000 1.0
C      1  0.5373820000000  0.4795630000000  0.6154340000000 1.0
C      1  0.5018910000000  0.5933810000000  0.5670800000000 1.0
C      1  0.4321750000000  0.4918950000000  0.4207540000000 1.0
C      1  0.4209410000000  0.4804410000000  0.5302820000000 1.0
C      1  0.4531120000000  0.5852110000000  0.4458380000000 1.0
C      1  0.4794740000000  0.5205390000000  0.4613320000000 1.0
C      1  0.4480150000000  0.4152790000000  0.5034450000000 1.0
C      1  0.5233560000000  0.5241910000000  0.4150940000000 1.0
C      1  0.4172400000000  0.5142460000000  0.5810580000000 1.0
C      1  0.4404230000000  0.4219110000000  0.4492870000000 1.0
C      1  0.5534500000000  0.5519560000000  0.4454420000000 1.0
C      1  0.6047470000000  0.4636470000000  0.5189030000000 1.0
C      1  0.5101010000000  0.5567670000000  0.4422550000000 1.0
C      1  0.5698730000000  0.5039420000000  0.4121150000000 1.0
C      1  0.3968930000000  0.5248070000000  0.5348240000000 1.0
C      1  0.5571760000000  0.4272660000000  0.4564190000000 1.0
C      1  0.4357870000000  0.5981040000000  0.4993280000000 1.0
C      1  0.5373410000000  0.4988540000000  0.4645860000000 1.0
C      1  0.4636830000000  0.4803140000000  0.4002090000000 1.0
C      1  0.4147750000000  0.4669020000000  0.4173560000000 1.0
C      1  0.6042910000000  0.5115680000000  0.4860180000000 1.0
C      1  0.4939950000000  0.3841960000000  0.4927990000000 1.0
C      1  0.4068300000000  0.5581100000000  0.4987460000000 1.0
C      1  0.4994720000000  0.6117280000000  0.5428880000000 1.0
C      1  0.3996550000000  0.5085200000000  0.4557460000000 1.0
C      1  0.5411700000000  0.5480170000000  0.4203760000000 1.0
C      1  0.5530260000000  0.4895260000000  0.3947650000000 1.0
C      1  0.4343490000000  0.5383540000000  0.5827930000000 1.0
C      1  0.5093190000000  0.5438890000000  0.5905350000000 1.0
C      1  0.4967540000000  0.5427100000000  0.4684470000000 1.0
C      1  0.4566710000000  0.5902080000000  0.5557890000000 1.0
C      1  0.5622420000000  0.5816870000000  0.4844220000000 1.0
C      1  0.5229260000000  0.4229810000000  0.5539970000000 1.0
C      1  0.5605920000000  0.5750510000000  0.5405560000000 1.0
C      1  0.5402900000000  0.5273560000000  0.5106460000000 1.0
C      1  0.5192750000000  0.5140470000000  0.4427190000000 1.0
C      1  0.5249170000000  0.4972950000000  0.3981290000000 1.0
C      1  0.5235710000000  0.4262930000000  0.4235520000000 1.0
C      1  0.5650880000000  0.5135290000000  0.5868970000000 1.0
C      1  0.5878120000000  0.4115490000000  0.5344620000000 1.0
C      1  0.5377320000000  0.4577990000000  0.5983700000000 1.0
C      1  0.4600230000000  0.5326890000000  0.5116520000000 1.0
C      1  0.5234070000000  0.4700210000000  0.4426800000000 1.0
C      1  0.6105820000000  0.4928760000000  0.5109160000000 1.0
C      1  0.4039300000000  0.4584810000000  0.4448750000000 1.0
C      1  0.4709130000000  0.4848270000000  0.5011730000000 1.0
C      1  0.5174110000000  0.4048590000000  0.5317310000000 1.0
C      1  0.5802250000000  0.5313040000000  0.4809600000000 1.0
C      1  0.5438590000000  0.5194330000000  0.5675190000000 1.0
C      1  0.4791990000000  0.4853470000000  0.5902450000000 1.0
C      1  0.5027950000000  0.4289910000000  0.5742190000000 1.0
C      1  0.5283060000000  0.5600430000000  0.5729320000000 1.0
C      1  0.4799760000000  0.6065940000000  0.4858870000000 1.0
C      1  0.4494870000000  0.4278160000000  0.4217990000000 1.0
C      1  0.4631870000000  0.5058180000000  0.6028830000000 1.0
C      1  0.5755270000000  0.4546140000000  0.4172940000000 1.0
C      1  0.4057030000000  0.5036520000000  0.5166930000000 1.0
C      1  0.5188330000000  0.5599670000000  0.5449370000000 1.0
C      1  0.5324030000000  0.5898480000000  0.5818450000000 1.0
C      1  0.5249740000000  0.4046980000000  0.4841650000000 1.0
C      1  0.5999190000000  0.5241040000000  0.5617000000000 1.0
C      1  0.5238700000000  0.6062240000000  0.5265390000000 1.0
C      1  0.4976770000000  0.4115220000000  0.4252140000000 1.0
C      1  0.4605310000000  0.6087800000000  0.5067420000000 1.0
C      1  0.5164750000000  0.4748730000000  0.5583390000000 1.0
C      1  0.4453430000000  0.5395760000000  0.4875650000000 1.0
C      1  0.5304110000000  0.4401960000000  0.4499170000000 1.0
C      1  0.4160890000000  0.4344930000000  0.4536410000000 1.0
C      1  0.4387410000000  0.4861510000000  0.4677390000000 1.0
C      1  0.5285000000000  0.4467740000000  0.4010900000000 1.0
C      1  0.5010280000000  0.4475720000000  0.5092220000000 1.0
C      1  0.4839480000000  0.4614850000000  0.4113670000000 1.0
C      1  0.4583840000000  0.4215220000000  0.5501200000000 1.0
C      1  0.4265700000000  0.4324890000000  0.5156320000000 1.0
C      1  0.4728360000000  0.5317250000000  0.4060440000000 1.0
C      1  0.5560580000000  0.5156030000000  0.4888000000000 1.0
C      1  0.4922630000000  0.3983100000000  0.5181100000000 1.0
C      1  0.4400300000000  0.4957370000000  0.5738770000000 1.0
C      1  0.4914640000000  0.5041520000000  0.4417620000000 1.0
C      1  0.5148150000000  0.4414840000000  0.5965670000000 1.0
C      1  0.5191920000000  0.4935810000000  0.5353120000000 1.0
C      1  0.5530610000000  0.5782520000000  0.4571860000000 1.0
C      1  0.5334720000000  0.5774290000000  0.5260110000000 1.0
C      1  0.5723510000000  0.4637860000000  0.4885900000000 1.0
C      1  0.4505570000000  0.4676710000000  0.4899800000000 1.0
C      1  0.4170450000000  0.5165710000000  0.4330020000000 1.0
END
