TITL C-950533-5798-27 -1.56952563941094e-06 125000 -651.137404842346 0 0 106 (C1) n - 1
REM
REM in /home/bkarasulu/work/CARBON/AIRSS/Generating-Clusters/EDIP-Nigel-Params/with-SteepDescent/Only-C1/SD-CG/HFTN-CG
REM
REM
REM
REM
REM
REM ./C.cell (11c1c37f851c82e70ff6c80c92926a4b)
REM
REM compiler GCC version 9.2.1 20190827 (Red Hat 9.2.1-1)
REM options -cpp -mtune=generic -march=x86-64 -g -O0 -fpre-include=/usr/include/finclude/math-vector-fortran.h
REM seed -1447904707 -1166830150 461972583 1357927754 784308773 436746331 -781456817 549428558 1107809076 621192312 -152111261 -240629580 -1870015067 -186746319 -1723576056 1978161905 -2075652219 1877652646 2138844428 765108462 -1230756543 -236234793 446809384 10580535 187739726 -497431891 -1965670123 242080936 663459559 -1067097211 -1220879480 1308893085 1962720272
REM
CELL 1.54180   50.00000   50.00000   50.00000   90.00000   90.00000   90.00000
LATT -1
SFAC C  
C      1  0.6063420000000  0.5558980000000  0.5022740000000 1.0
C      1  0.5817910000000  0.5138540000000  0.4956640000000 1.0
C      1  0.5082360000000  0.5155360000000  0.4143670000000 1.0
C      1  0.4281580000000  0.5284700000000  0.5551890000000 1.0
C      1  0.4741320000000  0.4279600000000  0.4405990000000 1.0
C      1  0.5789970000000  0.4645990000000  0.4749100000000 1.0
C      1  0.4758670000000  0.5059820000000  0.5451990000000 1.0
C      1  0.5109380000000  0.5132660000000  0.5874950000000 1.0
C      1  0.4808120000000  0.4464830000000  0.4201860000000 1.0
C      1  0.5858210000000  0.5336030000000  0.5394360000000 1.0
C      1  0.5672510000000  0.4688360000000  0.5022350000000 1.0
C      1  0.5108440000000  0.4997440000000  0.4631100000000 1.0
C      1  0.5362650000000  0.5136920000000  0.5690680000000 1.0
C      1  0.5973650000000  0.5321250000000  0.5140060000000 1.0
C      1  0.5480380000000  0.5633360000000  0.4563590000000 1.0
C      1  0.4935380000000  0.5377890000000  0.5916740000000 1.0
C      1  0.5381880000000  0.5002870000000  0.4757560000000 1.0
C      1  0.5671260000000  0.4457370000000  0.5196130000000 1.0
C      1  0.5067760000000  0.4584520000000  0.5595630000000 1.0
C      1  0.4071980000000  0.4401710000000  0.4815300000000 1.0
C      1  0.5708000000000  0.4925560000000  0.5423600000000 1.0
C      1  0.4532800000000  0.5654320000000  0.4748410000000 1.0
C      1  0.5903930000000  0.4899760000000  0.4662920000000 1.0
C      1  0.4907350000000  0.4321040000000  0.5187080000000 1.0
C      1  0.5298140000000  0.4692730000000  0.5430820000000 1.0
C      1  0.5081950000000  0.4646480000000  0.5867400000000 1.0
C      1  0.5523580000000  0.5702200000000  0.5308570000000 1.0
C      1  0.4459090000000  0.4238520000000  0.4937700000000 1.0
C      1  0.4498560000000  0.5453340000000  0.5617440000000 1.0
C      1  0.4664000000000  0.5354300000000  0.4954250000000 1.0
C      1  0.4933020000000  0.5299510000000  0.5123000000000 1.0
C      1  0.4942570000000  0.5789310000000  0.5053010000000 1.0
C      1  0.5386860000000  0.4781880000000  0.4958220000000 1.0
C      1  0.4970120000000  0.4989550000000  0.5119490000000 1.0
C      1  0.5252900000000  0.4908250000000  0.5197270000000 1.0
C      1  0.5471250000000  0.4680970000000  0.4347340000000 1.0
C      1  0.5798600000000  0.4910230000000  0.5157070000000 1.0
C      1  0.4845960000000  0.4056980000000  0.5037180000000 1.0
C      1  0.4877550000000  0.5363850000000  0.5417070000000 1.0
C      1  0.5522860000000  0.5794960000000  0.5024890000000 1.0
C      1  0.5118800000000  0.4733230000000  0.4469670000000 1.0
C      1  0.5573050000000  0.5344630000000  0.5435410000000 1.0
C      1  0.4826590000000  0.5737330000000  0.5323970000000 1.0
C      1  0.4067930000000  0.5075600000000  0.5156860000000 1.0
C      1  0.5513650000000  0.5235390000000  0.4914120000000 1.0
C      1  0.4257490000000  0.4286960000000  0.4612750000000 1.0
C      1  0.4307980000000  0.4707950000000  0.5503530000000 1.0
C      1  0.4010250000000  0.4706680000000  0.4805780000000 1.0
C      1  0.4796770000000  0.5745770000000  0.4800880000000 1.0
C      1  0.5580420000000  0.4521210000000  0.4578930000000 1.0
C      1  0.4579100000000  0.4654350000000  0.5623990000000 1.0
C      1  0.5316680000000  0.4099450000000  0.4893690000000 1.0
C      1  0.5407050000000  0.4964280000000  0.4234790000000 1.0
C      1  0.5217940000000  0.4336560000000  0.5106090000000 1.0
C      1  0.5585290000000  0.5179670000000  0.4353980000000 1.0
C      1  0.4525810000000  0.5084140000000  0.5903370000000 1.0
C      1  0.5212080000000  0.5419520000000  0.5086490000000 1.0
C      1  0.4606030000000  0.5085790000000  0.4833490000000 1.0
C      1  0.4397780000000  0.5411700000000  0.5092300000000 1.0
C      1  0.5073050000000  0.5589740000000  0.5780770000000 1.0
C      1  0.5046500000000  0.4523960000000  0.4670620000000 1.0
C      1  0.5248320000000  0.5612620000000  0.5318240000000 1.0
C      1  0.4362100000000  0.5668660000000  0.5211580000000 1.0
C      1  0.4574770000000  0.5155550000000  0.4243650000000 1.0
C      1  0.5415740000000  0.4445170000000  0.5304320000000 1.0
C      1  0.5827640000000  0.5132850000000  0.4516030000000 1.0
C      1  0.5232670000000  0.5827910000000  0.4931410000000 1.0
C      1  0.5404770000000  0.5198560000000  0.5203560000000 1.0
C      1  0.4200660000000  0.4875830000000  0.4622670000000 1.0
C      1  0.4696910000000  0.4918720000000  0.5729640000000 1.0
C      1  0.4022360000000  0.4789030000000  0.5093630000000 1.0
C      1  0.4742460000000  0.4549070000000  0.5061020000000 1.0
C      1  0.4810090000000  0.5535340000000  0.4373850000000 1.0
C      1  0.4935260000000  0.4713750000000  0.4239530000000 1.0
C      1  0.5642350000000  0.5634820000000  0.4804340000000 1.0
C      1  0.4395310000000  0.4704320000000  0.4774050000000 1.0
C      1  0.4326660000000  0.5135850000000  0.4694640000000 1.0
C      1  0.4966320000000  0.5651000000000  0.4592020000000 1.0
C      1  0.4575520000000  0.3985700000000  0.4997420000000 1.0
C      1  0.4243590000000  0.4615840000000  0.5215990000000 1.0
C      1  0.5481290000000  0.4880660000000  0.5583480000000 1.0
C      1  0.4559880000000  0.5665240000000  0.5415670000000 1.0
C      1  0.4179870000000  0.5267960000000  0.4944610000000 1.0
C      1  0.5467870000000  0.4262860000000  0.4683690000000 1.0
C      1  0.5252960000000  0.4528760000000  0.4872830000000 1.0
C      1  0.4948390000000  0.4889580000000  0.5891420000000 1.0
C      1  0.4834020000000  0.5272160000000  0.4246800000000 1.0
C      1  0.5033130000000  0.4031320000000  0.4796850000000 1.0
C      1  0.4881580000000  0.4930620000000  0.4830960000000 1.0
C      1  0.5154730000000  0.5437830000000  0.5543460000000 1.0
C      1  0.4211510000000  0.4340160000000  0.5083920000000 1.0
C      1  0.5960250000000  0.5357310000000  0.4612320000000 1.0
C      1  0.4405960000000  0.5287250000000  0.4434030000000 1.0
C      1  0.4992660000000  0.4244570000000  0.4564630000000 1.0
C      1  0.5072030000000  0.4888260000000  0.4056290000000 1.0
C      1  0.4806960000000  0.4495800000000  0.5493240000000 1.0
C      1  0.4530970000000  0.5550180000000  0.4478490000000 1.0
C      1  0.4640510000000  0.5341960000000  0.5852450000000 1.0
C      1  0.5922270000000  0.5574780000000  0.4781420000000 1.0
C      1  0.5229310000000  0.5748660000000  0.4647250000000 1.0
C      1  0.4543060000000  0.5021260000000  0.5220620000000 1.0
C      1  0.4275240000000  0.5049290000000  0.5378180000000 1.0
C      1  0.4489990000000  0.4731960000000  0.5077830000000 1.0
C      1  0.4827750000000  0.4643240000000  0.4803440000000 1.0
C      1  0.5505600000000  0.5448420000000  0.4352910000000 1.0
C      1  0.4532490000000  0.4393500000000  0.4589150000000 1.0
END
