TITL C-951336-9012-709 2.64389988056638e-07 125000 -349.548158213914 0 0 58 (C1) n - 1
REM
REM in /home/bkarasulu/work/CARBON/AIRSS/Generating-Clusters/EDIP-Nigel-Params/with-SteepDescent/Only-C1/SD-CG/HFTN-CG
REM
REM
REM
REM
REM
REM ./C.cell (11c1c37f851c82e70ff6c80c92926a4b)
REM
REM compiler GCC version 9.2.1 20190827 (Red Hat 9.2.1-1)
REM options -cpp -mtune=generic -march=x86-64 -g -O0 -fpre-include=/usr/include/finclude/math-vector-fortran.h
REM seed 1159078813 1245685894 -269124164 -1870376156 -330482554 -755037966 -1106712276 14290258 1255971367 -1098601646 677995367 1899248502 -753949506 1354288841 1376741214 442382316 -880434395 -1988942569 505097095 -140548174 1238835568 -1245534014 -1171729508 -786090236 297618488 -128646123 -595883296 1975499552 -624920130 -261652805 303780837 1661356632 131909389
REM
CELL 1.54180   50.00000   50.00000   50.00000   90.00000   90.00000   90.00000
LATT -1
SFAC C  
C      1  0.4604760000000  0.5485850000000  0.5064420000000 1.0
C      1  0.4753140000000  0.4484350000000  0.4618850000000 1.0
C      1  0.5455860000000  0.5104500000000  0.5006660000000 1.0
C      1  0.5082860000000  0.5671440000000  0.4982540000000 1.0
C      1  0.5449660000000  0.4962240000000  0.5570480000000 1.0
C      1  0.5667700000000  0.5025170000000  0.5378890000000 1.0
C      1  0.5354180000000  0.4463850000000  0.4996430000000 1.0
C      1  0.5220940000000  0.5403200000000  0.5460280000000 1.0
C      1  0.5158380000000  0.4321710000000  0.4855600000000 1.0
C      1  0.4989310000000  0.5520260000000  0.4173980000000 1.0
C      1  0.4874610000000  0.5570640000000  0.5138430000000 1.0
C      1  0.4452320000000  0.5510500000000  0.4829150000000 1.0
C      1  0.4306730000000  0.5032480000000  0.4938590000000 1.0
C      1  0.5528790000000  0.4644830000000  0.4828080000000 1.0
C      1  0.4498310000000  0.4787710000000  0.4922000000000 1.0
C      1  0.5247110000000  0.4560110000000  0.5252790000000 1.0
C      1  0.4439250000000  0.4863470000000  0.5374070000000 1.0
C      1  0.5034880000000  0.4758980000000  0.4930130000000 1.0
C      1  0.4825950000000  0.5343510000000  0.4474430000000 1.0
C      1  0.5037510000000  0.4686410000000  0.5706260000000 1.0
C      1  0.4981670000000  0.5113720000000  0.4373610000000 1.0
C      1  0.5060560000000  0.5005870000000  0.5375790000000 1.0
C      1  0.5427700000000  0.5462070000000  0.5255760000000 1.0
C      1  0.4782980000000  0.4869030000000  0.5288630000000 1.0
C      1  0.5340780000000  0.5557480000000  0.4983480000000 1.0
C      1  0.5273090000000  0.4712660000000  0.5519900000000 1.0
C      1  0.4501780000000  0.5324780000000  0.5285420000000 1.0
C      1  0.4537680000000  0.4850050000000  0.4426940000000 1.0
C      1  0.5456260000000  0.5380420000000  0.4523000000000 1.0
C      1  0.5664500000000  0.5293320000000  0.5265530000000 1.0
C      1  0.4799570000000  0.4866720000000  0.4319530000000 1.0
C      1  0.4746410000000  0.5544460000000  0.4302820000000 1.0
C      1  0.4871490000000  0.4576920000000  0.5312130000000 1.0
C      1  0.4425110000000  0.4603500000000  0.5177940000000 1.0
C      1  0.4770000000000  0.4895940000000  0.4990250000000 1.0
C      1  0.4516920000000  0.4664770000000  0.4641990000000 1.0
C      1  0.4925190000000  0.4937880000000  0.5769090000000 1.0
C      1  0.4718690000000  0.5267820000000  0.5471870000000 1.0
C      1  0.5131750000000  0.5266670000000  0.4160160000000 1.0
C      1  0.5193520000000  0.4971280000000  0.5098080000000 1.0
C      1  0.5466670000000  0.4950800000000  0.4438600000000 1.0
C      1  0.5140940000000  0.4747410000000  0.4639020000000 1.0
C      1  0.5279940000000  0.5187340000000  0.5642630000000 1.0
C      1  0.4632110000000  0.4422910000000  0.5269860000000 1.0
C      1  0.4942700000000  0.5429340000000  0.5380300000000 1.0
C      1  0.4690930000000  0.5064050000000  0.5678570000000 1.0
C      1  0.5658720000000  0.4876810000000  0.4961550000000 1.0
C      1  0.4341000000000  0.5265820000000  0.4784790000000 1.0
C      1  0.4938320000000  0.4637620000000  0.4446620000000 1.0
C      1  0.4893700000000  0.4406040000000  0.4861590000000 1.0
C      1  0.5400920000000  0.5335290000000  0.4798350000000 1.0
C      1  0.4320520000000  0.5097730000000  0.5229240000000 1.0
C      1  0.5408720000000  0.5283760000000  0.4261330000000 1.0
C      1  0.5201360000000  0.5024110000000  0.4554880000000 1.0
C      1  0.4455820000000  0.4905540000000  0.5665880000000 1.0
C      1  0.5503610000000  0.4678390000000  0.4539070000000 1.0
C      1  0.5771530000000  0.4816250000000  0.5215310000000 1.0
C      1  0.4844590000000  0.4504220000000  0.5588400000000 1.0
END
