TITL C-950530-3293-147 -9.03571819801061e-07 125000 -227.439890875415 0 0 38 (C1) n - 1
REM
REM in /home/bkarasulu/work/CARBON/AIRSS/Generating-Clusters/EDIP-Nigel-Params/with-SteepDescent/Only-C1/SD-CG/HFTN-CG
REM
REM
REM
REM
REM
REM ./C.cell (11c1c37f851c82e70ff6c80c92926a4b)
REM
REM compiler GCC version 9.2.1 20190827 (Red Hat 9.2.1-1)
REM options -cpp -mtune=generic -march=x86-64 -g -O0 -fpre-include=/usr/include/finclude/math-vector-fortran.h
REM seed 988181918 163262581 -133884024 666763061 516414490 1757521107 -1365423252 -1153185310 -1317884258 253674083 -997512583 1159488079 742965838 305646726 318286117 -2037516030 1670154260 666290584 1445526683 -551402217 -1904377700 1270438702 -945227682 995861437 1012068588 1864884532 -874264453 912234400 -663964249 2011977243 425181050 -537922640 771651988
REM
CELL 1.54180   50.00000   50.00000   50.00000   90.00000   90.00000   90.00000
LATT -1
SFAC C  
C      1  0.5560390000000  0.5063550000000  0.4720960000000 1.0
C      1  0.5380620000000  0.5232520000000  0.4852890000000 1.0
C      1  0.5022710000000  0.5103580000000  0.5186240000000 1.0
C      1  0.4501070000000  0.5130110000000  0.5392830000000 1.0
C      1  0.5112670000000  0.5224940000000  0.4723660000000 1.0
C      1  0.4716740000000  0.5507440000000  0.5186360000000 1.0
C      1  0.5038970000000  0.4530600000000  0.5194550000000 1.0
C      1  0.5503010000000  0.4872530000000  0.4537760000000 1.0
C      1  0.4616290000000  0.5253590000000  0.4653800000000 1.0
C      1  0.4945730000000  0.5385010000000  0.5292560000000 1.0
C      1  0.5533260000000  0.5092540000000  0.5343810000000 1.0
C      1  0.4491260000000  0.4834990000000  0.4468830000000 1.0
C      1  0.5076110000000  0.4551590000000  0.5478920000000 1.0
C      1  0.4602970000000  0.5085740000000  0.4405820000000 1.0
C      1  0.4636870000000  0.4882530000000  0.5403500000000 1.0
C      1  0.4573120000000  0.4718820000000  0.4715880000000 1.0
C      1  0.5233220000000  0.5482400000000  0.5280320000000 1.0
C      1  0.4526750000000  0.5298960000000  0.5170380000000 1.0
C      1  0.4731030000000  0.5512910000000  0.4626020000000 1.0
C      1  0.5397840000000  0.5482870000000  0.5507310000000 1.0
C      1  0.4849280000000  0.4968310000000  0.4316580000000 1.0
C      1  0.5253660000000  0.4756930000000  0.5564430000000 1.0
C      1  0.5489470000000  0.4805180000000  0.5400360000000 1.0
C      1  0.4434850000000  0.4854070000000  0.4941670000000 1.0
C      1  0.4929300000000  0.5057610000000  0.4899070000000 1.0
C      1  0.4998100000000  0.5475880000000  0.4660770000000 1.0
C      1  0.5496230000000  0.4641860000000  0.5169510000000 1.0
C      1  0.4558690000000  0.4703310000000  0.5176280000000 1.0
C      1  0.4877770000000  0.4774490000000  0.4781620000000 1.0
C      1  0.5326720000000  0.5206230000000  0.5151520000000 1.0
C      1  0.4781270000000  0.4542520000000  0.5067550000000 1.0
C      1  0.5551220000000  0.5265890000000  0.5566470000000 1.0
C      1  0.5274710000000  0.4710790000000  0.4528560000000 1.0
C      1  0.5276980000000  0.4537290000000  0.5034410000000 1.0
C      1  0.5013590000000  0.4843850000000  0.4519220000000 1.0
C      1  0.5250810000000  0.4553970000000  0.4758720000000 1.0
C      1  0.4937500000000  0.4903270000000  0.5405190000000 1.0
C      1  0.4499200000000  0.5151300000000  0.4915670000000 1.0
END
