TITL C-950525-1983-101 -1.01056467902864e-06 125000 -1224.04902021215 0 0 197 (C1) n - 1
REM
REM in /home/bkarasulu/work/CARBON/AIRSS/Generating-Clusters/EDIP-Nigel-Params/with-SteepDescent/Only-C1/SD-CG/HFTN-CG
REM
REM
REM
REM
REM
REM ./C.cell (11c1c37f851c82e70ff6c80c92926a4b)
REM
REM compiler GCC version 9.2.1 20190827 (Red Hat 9.2.1-1)
REM options -cpp -mtune=generic -march=x86-64 -g -O0 -fpre-include=/usr/include/finclude/math-vector-fortran.h
REM seed -478181007 1192358954 232198723 -1571235925 -1548736205 -719250602 -794090549 2146757425 1133334242 1993444963 204382755 -391841883 614054745 1946345073 614175346 -2044319233 -2036484557 -751990777 -118723969 791402340 -502609352 1274571005 -252545711 -1835101605 -56902550 -27093229 -1875642074 -270363383 364443209 970553898 1716029841 -479872428 1903366286
REM
CELL 1.54180   50.00000   50.00000   50.00000   90.00000   90.00000   90.00000
LATT -1
SFAC C  
C      1  0.5009680000000  0.4453350000000  0.4419760000000 1.0
C      1  0.4869520000000  0.5461040000000  0.4467680000000 1.0
C      1  0.4769940000000  0.5547310000000  0.4049820000000 1.0
C      1  0.4657730000000  0.5995040000000  0.4488140000000 1.0
C      1  0.5084220000000  0.6112940000000  0.4478410000000 1.0
C      1  0.5728830000000  0.5961070000000  0.5506450000000 1.0
C      1  0.5249500000000  0.4349500000000  0.5772960000000 1.0
C      1  0.4511470000000  0.5054920000000  0.5531070000000 1.0
C      1  0.5466100000000  0.4170040000000  0.5686970000000 1.0
C      1  0.5073520000000  0.4974840000000  0.6139940000000 1.0
C      1  0.3904020000000  0.4817770000000  0.5508640000000 1.0
C      1  0.4797830000000  0.3784130000000  0.4615690000000 1.0
C      1  0.5427670000000  0.5263690000000  0.4362220000000 1.0
C      1  0.4344990000000  0.4562350000000  0.5433370000000 1.0
C      1  0.4505310000000  0.5916710000000  0.5246820000000 1.0
C      1  0.3978560000000  0.4523000000000  0.4679630000000 1.0
C      1  0.5453670000000  0.4286470000000  0.4531080000000 1.0
C      1  0.5260680000000  0.5272340000000  0.5267840000000 1.0
C      1  0.5456990000000  0.4493450000000  0.4067640000000 1.0
C      1  0.5530470000000  0.4321340000000  0.4263630000000 1.0
C      1  0.5879150000000  0.4782910000000  0.4313880000000 1.0
C      1  0.4283750000000  0.4836010000000  0.4411720000000 1.0
C      1  0.4606800000000  0.5113600000000  0.4188130000000 1.0
C      1  0.5282620000000  0.4880210000000  0.5939250000000 1.0
C      1  0.5168130000000  0.4970640000000  0.5659010000000 1.0
C      1  0.5579720000000  0.4907420000000  0.4701900000000 1.0
C      1  0.5208800000000  0.6039230000000  0.5599720000000 1.0
C      1  0.4894210000000  0.4297840000000  0.3990540000000 1.0
C      1  0.5313950000000  0.5372340000000  0.6101680000000 1.0
C      1  0.5246080000000  0.5576150000000  0.5438350000000 1.0
C      1  0.5123230000000  0.4006190000000  0.4321740000000 1.0
C      1  0.4378000000000  0.5294260000000  0.5800030000000 1.0
C      1  0.4624230000000  0.5265680000000  0.4474800000000 1.0
C      1  0.4377510000000  0.5545770000000  0.5675390000000 1.0
C      1  0.4362520000000  0.4845130000000  0.5330660000000 1.0
C      1  0.4634840000000  0.5428330000000  0.5021890000000 1.0
C      1  0.5222380000000  0.5860890000000  0.4570740000000 1.0
C      1  0.5106100000000  0.4933000000000  0.4471690000000 1.0
C      1  0.4444200000000  0.3994160000000  0.5335210000000 1.0
C      1  0.5370000000000  0.5571650000000  0.5720220000000 1.0
C      1  0.4982410000000  0.4199770000000  0.5822900000000 1.0
C      1  0.5044380000000  0.4783070000000  0.4007200000000 1.0
C      1  0.5349670000000  0.4735740000000  0.3982060000000 1.0
C      1  0.4930280000000  0.5963400000000  0.5458510000000 1.0
C      1  0.5635110000000  0.5411670000000  0.5744690000000 1.0
C      1  0.4735700000000  0.5039770000000  0.4678150000000 1.0
C      1  0.4164040000000  0.4546290000000  0.4404260000000 1.0
C      1  0.4862800000000  0.4570370000000  0.3884990000000 1.0
C      1  0.5502990000000  0.5923650000000  0.4664020000000 1.0
C      1  0.4957700000000  0.5183250000000  0.5658330000000 1.0
C      1  0.5093060000000  0.4022400000000  0.5375180000000 1.0
C      1  0.4849520000000  0.4749170000000  0.5330760000000 1.0
C      1  0.5685430000000  0.4361870000000  0.4991520000000 1.0
C      1  0.6132530000000  0.4928340000000  0.5152070000000 1.0
C      1  0.5557630000000  0.5278970000000  0.5995690000000 1.0
C      1  0.5344060000000  0.3986860000000  0.4917670000000 1.0
C      1  0.4267780000000  0.5729970000000  0.5222710000000 1.0
C      1  0.5259940000000  0.5963170000000  0.5105730000000 1.0
C      1  0.5939980000000  0.5613150000000  0.4741340000000 1.0
C      1  0.5632450000000  0.5853520000000  0.5752620000000 1.0
C      1  0.4998010000000  0.5143080000000  0.5157390000000 1.0
C      1  0.3961340000000  0.5240840000000  0.4429540000000 1.0
C      1  0.3837430000000  0.5276690000000  0.5305070000000 1.0
C      1  0.3927110000000  0.4428560000000  0.5190960000000 1.0
C      1  0.4552210000000  0.5627900000000  0.4216310000000 1.0
C      1  0.4628430000000  0.4844580000000  0.4344340000000 1.0
C      1  0.5266820000000  0.5722770000000  0.4085460000000 1.0
C      1  0.4587410000000  0.5747020000000  0.5731120000000 1.0
C      1  0.5401300000000  0.5259540000000  0.5003240000000 1.0
C      1  0.5829640000000  0.4130060000000  0.5370670000000 1.0
C      1  0.6072270000000  0.5165930000000  0.4742160000000 1.0
C      1  0.4287070000000  0.4489410000000  0.5739880000000 1.0
C      1  0.4571520000000  0.4312990000000  0.5148090000000 1.0
C      1  0.4875880000000  0.6019470000000  0.4285290000000 1.0
C      1  0.4969820000000  0.6255350000000  0.4696900000000 1.0
C      1  0.6152860000000  0.5204880000000  0.5252900000000 1.0
C      1  0.4944920000000  0.5646890000000  0.5484910000000 1.0
C      1  0.4444960000000  0.5196770000000  0.5035140000000 1.0
C      1  0.5718890000000  0.5150220000000  0.4044370000000 1.0
C      1  0.6026410000000  0.5387080000000  0.4933310000000 1.0
C      1  0.4527290000000  0.4306840000000  0.4620520000000 1.0
C      1  0.4372370000000  0.4332350000000  0.4357410000000 1.0
C      1  0.4561650000000  0.4821030000000  0.5723340000000 1.0
C      1  0.5010730000000  0.4723530000000  0.5588960000000 1.0
C      1  0.4085550000000  0.5001140000000  0.5639450000000 1.0
C      1  0.4978830000000  0.5049330000000  0.3902140000000 1.0
C      1  0.5073320000000  0.4321340000000  0.5314930000000 1.0
C      1  0.4374280000000  0.4494040000000  0.4997690000000 1.0
C      1  0.4412830000000  0.5066430000000  0.3956820000000 1.0
C      1  0.4509860000000  0.4279650000000  0.5775940000000 1.0
C      1  0.5356760000000  0.4026500000000  0.4620870000000 1.0
C      1  0.5053800000000  0.5270710000000  0.6124650000000 1.0
C      1  0.4702600000000  0.4789390000000  0.4858230000000 1.0
C      1  0.5813870000000  0.4733990000000  0.4584390000000 1.0
C      1  0.4199860000000  0.5540930000000  0.5454800000000 1.0
C      1  0.5072030000000  0.5705460000000  0.4781800000000 1.0
C      1  0.5759350000000  0.5222910000000  0.5536710000000 1.0
C      1  0.5090140000000  0.3956450000000  0.5067670000000 1.0
C      1  0.5134400000000  0.4433710000000  0.4892320000000 1.0
C      1  0.4509580000000  0.4577470000000  0.4758950000000 1.0
C      1  0.5198680000000  0.5636350000000  0.4362670000000 1.0
C      1  0.4105830000000  0.5486440000000  0.4485320000000 1.0
C      1  0.4483350000000  0.5774040000000  0.4453780000000 1.0
C      1  0.5925500000000  0.5050160000000  0.4238950000000 1.0
C      1  0.4445260000000  0.4044580000000  0.4819340000000 1.0
C      1  0.4625870000000  0.5961690000000  0.5519470000000 1.0
C      1  0.6105080000000  0.4911430000000  0.4868090000000 1.0
C      1  0.5098670000000  0.4274760000000  0.4193500000000 1.0
C      1  0.5535570000000  0.4946840000000  0.3961520000000 1.0
C      1  0.4814800000000  0.4667030000000  0.5832470000000 1.0
C      1  0.4581590000000  0.5247930000000  0.5987780000000 1.0
C      1  0.5653750000000  0.5581310000000  0.5207430000000 1.0
C      1  0.5486040000000  0.5544680000000  0.4963680000000 1.0
C      1  0.5958040000000  0.5508400000000  0.4454280000000 1.0
C      1  0.5199820000000  0.4496140000000  0.5519730000000 1.0
C      1  0.4275200000000  0.4819710000000  0.5855510000000 1.0
C      1  0.4226070000000  0.4910960000000  0.4695680000000 1.0
C      1  0.5723150000000  0.5601120000000  0.4320470000000 1.0
C      1  0.4369580000000  0.5378180000000  0.4602480000000 1.0
C      1  0.4758690000000  0.4378100000000  0.5897650000000 1.0
C      1  0.5246960000000  0.4488130000000  0.4608660000000 1.0
C      1  0.5352130000000  0.4573420000000  0.5958090000000 1.0
C      1  0.5230540000000  0.5691000000000  0.5010190000000 1.0
C      1  0.6039820000000  0.4671430000000  0.4739390000000 1.0
C      1  0.5326520000000  0.4781650000000  0.4589920000000 1.0
C      1  0.4438420000000  0.4814200000000  0.3843110000000 1.0
C      1  0.3956380000000  0.4810930000000  0.4756700000000 1.0
C      1  0.4535250000000  0.4366790000000  0.4109880000000 1.0
C      1  0.4820340000000  0.4251660000000  0.4565090000000 1.0
C      1  0.5613220000000  0.5173910000000  0.4569620000000 1.0
C      1  0.4866470000000  0.5242840000000  0.4083900000000 1.0
C      1  0.6033520000000  0.4984610000000  0.5686820000000 1.0
C      1  0.4151560000000  0.5135410000000  0.4009990000000 1.0
C      1  0.6068720000000  0.5233040000000  0.5540830000000 1.0
C      1  0.4097880000000  0.4388450000000  0.4932610000000 1.0
C      1  0.5795940000000  0.4539540000000  0.5705990000000 1.0
C      1  0.5575270000000  0.5402540000000  0.4151350000000 1.0
C      1  0.4709190000000  0.3923950000000  0.4846450000000 1.0
C      1  0.4010570000000  0.5570300000000  0.4777350000000 1.0
C      1  0.5347070000000  0.5883550000000  0.5821050000000 1.0
C      1  0.4859590000000  0.5332040000000  0.5898850000000 1.0
C      1  0.4250940000000  0.5639660000000  0.4939770000000 1.0
C      1  0.5661300000000  0.4335690000000  0.5527520000000 1.0
C      1  0.5070420000000  0.4851640000000  0.5150150000000 1.0
C      1  0.5577170000000  0.3848240000000  0.5352650000000 1.0
C      1  0.5449440000000  0.4551850000000  0.5342190000000 1.0
C      1  0.5802870000000  0.4100760000000  0.5071940000000 1.0
C      1  0.5369740000000  0.5044820000000  0.5448590000000 1.0
C      1  0.5778620000000  0.5302790000000  0.5216020000000 1.0
C      1  0.4991510000000  0.4702710000000  0.4914750000000 1.0
C      1  0.5738860000000  0.6024210000000  0.5049780000000 1.0
C      1  0.4500400000000  0.5691620000000  0.4772590000000 1.0
C      1  0.3886520000000  0.5292850000000  0.4810720000000 1.0
C      1  0.4312320000000  0.4031560000000  0.5081620000000 1.0
C      1  0.4047470000000  0.5278400000000  0.5485140000000 1.0
C      1  0.3835310000000  0.4707470000000  0.5250930000000 1.0
C      1  0.5014180000000  0.5439190000000  0.4714450000000 1.0
C      1  0.5361060000000  0.3958140000000  0.5510910000000 1.0
C      1  0.5393560000000  0.4842580000000  0.5227670000000 1.0
C      1  0.4102450000000  0.4386440000000  0.5415150000000 1.0
C      1  0.4902310000000  0.4155520000000  0.4937310000000 1.0
C      1  0.3800590000000  0.5162120000000  0.5057630000000 1.0
C      1  0.5626560000000  0.5648800000000  0.4692830000000 1.0
C      1  0.5589200000000  0.3886450000000  0.5055490000000 1.0
C      1  0.5904520000000  0.5216250000000  0.4495150000000 1.0
C      1  0.4589500000000  0.4616760000000  0.3969370000000 1.0
C      1  0.5993890000000  0.4718100000000  0.5288780000000 1.0
C      1  0.5401380000000  0.5522390000000  0.3949060000000 1.0
C      1  0.4732750000000  0.6110220000000  0.4751600000000 1.0
C      1  0.5375260000000  0.5882640000000  0.5381270000000 1.0
C      1  0.4860620000000  0.5260010000000  0.4889280000000 1.0
C      1  0.4963000000000  0.6053500000000  0.5173140000000 1.0
C      1  0.5135470000000  0.5209030000000  0.4362680000000 1.0
C      1  0.4858850000000  0.5618830000000  0.5791960000000 1.0
C      1  0.4573610000000  0.4931760000000  0.5120410000000 1.0
C      1  0.4605330000000  0.4119490000000  0.5542810000000 1.0
C      1  0.5858910000000  0.4538300000000  0.5125960000000 1.0
C      1  0.5396610000000  0.4390080000000  0.5087030000000 1.0
C      1  0.4714090000000  0.5982870000000  0.5025520000000 1.0
C      1  0.4816670000000  0.4831140000000  0.6086680000000 1.0
C      1  0.4936690000000  0.4750270000000  0.4311290000000 1.0
C      1  0.5493920000000  0.6071310000000  0.4923310000000 1.0
C      1  0.5644070000000  0.4620830000000  0.5939830000000 1.0
C      1  0.4257660000000  0.5186990000000  0.4803370000000 1.0
C      1  0.4880470000000  0.4030670000000  0.5595210000000 1.0
C      1  0.4098570000000  0.5042990000000  0.4267980000000 1.0
C      1  0.5927320000000  0.4753890000000  0.5562460000000 1.0
C      1  0.5791670000000  0.5838240000000  0.5253040000000 1.0
C      1  0.4786830000000  0.5186910000000  0.5415170000000 1.0
C      1  0.5555550000000  0.4991950000000  0.5978140000000 1.0
C      1  0.4962020000000  0.5781610000000  0.4092160000000 1.0
C      1  0.4743860000000  0.5471310000000  0.5315700000000 1.0
C      1  0.4861250000000  0.3989170000000  0.4437520000000 1.0
C      1  0.5559810000000  0.5006880000000  0.5007460000000 1.0
C      1  0.4821040000000  0.4459380000000  0.5244850000000 1.0
C      1  0.4547840000000  0.4975280000000  0.6081430000000 1.0
C      1  0.3874410000000  0.4887880000000  0.5029600000000 1.0
END
