TITL C-950521-2237-461 0.000108688530694409 125000 -143.546669277438 0 0 25 (C1) n - 1
REM
REM in /home/bkarasulu/work/CARBON/AIRSS/Generating-Clusters/EDIP-Nigel-Params/with-SteepDescent/Only-C1/SD-CG/HFTN-CG
REM
REM
REM
REM
REM
REM ./C.cell (11c1c37f851c82e70ff6c80c92926a4b)
REM
REM compiler GCC version 9.2.1 20190827 (Red Hat 9.2.1-1)
REM options -cpp -mtune=generic -march=x86-64 -g -O0 -fpre-include=/usr/include/finclude/math-vector-fortran.h
REM seed -2119178485 255479920 731162512 1939121133 -108460068 740208518 -393181676 252477243 -748944215 26557692 -521706926 -1371191105 -1161850383 416170289 2091450278 -1034588790 -136896371 -1243202388 -729059583 -51736322 626023472 -283090057 -992647199 2138351073 765810100 -1292184351 1572683796 323578204 1179607250 112729855 -883765806 -781895273 39278404
REM
CELL 1.54180   50.00000   50.00000   50.00000   90.00000   90.00000   90.00000
LATT -1
SFAC C  
C      1  0.4853930000000  0.4525130000000  0.4565520000000 1.0
C      1  0.4995500000000  0.4995380000000  0.5168420000000 1.0
C      1  0.4800830000000  0.4758460000000  0.4723590000000 1.0
C      1  0.4542620000000  0.4782290000000  0.4868040000000 1.0
C      1  0.5322420000000  0.5649300000000  0.5139160000000 1.0
C      1  0.4921030000000  0.4728880000000  0.5084920000000 1.0
C      1  0.5500670000000  0.5109620000000  0.5166730000000 1.0
C      1  0.5426250000000  0.5490200000000  0.5379010000000 1.0
C      1  0.4663940000000  0.4190920000000  0.4899330000000 1.0
C      1  0.4774870000000  0.4282350000000  0.4672610000000 1.0
C      1  0.4790410000000  0.5190670000000  0.5242690000000 1.0
C      1  0.4639650000000  0.4638710000000  0.5113520000000 1.0
C      1  0.5196710000000  0.5318690000000  0.5463420000000 1.0
C      1  0.5000110000000  0.5636410000000  0.5154790000000 1.0
C      1  0.4557920000000  0.5226320000000  0.5091120000000 1.0
C      1  0.5227220000000  0.4545710000000  0.4191190000000 1.0
C      1  0.4605070000000  0.4361810000000  0.5098770000000 1.0
C      1  0.5243670000000  0.5054310000000  0.5318320000000 1.0
C      1  0.5058680000000  0.5514690000000  0.4889960000000 1.0
C      1  0.5444070000000  0.5213040000000  0.4909490000000 1.0
C      1  0.5059550000000  0.4532480000000  0.4384260000000 1.0
C      1  0.4927860000000  0.5429270000000  0.5363880000000 1.0
C      1  0.5640420000000  0.5308840000000  0.5318470000000 1.0
C      1  0.5348600000000  0.5473930000000  0.4870520000000 1.0
C      1  0.4458010000000  0.5042570000000  0.4922280000000 1.0
END
