TITL C-951335-1172-366 1.8300924607719e-05 125000 -234.790522521027 0 0 39 (C1) n - 1
REM
REM in /home/bkarasulu/work/CARBON/AIRSS/Generating-Clusters/EDIP-Nigel-Params/with-SteepDescent/Only-C1/SD-CG/HFTN-CG
REM
REM
REM
REM
REM
REM ./C.cell (11c1c37f851c82e70ff6c80c92926a4b)
REM
REM compiler GCC version 9.2.1 20190827 (Red Hat 9.2.1-1)
REM options -cpp -mtune=generic -march=x86-64 -g -O0 -fpre-include=/usr/include/finclude/math-vector-fortran.h
REM seed 115308194 175064101 -535188248 1292656393 199901827 -1694789701 2043615451 -2140747806 713779397 -1478811401 852593797 -118626476 1544132337 467063874 -739113905 102707057 1490737143 26105227 -1498820016 1891677808 -1317970173 119427757 -1581499156 -1133675673 1003744053 -524220027 2037418223 -1740675658 1111025969 -452819799 -1639246395 -642765218 1386220515
REM
CELL 1.54180   50.00000   50.00000   50.00000   90.00000   90.00000   90.00000
LATT -1
SFAC C  
C      1  0.5086050000000  0.5505790000000  0.4933150000000 1.0
C      1  0.4990960000000  0.4993800000000  0.5639020000000 1.0
C      1  0.5335830000000  0.5339460000000  0.5439060000000 1.0
C      1  0.4959880000000  0.5284250000000  0.4765580000000 1.0
C      1  0.4531660000000  0.4582770000000  0.4909980000000 1.0
C      1  0.4502110000000  0.5128570000000  0.5296740000000 1.0
C      1  0.5186340000000  0.4772000000000  0.5287620000000 1.0
C      1  0.4363420000000  0.4291320000000  0.4501480000000 1.0
C      1  0.4967480000000  0.5504940000000  0.5207500000000 1.0
C      1  0.5332220000000  0.5309180000000  0.4430880000000 1.0
C      1  0.5230290000000  0.4539800000000  0.5106960000000 1.0
C      1  0.5439750000000  0.4859890000000  0.5435750000000 1.0
C      1  0.5288700000000  0.5014580000000  0.4379840000000 1.0
C      1  0.4961900000000  0.4735540000000  0.5481690000000 1.0
C      1  0.4660730000000  0.5254810000000  0.4765280000000 1.0
C      1  0.5144210000000  0.5547540000000  0.5426020000000 1.0
C      1  0.5009940000000  0.4989630000000  0.4309920000000 1.0
C      1  0.5527370000000  0.4821910000000  0.4930540000000 1.0
C      1  0.4811730000000  0.5197230000000  0.4324740000000 1.0
C      1  0.4748780000000  0.4508760000000  0.5083000000000 1.0
C      1  0.5000830000000  0.4414600000000  0.5010900000000 1.0
C      1  0.4732350000000  0.4701840000000  0.5296860000000 1.0
C      1  0.5080860000000  0.5017220000000  0.4844740000000 1.0
C      1  0.5028300000000  0.5347940000000  0.4478310000000 1.0
C      1  0.4376310000000  0.4791210000000  0.5035110000000 1.0
C      1  0.5350440000000  0.4978190000000  0.4724630000000 1.0
C      1  0.5295610000000  0.5082240000000  0.5604060000000 1.0
C      1  0.5472310000000  0.5268800000000  0.4697040000000 1.0
C      1  0.5568490000000  0.4984710000000  0.5182920000000 1.0
C      1  0.5109700000000  0.5044200000000  0.5133700000000 1.0
C      1  0.4807910000000  0.5185950000000  0.5518640000000 1.0
C      1  0.4870380000000  0.5225160000000  0.5230360000000 1.0
C      1  0.4590990000000  0.5182310000000  0.4501480000000 1.0
C      1  0.5365830000000  0.5215410000000  0.5169580000000 1.0
C      1  0.5378260000000  0.5423540000000  0.4942140000000 1.0
C      1  0.5467550000000  0.4548670000000  0.4964360000000 1.0
C      1  0.4436060000000  0.4422140000000  0.4709140000000 1.0
C      1  0.4515630000000  0.5146510000000  0.4993720000000 1.0
C      1  0.4472810000000  0.4837580000000  0.5307580000000 1.0
END
