TITL C-951338-5626-500 -2.88779399110117e-06 125000 -922.870160961076 0 0 147 (C1) n - 1
REM
REM in /home/bkarasulu/work/CARBON/AIRSS/Generating-Clusters/EDIP-Nigel-Params/with-SteepDescent/Only-C1/SD-CG/HFTN-CG
REM
REM
REM
REM
REM
REM ./C.cell (11c1c37f851c82e70ff6c80c92926a4b)
REM
REM compiler GCC version 9.2.1 20190827 (Red Hat 9.2.1-1)
REM options -cpp -mtune=generic -march=x86-64 -g -O0 -fpre-include=/usr/include/finclude/math-vector-fortran.h
REM seed -997453323 -1933874672 887886607 -1788110732 1365587404 1252627793 -381469726 -1293252509 -740879820 887632841 1486236976 390353516 -514644707 568892185 -385867222 -913688414 -1735853688 -1165921951 457363250 257964195 -56139581 1816091683 179947580 -1117108557 -1256882445 -647599220 -815457118 -745047663 -882979629 -370066836 -544442471 -964258120 -1497131094
REM
CELL 1.54180   50.00000   50.00000   50.00000   90.00000   90.00000   90.00000
LATT -1
SFAC C  
C      1  0.4600190000000  0.4731020000000  0.4554170000000 1.0
C      1  0.5165580000000  0.4197570000000  0.5444240000000 1.0
C      1  0.4599590000000  0.3954790000000  0.4832600000000 1.0
C      1  0.4720070000000  0.5473650000000  0.5794730000000 1.0
C      1  0.5999200000000  0.4940980000000  0.4538320000000 1.0
C      1  0.5832090000000  0.5374050000000  0.4672100000000 1.0
C      1  0.4872580000000  0.4431610000000  0.4271730000000 1.0
C      1  0.4549390000000  0.5317440000000  0.4132500000000 1.0
C      1  0.5538100000000  0.5446810000000  0.4259280000000 1.0
C      1  0.4606260000000  0.5073020000000  0.4554420000000 1.0
C      1  0.5846640000000  0.4502840000000  0.4404180000000 1.0
C      1  0.5374720000000  0.4318850000000  0.5024390000000 1.0
C      1  0.5610340000000  0.5621730000000  0.5480620000000 1.0
C      1  0.4960280000000  0.4847080000000  0.4879480000000 1.0
C      1  0.4387430000000  0.5523150000000  0.4251900000000 1.0
C      1  0.5809230000000  0.5190330000000  0.5454520000000 1.0
C      1  0.4390620000000  0.4474650000000  0.5733350000000 1.0
C      1  0.5154250000000  0.5416280000000  0.3960230000000 1.0
C      1  0.5797550000000  0.4455670000000  0.5048140000000 1.0
C      1  0.5157180000000  0.4696690000000  0.5074230000000 1.0
C      1  0.5413270000000  0.4228180000000  0.5300830000000 1.0
C      1  0.4835060000000  0.5755320000000  0.4783000000000 1.0
C      1  0.4301690000000  0.5214590000000  0.5747170000000 1.0
C      1  0.5968820000000  0.5127190000000  0.4764080000000 1.0
C      1  0.5794570000000  0.4527970000000  0.5336870000000 1.0
C      1  0.4424710000000  0.5489380000000  0.5735200000000 1.0
C      1  0.5887050000000  0.4718470000000  0.5569530000000 1.0
C      1  0.6133990000000  0.4885660000000  0.5120040000000 1.0
C      1  0.5886120000000  0.4953070000000  0.4993610000000 1.0
C      1  0.4156150000000  0.5079470000000  0.4837820000000 1.0
C      1  0.4346840000000  0.4625420000000  0.4670020000000 1.0
C      1  0.5592300000000  0.4887710000000  0.4263970000000 1.0
C      1  0.5341260000000  0.5429100000000  0.5097180000000 1.0
C      1  0.4418830000000  0.5635560000000  0.5448400000000 1.0
C      1  0.5109090000000  0.4625740000000  0.4324340000000 1.0
C      1  0.5157010000000  0.4802360000000  0.4056920000000 1.0
C      1  0.4683520000000  0.5431370000000  0.5156540000000 1.0
C      1  0.5449140000000  0.5319500000000  0.4665810000000 1.0
C      1  0.5164130000000  0.4779730000000  0.5373230000000 1.0
C      1  0.5374950000000  0.5000080000000  0.4113790000000 1.0
C      1  0.4619490000000  0.5879420000000  0.4954190000000 1.0
C      1  0.4826400000000  0.4441530000000  0.5634740000000 1.0
C      1  0.4278520000000  0.4986510000000  0.4371980000000 1.0
C      1  0.4191780000000  0.4239170000000  0.4929000000000 1.0
C      1  0.4639990000000  0.4616200000000  0.4275030000000 1.0
C      1  0.4645290000000  0.4552510000000  0.5184690000000 1.0
C      1  0.4904380000000  0.4913920000000  0.3980090000000 1.0
C      1  0.5564220000000  0.5532720000000  0.4902370000000 1.0
C      1  0.3875180000000  0.4825420000000  0.5244820000000 1.0
C      1  0.4818970000000  0.4643540000000  0.4738560000000 1.0
C      1  0.4466040000000  0.5436200000000  0.4959460000000 1.0
C      1  0.4233900000000  0.5271630000000  0.5063590000000 1.0
C      1  0.4867150000000  0.4227910000000  0.4505490000000 1.0
C      1  0.4037750000000  0.5466540000000  0.5161790000000 1.0
C      1  0.5255410000000  0.5024350000000  0.5964300000000 1.0
C      1  0.5418360000000  0.5126730000000  0.5117050000000 1.0
C      1  0.4899460000000  0.4876480000000  0.5433910000000 1.0
C      1  0.5573890000000  0.5660530000000  0.5755400000000 1.0
C      1  0.4876310000000  0.5276020000000  0.5036690000000 1.0
C      1  0.4868190000000  0.5664610000000  0.5595820000000 1.0
C      1  0.4068920000000  0.5159520000000  0.5577720000000 1.0
C      1  0.4032760000000  0.4674740000000  0.5065250000000 1.0
C      1  0.5085000000000  0.4272210000000  0.4951120000000 1.0
C      1  0.4536240000000  0.5374930000000  0.4666640000000 1.0
C      1  0.4979870000000  0.4926050000000  0.5965660000000 1.0
C      1  0.4946900000000  0.5440160000000  0.4413710000000 1.0
C      1  0.5561410000000  0.5852970000000  0.4550010000000 1.0
C      1  0.4745200000000  0.5019380000000  0.4965370000000 1.0
C      1  0.5533780000000  0.4451740000000  0.5756460000000 1.0
C      1  0.5063600000000  0.4960180000000  0.4409990000000 1.0
C      1  0.5116100000000  0.3905310000000  0.4861470000000 1.0
C      1  0.5399330000000  0.5023410000000  0.4797430000000 1.0
C      1  0.5047270000000  0.5581900000000  0.4161710000000 1.0
C      1  0.4727140000000  0.4495360000000  0.5910300000000 1.0
C      1  0.5255640000000  0.4470640000000  0.5849530000000 1.0
C      1  0.5126980000000  0.4990830000000  0.4697690000000 1.0
C      1  0.4499450000000  0.4996520000000  0.5798720000000 1.0
C      1  0.5487760000000  0.4933190000000  0.5788380000000 1.0
C      1  0.4608270000000  0.5294580000000  0.5402360000000 1.0
C      1  0.5440960000000  0.4697440000000  0.4807230000000 1.0
C      1  0.5121500000000  0.5723660000000  0.5429470000000 1.0
C      1  0.4348710000000  0.5915380000000  0.4507620000000 1.0
C      1  0.4386450000000  0.4347730000000  0.4749200000000 1.0
C      1  0.4774730000000  0.5923950000000  0.5199760000000 1.0
C      1  0.5828830000000  0.5047940000000  0.4319310000000 1.0
C      1  0.5757180000000  0.4686320000000  0.4869720000000 1.0
C      1  0.4772950000000  0.5123230000000  0.5826380000000 1.0
C      1  0.5495020000000  0.5810910000000  0.4821430000000 1.0
C      1  0.4519540000000  0.4824540000000  0.5065490000000 1.0
C      1  0.4294580000000  0.4831470000000  0.5386220000000 1.0
C      1  0.4651190000000  0.4842080000000  0.4082440000000 1.0
C      1  0.5618120000000  0.5172280000000  0.5689630000000 1.0
C      1  0.5677680000000  0.4705430000000  0.5791830000000 1.0
C      1  0.5580430000000  0.4393570000000  0.5467760000000 1.0
C      1  0.5062440000000  0.5852830000000  0.5175940000000 1.0
C      1  0.5123360000000  0.4460140000000  0.5588070000000 1.0
C      1  0.4361970000000  0.5720070000000  0.4955980000000 1.0
C      1  0.4042740000000  0.4400840000000  0.5090820000000 1.0
C      1  0.4251430000000  0.4800090000000  0.4898890000000 1.0
C      1  0.4898460000000  0.3895640000000  0.5069660000000 1.0
C      1  0.4461210000000  0.4747470000000  0.5618100000000 1.0
C      1  0.4539310000000  0.4035840000000  0.5100100000000 1.0
C      1  0.4352590000000  0.5135970000000  0.5315830000000 1.0
C      1  0.4429440000000  0.4251960000000  0.5528100000000 1.0
C      1  0.4206720000000  0.5687360000000  0.5223920000000 1.0
C      1  0.4449670000000  0.5049140000000  0.4145100000000 1.0
C      1  0.5518410000000  0.5399660000000  0.5850700000000 1.0
C      1  0.5322910000000  0.5029430000000  0.5391400000000 1.0
C      1  0.5597300000000  0.4603700000000  0.4328940000000 1.0
C      1  0.5202740000000  0.5264850000000  0.5554860000000 1.0
C      1  0.5240830000000  0.5305410000000  0.5877310000000 1.0
C      1  0.4587680000000  0.4160370000000  0.4633110000000 1.0
C      1  0.5216100000000  0.5816590000000  0.4232780000000 1.0
C      1  0.4947750000000  0.4478610000000  0.5130960000000 1.0
C      1  0.5485210000000  0.5730820000000  0.4307290000000 1.0
C      1  0.4658260000000  0.5816240000000  0.5452410000000 1.0
C      1  0.4273780000000  0.5450720000000  0.4531340000000 1.0
C      1  0.5329950000000  0.5519530000000  0.5396370000000 1.0
C      1  0.5850960000000  0.5477220000000  0.5424860000000 1.0
C      1  0.5568240000000  0.4235290000000  0.4833960000000 1.0
C      1  0.4871660000000  0.5149690000000  0.5535020000000 1.0
C      1  0.4726590000000  0.4175100000000  0.5533950000000 1.0
C      1  0.6030250000000  0.4987780000000  0.5534890000000 1.0
C      1  0.4017910000000  0.4891380000000  0.5475520000000 1.0
C      1  0.6244340000000  0.4964230000000  0.5353340000000 1.0
C      1  0.4155730000000  0.5171650000000  0.4557090000000 1.0
C      1  0.5113620000000  0.5978590000000  0.4437200000000 1.0
C      1  0.4717730000000  0.5596660000000  0.4544990000000 1.0
C      1  0.5030540000000  0.5973740000000  0.4703440000000 1.0
C      1  0.4921210000000  0.4080900000000  0.5317310000000 1.0
C      1  0.4444390000000  0.4302210000000  0.5217340000000 1.0
C      1  0.5927190000000  0.4663470000000  0.4618800000000 1.0
C      1  0.5778140000000  0.5333370000000  0.4379120000000 1.0
C      1  0.5372820000000  0.5289960000000  0.4076610000000 1.0
C      1  0.4225910000000  0.5725670000000  0.4678910000000 1.0
C      1  0.5224810000000  0.5906610000000  0.4921040000000 1.0
C      1  0.4708060000000  0.4662290000000  0.5467970000000 1.0
C      1  0.5056850000000  0.5493500000000  0.4923200000000 1.0
C      1  0.5400150000000  0.4225870000000  0.4588280000000 1.0
C      1  0.5705670000000  0.5101410000000  0.5182520000000 1.0
C      1  0.4827650000000  0.5153820000000  0.4344080000000 1.0
C      1  0.4986600000000  0.4417030000000  0.4697540000000 1.0
C      1  0.5156070000000  0.5426830000000  0.4641540000000 1.0
C      1  0.4535460000000  0.5764350000000  0.4357580000000 1.0
C      1  0.5152320000000  0.4031340000000  0.4591980000000 1.0
C      1  0.5373980000000  0.4530760000000  0.4515560000000 1.0
C      1  0.4954940000000  0.4640470000000  0.6012860000000 1.0
END
