TITL C-951334-9093-510 5.42039568200324e-06 125000 -771.667040313852 0 0 124 (C1) n - 1
REM
REM in /home/bkarasulu/work/CARBON/AIRSS/Generating-Clusters/EDIP-Nigel-Params/with-SteepDescent/Only-C1/SD-CG/HFTN-CG
REM
REM
REM
REM
REM
REM ./C.cell (11c1c37f851c82e70ff6c80c92926a4b)
REM
REM compiler GCC version 9.2.1 20190827 (Red Hat 9.2.1-1)
REM options -cpp -mtune=generic -march=x86-64 -g -O0 -fpre-include=/usr/include/finclude/math-vector-fortran.h
REM seed -1228874181 -1832170944 1740768132 897638629 -1089726419 -383443338 -1002242340 -283046763 -470324871 -1638145565 -2053353789 367736065 -1140269806 -1598123381 781845348 334340792 -463871905 -816106492 286487564 -989862709 -1988013196 -747195902 -167108059 1282153601 1585384749 110869953 421178198 992019664 -1938956995 -1361044040 -1381585462 -1302396 -1571875641
REM
CELL 1.54180   50.00000   50.00000   50.00000   90.00000   90.00000   90.00000
LATT -1
SFAC C  
C      1  0.5076110000000  0.4913000000000  0.4795960000000 1.0
C      1  0.4386290000000  0.4861300000000  0.4602950000000 1.0
C      1  0.5064760000000  0.4405220000000  0.4585170000000 1.0
C      1  0.4817290000000  0.5126930000000  0.5861360000000 1.0
C      1  0.4390470000000  0.5532220000000  0.5497380000000 1.0
C      1  0.4345150000000  0.5042630000000  0.5648990000000 1.0
C      1  0.4442730000000  0.4536540000000  0.4961810000000 1.0
C      1  0.5393920000000  0.5460630000000  0.4303390000000 1.0
C      1  0.4579760000000  0.5206500000000  0.5212360000000 1.0
C      1  0.5536500000000  0.5125400000000  0.4565270000000 1.0
C      1  0.4853090000000  0.4124610000000  0.4847380000000 1.0
C      1  0.4128920000000  0.5409450000000  0.4781240000000 1.0
C      1  0.5696690000000  0.4707180000000  0.4469750000000 1.0
C      1  0.5054340000000  0.3937450000000  0.4777710000000 1.0
C      1  0.5348690000000  0.4643650000000  0.5614250000000 1.0
C      1  0.4893680000000  0.3990170000000  0.4430650000000 1.0
C      1  0.4791540000000  0.5737810000000  0.4439190000000 1.0
C      1  0.5003430000000  0.4677920000000  0.5981060000000 1.0
C      1  0.4449400000000  0.5256690000000  0.4921860000000 1.0
C      1  0.5303710000000  0.5005060000000  0.4966380000000 1.0
C      1  0.5095550000000  0.5247910000000  0.5450760000000 1.0
C      1  0.5264550000000  0.5409130000000  0.5264090000000 1.0
C      1  0.4850770000000  0.4795260000000  0.5450750000000 1.0
C      1  0.4057110000000  0.5404730000000  0.5047400000000 1.0
C      1  0.5578120000000  0.5006480000000  0.4829260000000 1.0
C      1  0.5033820000000  0.5822660000000  0.5730330000000 1.0
C      1  0.5838800000000  0.5561640000000  0.5344060000000 1.0
C      1  0.5688910000000  0.4577830000000  0.4995430000000 1.0
C      1  0.5712270000000  0.5303430000000  0.5680020000000 1.0
C      1  0.5784660000000  0.4988500000000  0.5267880000000 1.0
C      1  0.6025890000000  0.4907610000000  0.4775770000000 1.0
C      1  0.4693370000000  0.4699960000000  0.5021330000000 1.0
C      1  0.4601210000000  0.5525480000000  0.4501150000000 1.0
C      1  0.5541010000000  0.4814900000000  0.5898830000000 1.0
C      1  0.5760170000000  0.4726330000000  0.5738640000000 1.0
C      1  0.4883450000000  0.5451050000000  0.4915150000000 1.0
C      1  0.4120810000000  0.5190900000000  0.5211700000000 1.0
C      1  0.5011870000000  0.5747830000000  0.4885830000000 1.0
C      1  0.4621760000000  0.5231310000000  0.4030110000000 1.0
C      1  0.4719050000000  0.4719320000000  0.5723350000000 1.0
C      1  0.5000050000000  0.5654850000000  0.4239280000000 1.0
C      1  0.4869660000000  0.5131900000000  0.4740860000000 1.0
C      1  0.5616560000000  0.4740900000000  0.5250410000000 1.0
C      1  0.4579320000000  0.5038880000000  0.4765770000000 1.0
C      1  0.5216340000000  0.5228960000000  0.4224080000000 1.0
C      1  0.4849210000000  0.4525350000000  0.5297630000000 1.0
C      1  0.4521410000000  0.4955190000000  0.4084820000000 1.0
C      1  0.4752080000000  0.4751850000000  0.4137660000000 1.0
C      1  0.5303810000000  0.5764810000000  0.4821640000000 1.0
C      1  0.4773030000000  0.5700880000000  0.5310090000000 1.0
C      1  0.5807590000000  0.5558160000000  0.5612470000000 1.0
C      1  0.5288070000000  0.5299910000000  0.5005370000000 1.0
C      1  0.5304040000000  0.4815380000000  0.5208480000000 1.0
C      1  0.4969110000000  0.4634510000000  0.4882870000000 1.0
C      1  0.4341430000000  0.4983520000000  0.4324470000000 1.0
C      1  0.5272620000000  0.4681580000000  0.4222340000000 1.0
C      1  0.4427070000000  0.4560700000000  0.4655510000000 1.0
C      1  0.4735740000000  0.4341820000000  0.5773600000000 1.0
C      1  0.5255960000000  0.5710300000000  0.5286430000000 1.0
C      1  0.5469040000000  0.5798010000000  0.5075380000000 1.0
C      1  0.4595000000000  0.5506640000000  0.4807240000000 1.0
C      1  0.4630450000000  0.4414510000000  0.4505360000000 1.0
C      1  0.4910630000000  0.4345560000000  0.4098750000000 1.0
C      1  0.4154670000000  0.4946960000000  0.5037330000000 1.0
C      1  0.5140870000000  0.4927650000000  0.5457410000000 1.0
C      1  0.5997320000000  0.5180880000000  0.4858600000000 1.0
C      1  0.4738640000000  0.4139940000000  0.5107650000000 1.0
C      1  0.5394100000000  0.5485780000000  0.4790860000000 1.0
C      1  0.4863630000000  0.4844920000000  0.4389010000000 1.0
C      1  0.4274090000000  0.4609160000000  0.5403620000000 1.0
C      1  0.5064370000000  0.4587870000000  0.4015630000000 1.0
C      1  0.4775180000000  0.5787660000000  0.5605270000000 1.0
C      1  0.5354410000000  0.4186620000000  0.5115190000000 1.0
C      1  0.5209580000000  0.4389080000000  0.5632740000000 1.0
C      1  0.4707120000000  0.4132210000000  0.5585870000000 1.0
C      1  0.5491340000000  0.4512610000000  0.4395860000000 1.0
C      1  0.4901430000000  0.5127820000000  0.4444810000000 1.0
C      1  0.4826290000000  0.5398740000000  0.5231700000000 1.0
C      1  0.5678060000000  0.5474020000000  0.5125380000000 1.0
C      1  0.4489560000000  0.5762260000000  0.4926040000000 1.0
C      1  0.4059170000000  0.5196180000000  0.4603590000000 1.0
C      1  0.4840690000000  0.5904370000000  0.4688020000000 1.0
C      1  0.5754730000000  0.5170390000000  0.5036240000000 1.0
C      1  0.5132000000000  0.4559260000000  0.5130480000000 1.0
C      1  0.4234910000000  0.4680020000000  0.5124790000000 1.0
C      1  0.4494470000000  0.5756330000000  0.5217920000000 1.0
C      1  0.4504430000000  0.4300310000000  0.5138050000000 1.0
C      1  0.4608880000000  0.5559430000000  0.5697770000000 1.0
C      1  0.4602030000000  0.5991730000000  0.4809420000000 1.0
C      1  0.4652490000000  0.4464510000000  0.4214270000000 1.0
C      1  0.5338250000000  0.5018750000000  0.5842980000000 1.0
C      1  0.4666200000000  0.5281110000000  0.4332860000000 1.0
C      1  0.4958390000000  0.5387350000000  0.4104850000000 1.0
C      1  0.5370940000000  0.4367830000000  0.4633630000000 1.0
C      1  0.4153300000000  0.5194440000000  0.4335640000000 1.0
C      1  0.5429840000000  0.5275300000000  0.5738830000000 1.0
C      1  0.5260450000000  0.3972160000000  0.4958170000000 1.0
C      1  0.5158400000000  0.4238910000000  0.5367480000000 1.0
C      1  0.5056360000000  0.4948370000000  0.5888870000000 1.0
C      1  0.5616080000000  0.4966320000000  0.4340840000000 1.0
C      1  0.4818390000000  0.5355380000000  0.5691440000000 1.0
C      1  0.5268350000000  0.5511960000000  0.5755440000000 1.0
C      1  0.5763900000000  0.5610310000000  0.4870060000000 1.0
C      1  0.4683320000000  0.4927940000000  0.5234750000000 1.0
C      1  0.5563930000000  0.5406690000000  0.4543690000000 1.0
C      1  0.5281650000000  0.5755830000000  0.5590020000000 1.0
C      1  0.4349780000000  0.5247490000000  0.5413300000000 1.0
C      1  0.4210610000000  0.4805150000000  0.5590170000000 1.0
C      1  0.5912030000000  0.5419170000000  0.4698060000000 1.0
C      1  0.4127790000000  0.4944080000000  0.4738430000000 1.0
C      1  0.5047220000000  0.4213260000000  0.4329190000000 1.0
C      1  0.4997380000000  0.5832750000000  0.5172160000000 1.0
C      1  0.5762960000000  0.4770200000000  0.4767280000000 1.0
C      1  0.5377490000000  0.4963260000000  0.4163840000000 1.0
C      1  0.4887820000000  0.4092110000000  0.5359270000000 1.0
C      1  0.5098650000000  0.4699170000000  0.4470880000000 1.0
C      1  0.5625930000000  0.4606530000000  0.5517120000000 1.0
C      1  0.5472070000000  0.4389650000000  0.4920160000000 1.0
C      1  0.5005690000000  0.4416800000000  0.5845610000000 1.0
C      1  0.4574070000000  0.4962310000000  0.5827640000000 1.0
C      1  0.4703900000000  0.4146290000000  0.4601410000000 1.0
C      1  0.5821890000000  0.5104740000000  0.5518010000000 1.0
C      1  0.4493850000000  0.4402240000000  0.5412950000000 1.0
C      1  0.5270840000000  0.5712650000000  0.4285000000000 1.0
END
