TITL C-951347-9520-287 -3.47640791987356e-07 125000 -302.879855072063 0 0 50 (C1) n - 1
REM
REM in /home/bkarasulu/work/CARBON/AIRSS/Generating-Clusters/EDIP-Nigel-Params/with-SteepDescent/Only-C1/SD-CG/HFTN-CG
REM
REM
REM
REM
REM
REM ./C.cell (11c1c37f851c82e70ff6c80c92926a4b)
REM
REM compiler GCC version 9.2.1 20190827 (Red Hat 9.2.1-1)
REM options -cpp -mtune=generic -march=x86-64 -g -O0 -fpre-include=/usr/include/finclude/math-vector-fortran.h
REM seed 1581375462 -1692247399 1690796337 -1047447844 1788255649 -973990294 -1172068200 2013747062 -1135373009 2072092552 443542625 989569471 -242563344 -1257666986 -2027458727 -1226903697 -325784743 421911808 581462340 -2113803498 -91889720 -836863427 -1776895341 -421146557 1042675080 198249873 -666401409 -1417002697 -611358669 1117265596 -471572907 1452713751 2026465415
REM
CELL 1.54180   50.00000   50.00000   50.00000   90.00000   90.00000   90.00000
LATT -1
SFAC C  
C      1  0.4699410000000  0.4826010000000  0.5362610000000 1.0
C      1  0.4623680000000  0.5375280000000  0.5162400000000 1.0
C      1  0.5095710000000  0.5214080000000  0.5029020000000 1.0
C      1  0.4804710000000  0.5179760000000  0.4995570000000 1.0
C      1  0.5468460000000  0.4990350000000  0.4790290000000 1.0
C      1  0.4717640000000  0.5290290000000  0.5531200000000 1.0
C      1  0.5231700000000  0.4404990000000  0.4795890000000 1.0
C      1  0.4441030000000  0.5147300000000  0.4617540000000 1.0
C      1  0.5640970000000  0.5018660000000  0.5360130000000 1.0
C      1  0.4526710000000  0.5516770000000  0.4910720000000 1.0
C      1  0.5000060000000  0.5279960000000  0.5550780000000 1.0
C      1  0.5306440000000  0.5080670000000  0.4323740000000 1.0
C      1  0.5479980000000  0.4971830000000  0.4511290000000 1.0
C      1  0.4501720000000  0.4482670000000  0.4857510000000 1.0
C      1  0.5112790000000  0.5640620000000  0.5015480000000 1.0
C      1  0.5099380000000  0.4905330000000  0.4266100000000 1.0
C      1  0.5182750000000  0.5536180000000  0.4549150000000 1.0
C      1  0.5691890000000  0.5113820000000  0.4928430000000 1.0
C      1  0.5137160000000  0.5509970000000  0.5476220000000 1.0
C      1  0.4740130000000  0.5530390000000  0.4712210000000 1.0
C      1  0.4972990000000  0.4787650000000  0.5493130000000 1.0
C      1  0.5679080000000  0.5250590000000  0.5185130000000 1.0
C      1  0.5243120000000  0.5346640000000  0.4369770000000 1.0
C      1  0.4316680000000  0.5315700000000  0.4823440000000 1.0
C      1  0.4475680000000  0.4455380000000  0.5124240000000 1.0
C      1  0.5561570000000  0.4556960000000  0.5190730000000 1.0
C      1  0.4533180000000  0.4681280000000  0.4664040000000 1.0
C      1  0.5392600000000  0.4545100000000  0.5413750000000 1.0
C      1  0.5268420000000  0.5599020000000  0.5247340000000 1.0
C      1  0.4540990000000  0.5066860000000  0.5468400000000 1.0
C      1  0.5002760000000  0.4386740000000  0.5225760000000 1.0
C      1  0.4997200000000  0.4466410000000  0.4955340000000 1.0
C      1  0.5513050000000  0.5475030000000  0.5210580000000 1.0
C      1  0.4757740000000  0.4895700000000  0.5081340000000 1.0
C      1  0.5135150000000  0.5025250000000  0.5535360000000 1.0
C      1  0.5463710000000  0.4444020000000  0.4952190000000 1.0
C      1  0.4738080000000  0.5147990000000  0.4666790000000 1.0
C      1  0.4806740000000  0.4815180000000  0.4639410000000 1.0
C      1  0.5414010000000  0.5014260000000  0.5526890000000 1.0
C      1  0.4542230000000  0.4583760000000  0.5352310000000 1.0
C      1  0.5202530000000  0.4968500000000  0.4925630000000 1.0
C      1  0.4258910000000  0.5093860000000  0.5016180000000 1.0
C      1  0.4995720000000  0.4708140000000  0.4431980000000 1.0
C      1  0.4338780000000  0.4890580000000  0.4696680000000 1.0
C      1  0.4958680000000  0.4762890000000  0.4900060000000 1.0
C      1  0.4381240000000  0.5211410000000  0.5252370000000 1.0
C      1  0.5114110000000  0.4537980000000  0.5432080000000 1.0
C      1  0.5011390000000  0.5611900000000  0.4753540000000 1.0
C      1  0.5184290000000  0.4533580000000  0.4548930000000 1.0
C      1  0.5697040000000  0.4806740000000  0.5170320000000 1.0
END
