TITL C-950523-3027-686 -5.20862089345952e-06 125000 -780.551855120915 0 0 127 (C1) n - 1
REM
REM in /home/bkarasulu/work/CARBON/AIRSS/Generating-Clusters/EDIP-Nigel-Params/with-SteepDescent/Only-C1/SD-CG/HFTN-CG
REM
REM
REM
REM
REM
REM ./C.cell (11c1c37f851c82e70ff6c80c92926a4b)
REM
REM compiler GCC version 9.2.1 20190827 (Red Hat 9.2.1-1)
REM options -cpp -mtune=generic -march=x86-64 -g -O0 -fpre-include=/usr/include/finclude/math-vector-fortran.h
REM seed -1920400858 -1266158977 1777065019 2112193471 2069709353 1187272063 -1804704541 -1949113852 1282877157 1352757296 -1018541285 -1004298434 -1900192818 -1652061493 1806337291 -1694644179 1396841324 62080355 -608403792 846031229 -1499636933 83042989 300790158 -2039438533 1140797294 1921753663 24765089 -1179405770 -1679308986 -1685371285 760454639 95036000 -918125859
REM
CELL 1.54180   50.00000   50.00000   50.00000   90.00000   90.00000   90.00000
LATT -1
SFAC C  
C      1  0.5282480000000  0.4892560000000  0.5186460000000 1.0
C      1  0.5699700000000  0.5599330000000  0.5187220000000 1.0
C      1  0.4238240000000  0.4660680000000  0.5124010000000 1.0
C      1  0.5328690000000  0.5370370000000  0.5534160000000 1.0
C      1  0.5366150000000  0.5278640000000  0.4163810000000 1.0
C      1  0.4371470000000  0.4930080000000  0.5096830000000 1.0
C      1  0.4771930000000  0.5176900000000  0.4381900000000 1.0
C      1  0.5440710000000  0.4680270000000  0.5955880000000 1.0
C      1  0.4574030000000  0.5255660000000  0.5797410000000 1.0
C      1  0.5819030000000  0.5202010000000  0.5462590000000 1.0
C      1  0.4288240000000  0.5297370000000  0.5412650000000 1.0
C      1  0.5475900000000  0.5712990000000  0.5060140000000 1.0
C      1  0.5563460000000  0.5577120000000  0.4505260000000 1.0
C      1  0.4140960000000  0.5082610000000  0.4714110000000 1.0
C      1  0.5845760000000  0.5228400000000  0.4682780000000 1.0
C      1  0.5413040000000  0.4810780000000  0.4040270000000 1.0
C      1  0.4489790000000  0.4026800000000  0.4880540000000 1.0
C      1  0.4325580000000  0.4625530000000  0.4575330000000 1.0
C      1  0.4991970000000  0.4062410000000  0.4983500000000 1.0
C      1  0.5168810000000  0.5637340000000  0.5523640000000 1.0
C      1  0.4311150000000  0.4626210000000  0.5415410000000 1.0
C      1  0.4855350000000  0.4159430000000  0.5657150000000 1.0
C      1  0.5405170000000  0.4678120000000  0.4723860000000 1.0
C      1  0.5316270000000  0.5664720000000  0.4612360000000 1.0
C      1  0.5395580000000  0.4241420000000  0.4844930000000 1.0
C      1  0.4750620000000  0.4610960000000  0.4184650000000 1.0
C      1  0.5660080000000  0.4571170000000  0.4609430000000 1.0
C      1  0.5300770000000  0.5114630000000  0.5682950000000 1.0
C      1  0.4381870000000  0.5576080000000  0.5369730000000 1.0
C      1  0.5321530000000  0.4311920000000  0.5497690000000 1.0
C      1  0.4544380000000  0.5056130000000  0.5991930000000 1.0
C      1  0.5022020000000  0.4521930000000  0.4098350000000 1.0
C      1  0.5142340000000  0.4147950000000  0.4757420000000 1.0
C      1  0.4659680000000  0.6073710000000  0.4855600000000 1.0
C      1  0.5135460000000  0.4805110000000  0.4088080000000 1.0
C      1  0.4714520000000  0.4311490000000  0.5472440000000 1.0
C      1  0.4723200000000  0.5232630000000  0.4691040000000 1.0
C      1  0.4105740000000  0.4773890000000  0.4716520000000 1.0
C      1  0.4942940000000  0.6075170000000  0.4912150000000 1.0
C      1  0.4879190000000  0.4517180000000  0.5333090000000 1.0
C      1  0.4216260000000  0.5525800000000  0.4887400000000 1.0
C      1  0.5156420000000  0.4656280000000  0.5899220000000 1.0
C      1  0.4800800000000  0.5691140000000  0.4532790000000 1.0
C      1  0.5905920000000  0.4603180000000  0.4772680000000 1.0
C      1  0.4693730000000  0.4818820000000  0.5969650000000 1.0
C      1  0.4450700000000  0.4398470000000  0.5543330000000 1.0
C      1  0.5400010000000  0.4127300000000  0.5304540000000 1.0
C      1  0.5577620000000  0.5302340000000  0.4607600000000 1.0
C      1  0.5849790000000  0.4783470000000  0.5722830000000 1.0
C      1  0.4504080000000  0.5902110000000  0.5013760000000 1.0
C      1  0.5110010000000  0.4245510000000  0.5662550000000 1.0
C      1  0.4992600000000  0.4596170000000  0.4889040000000 1.0
C      1  0.4671770000000  0.4703010000000  0.5175020000000 1.0
C      1  0.4510320000000  0.3861570000000  0.5119380000000 1.0
C      1  0.4799110000000  0.4973500000000  0.5134260000000 1.0
C      1  0.5403990000000  0.4664400000000  0.5037640000000 1.0
C      1  0.6071420000000  0.4804290000000  0.4652020000000 1.0
C      1  0.4015250000000  0.4642600000000  0.4953450000000 1.0
C      1  0.4519960000000  0.5138880000000  0.5522700000000 1.0
C      1  0.5910300000000  0.4942870000000  0.5061640000000 1.0
C      1  0.4610940000000  0.5583750000000  0.4312460000000 1.0
C      1  0.5788230000000  0.5059210000000  0.5714860000000 1.0
C      1  0.5544960000000  0.5565920000000  0.5611460000000 1.0
C      1  0.4817290000000  0.5213290000000  0.3985160000000 1.0
C      1  0.4763260000000  0.5169740000000  0.5334240000000 1.0
C      1  0.5992910000000  0.5084580000000  0.5284890000000 1.0
C      1  0.5358560000000  0.5873020000000  0.5490000000000 1.0
C      1  0.5536610000000  0.4246380000000  0.5092980000000 1.0
C      1  0.4667800000000  0.5566150000000  0.5501720000000 1.0
C      1  0.5466090000000  0.5112850000000  0.4385710000000 1.0
C      1  0.4499250000000  0.4145970000000  0.4615320000000 1.0
C      1  0.5114390000000  0.4565180000000  0.4609550000000 1.0
C      1  0.4315240000000  0.4345810000000  0.4556300000000 1.0
C      1  0.4850620000000  0.5374770000000  0.5799210000000 1.0
C      1  0.5052750000000  0.4928940000000  0.4995300000000 1.0
C      1  0.5516810000000  0.4920780000000  0.6085020000000 1.0
C      1  0.5020160000000  0.4158640000000  0.4487610000000 1.0
C      1  0.5284720000000  0.5561040000000  0.4890210000000 1.0
C      1  0.5630410000000  0.4606080000000  0.5739940000000 1.0
C      1  0.4664950000000  0.4681700000000  0.5700210000000 1.0
C      1  0.5618250000000  0.4523900000000  0.5185210000000 1.0
C      1  0.4846240000000  0.4711410000000  0.4461150000000 1.0
C      1  0.5602820000000  0.4890920000000  0.4227840000000 1.0
C      1  0.4770060000000  0.5524190000000  0.4782780000000 1.0
C      1  0.4744210000000  0.5975850000000  0.4595130000000 1.0
C      1  0.6005310000000  0.5034190000000  0.4803320000000 1.0
C      1  0.5146170000000  0.4341590000000  0.4296890000000 1.0
C      1  0.4695540000000  0.4577790000000  0.4899700000000 1.0
C      1  0.4384140000000  0.5660330000000  0.5088460000000 1.0
C      1  0.4665740000000  0.5446380000000  0.4066370000000 1.0
C      1  0.4966180000000  0.5583070000000  0.5020940000000 1.0
C      1  0.5007540000000  0.4947760000000  0.4355840000000 1.0
C      1  0.5049080000000  0.5137710000000  0.5840550000000 1.0
C      1  0.5084340000000  0.5298240000000  0.4093050000000 1.0
C      1  0.5083120000000  0.5657280000000  0.4437440000000 1.0
C      1  0.4859960000000  0.5442940000000  0.5285870000000 1.0
C      1  0.4982530000000  0.5673940000000  0.5761880000000 1.0
C      1  0.4664010000000  0.4864390000000  0.4058310000000 1.0
C      1  0.5263260000000  0.4831570000000  0.5479970000000 1.0
C      1  0.5122200000000  0.5578260000000  0.4165530000000 1.0
C      1  0.5375130000000  0.5284940000000  0.4842130000000 1.0
C      1  0.5140780000000  0.5122810000000  0.4781170000000 1.0
C      1  0.5314980000000  0.5906420000000  0.5205300000000 1.0
C      1  0.4872200000000  0.5949510000000  0.5366430000000 1.0
C      1  0.5466650000000  0.4576250000000  0.5493440000000 1.0
C      1  0.4468920000000  0.4841470000000  0.5541240000000 1.0
C      1  0.4588950000000  0.4737860000000  0.4673630000000 1.0
C      1  0.5541580000000  0.5103000000000  0.5868700000000 1.0
C      1  0.5120430000000  0.4402190000000  0.5114380000000 1.0
C      1  0.5713720000000  0.4676980000000  0.4360030000000 1.0
C      1  0.4068390000000  0.5269880000000  0.4950130000000 1.0
C      1  0.4184240000000  0.5394470000000  0.4216010000000 1.0
C      1  0.4511530000000  0.5008480000000  0.4801070000000 1.0
C      1  0.5870020000000  0.4650700000000  0.5065360000000 1.0
C      1  0.4180060000000  0.5141910000000  0.5188090000000 1.0
C      1  0.4776800000000  0.5832670000000  0.5600150000000 1.0
C      1  0.4981290000000  0.4879350000000  0.5968110000000 1.0
C      1  0.4751040000000  0.3904010000000  0.4970840000000 1.0
C      1  0.4741810000000  0.4131240000000  0.4478670000000 1.0
C      1  0.4306690000000  0.5155890000000  0.4177480000000 1.0
C      1  0.5018910000000  0.5888030000000  0.5125950000000 1.0
C      1  0.4371720000000  0.5392920000000  0.4661080000000 1.0
C      1  0.5237970000000  0.4981360000000  0.4543730000000 1.0
C      1  0.4341470000000  0.5533070000000  0.4404790000000 1.0
C      1  0.4976010000000  0.4702180000000  0.5561980000000 1.0
C      1  0.4535740000000  0.5020410000000  0.4262480000000 1.0
C      1  0.5762490000000  0.5487100000000  0.5434520000000 1.0
END
