TITL C-950524-1808-689 -7.56640278965196e-07 125000 -214.360186882979 0 0 36 (C1) n - 1
REM
REM in /home/bkarasulu/work/CARBON/AIRSS/Generating-Clusters/EDIP-Nigel-Params/with-SteepDescent/Only-C1/SD-CG/HFTN-CG
REM
REM
REM
REM
REM
REM ./C.cell (11c1c37f851c82e70ff6c80c92926a4b)
REM
REM compiler GCC version 9.2.1 20190827 (Red Hat 9.2.1-1)
REM options -cpp -mtune=generic -march=x86-64 -g -O0 -fpre-include=/usr/include/finclude/math-vector-fortran.h
REM seed -1889977428 -1687220893 -1579962386 -1292701301 -1403367196 -1579929904 78033228 875703513 -251098204 1115105370 322935242 -111142241 1474691099 1327245016 761361935 -1319208500 1483047904 -1371485677 984352494 -1370982018 2035622939 -460739240 1942450147 -1431439857 1293938890 -715574119 1466015573 256331441 316239630 -1810858430 -1240085664 549699150 1034578209
REM
CELL 1.54180   50.00000   50.00000   50.00000   90.00000   90.00000   90.00000
LATT -1
SFAC C  
C      1  0.4929650000000  0.5672090000000  0.4933050000000 1.0
C      1  0.5070550000000  0.5146880000000  0.5315260000000 1.0
C      1  0.5068170000000  0.5433470000000  0.5373790000000 1.0
C      1  0.4470960000000  0.5139640000000  0.5260380000000 1.0
C      1  0.4604510000000  0.4742030000000  0.5518370000000 1.0
C      1  0.4728960000000  0.4924940000000  0.4584290000000 1.0
C      1  0.5261750000000  0.4955220000000  0.4997000000000 1.0
C      1  0.4871310000000  0.5525350000000  0.4706000000000 1.0
C      1  0.5472920000000  0.5365250000000  0.4813160000000 1.0
C      1  0.4611200000000  0.4722000000000  0.5073960000000 1.0
C      1  0.4985290000000  0.4813010000000  0.4567420000000 1.0
C      1  0.5160390000000  0.4963750000000  0.4391970000000 1.0
C      1  0.5454930000000  0.4631720000000  0.5089520000000 1.0
C      1  0.5083700000000  0.5233060000000  0.4368570000000 1.0
C      1  0.4577400000000  0.5385790000000  0.5364230000000 1.0
C      1  0.5430920000000  0.4904880000000  0.4424630000000 1.0
C      1  0.5095290000000  0.4717560000000  0.4836690000000 1.0
C      1  0.4480480000000  0.4614920000000  0.5301300000000 1.0
C      1  0.5036720000000  0.5622830000000  0.5173170000000 1.0
C      1  0.5319540000000  0.4691730000000  0.5344030000000 1.0
C      1  0.5187530000000  0.4263220000000  0.5005540000000 1.0
C      1  0.5345590000000  0.5526840000000  0.4639810000000 1.0
C      1  0.4820860000000  0.5376720000000  0.5509420000000 1.0
C      1  0.5095900000000  0.5454190000000  0.4539500000000 1.0
C      1  0.5071000000000  0.4527290000000  0.5406330000000 1.0
C      1  0.4550460000000  0.5025500000000  0.5516620000000 1.0
C      1  0.4597030000000  0.5008560000000  0.5030100000000 1.0
C      1  0.4861070000000  0.4595760000000  0.4987920000000 1.0
C      1  0.5486310000000  0.5091300000000  0.4851840000000 1.0
C      1  0.4642130000000  0.5368690000000  0.4701550000000 1.0
C      1  0.5304570000000  0.4490940000000  0.4881950000000 1.0
C      1  0.5292000000000  0.4979580000000  0.5384320000000 1.0
C      1  0.5590170000000  0.4948490000000  0.4636760000000 1.0
C      1  0.4597280000000  0.5100680000000  0.4755490000000 1.0
C      1  0.4974470000000  0.4379840000000  0.5157050000000 1.0
C      1  0.4869000000000  0.4656310000000  0.5558990000000 1.0
END
