TITL C-951340-9809-457 -1.5660954912823e-06 125000 -1145.70241350956 0 0 183 (C1) n - 1
REM
REM in /home/bkarasulu/work/CARBON/AIRSS/Generating-Clusters/EDIP-Nigel-Params/with-SteepDescent/Only-C1/SD-CG/HFTN-CG
REM
REM
REM
REM
REM
REM ./C.cell (11c1c37f851c82e70ff6c80c92926a4b)
REM
REM compiler GCC version 9.2.1 20190827 (Red Hat 9.2.1-1)
REM options -cpp -mtune=generic -march=x86-64 -g -O0 -fpre-include=/usr/include/finclude/math-vector-fortran.h
REM seed -977163534 1790324032 -1092037315 579548884 -169034827 -34932052 1388013895 -192406675 1957382274 -275664461 -1355854562 -877082313 69484911 -652694247 1475643449 -1250241011 -1850194133 -1795043978 492110794 -290606810 -1099510881 -1583694150 -1067040559 902799139 -1402865601 19645581 -1771132814 -1125895173 1244622160 -1236203708 -552051922 -504775845 -1690408605
REM
CELL 1.54180   50.00000   50.00000   50.00000   90.00000   90.00000   90.00000
LATT -1
SFAC C  
C      1  0.4385310000000  0.4758730000000  0.5875260000000 1.0
C      1  0.5211720000000  0.5604300000000  0.5868610000000 1.0
C      1  0.4823040000000  0.6151600000000  0.4967640000000 1.0
C      1  0.5325300000000  0.5355410000000  0.3789210000000 1.0
C      1  0.5662760000000  0.5459020000000  0.5773960000000 1.0
C      1  0.4808180000000  0.5674470000000  0.5093370000000 1.0
C      1  0.5819750000000  0.5600410000000  0.5363790000000 1.0
C      1  0.4154950000000  0.4583590000000  0.4259380000000 1.0
C      1  0.6031620000000  0.4860620000000  0.4819740000000 1.0
C      1  0.4659230000000  0.5134600000000  0.5209710000000 1.0
C      1  0.4878810000000  0.4598270000000  0.4247660000000 1.0
C      1  0.5476240000000  0.5589300000000  0.4193110000000 1.0
C      1  0.5961490000000  0.5005910000000  0.4566650000000 1.0
C      1  0.5290990000000  0.5816410000000  0.5682860000000 1.0
C      1  0.5262940000000  0.4386860000000  0.4189510000000 1.0
C      1  0.5509580000000  0.5391840000000  0.3992100000000 1.0
C      1  0.4729890000000  0.5010910000000  0.5500470000000 1.0
C      1  0.5494310000000  0.5892120000000  0.4773100000000 1.0
C      1  0.4561970000000  0.5523660000000  0.6023490000000 1.0
C      1  0.5071700000000  0.5259700000000  0.3844380000000 1.0
C      1  0.4796410000000  0.4471610000000  0.5987850000000 1.0
C      1  0.4146660000000  0.5095250000000  0.4421460000000 1.0
C      1  0.4846120000000  0.4981680000000  0.6051110000000 1.0
C      1  0.5239470000000  0.5262470000000  0.5101480000000 1.0
C      1  0.5043280000000  0.5948270000000  0.5573640000000 1.0
C      1  0.5564680000000  0.4909150000000  0.4097430000000 1.0
C      1  0.5678840000000  0.4897560000000  0.4553740000000 1.0
C      1  0.4547170000000  0.5731750000000  0.5599670000000 1.0
C      1  0.5606370000000  0.4180170000000  0.5520130000000 1.0
C      1  0.4394560000000  0.4363130000000  0.5156330000000 1.0
C      1  0.5184160000000  0.4668700000000  0.6240670000000 1.0
C      1  0.4112270000000  0.4688180000000  0.4730310000000 1.0
C      1  0.4876170000000  0.4621750000000  0.5059930000000 1.0
C      1  0.5918370000000  0.5107060000000  0.5289500000000 1.0
C      1  0.5796630000000  0.4567500000000  0.5778040000000 1.0
C      1  0.5678910000000  0.5666790000000  0.4663190000000 1.0
C      1  0.5311440000000  0.4848260000000  0.5412210000000 1.0
C      1  0.4631870000000  0.4443340000000  0.4213030000000 1.0
C      1  0.3982770000000  0.5522640000000  0.4638220000000 1.0
C      1  0.4752000000000  0.4216790000000  0.5705550000000 1.0
C      1  0.5520050000000  0.4651970000000  0.5884330000000 1.0
C      1  0.5910370000000  0.5595780000000  0.4849260000000 1.0
C      1  0.5404040000000  0.5390550000000  0.5840590000000 1.0
C      1  0.5190720000000  0.4993990000000  0.4536980000000 1.0
C      1  0.5670570000000  0.5177840000000  0.4098060000000 1.0
C      1  0.4552500000000  0.4865010000000  0.4010360000000 1.0
C      1  0.4900440000000  0.5348900000000  0.4467850000000 1.0
C      1  0.5477690000000  0.4908540000000  0.5714890000000 1.0
C      1  0.4154110000000  0.4726800000000  0.5320940000000 1.0
C      1  0.4290800000000  0.5015620000000  0.5738520000000 1.0
C      1  0.5329960000000  0.4829140000000  0.3936180000000 1.0
C      1  0.4760160000000  0.5988090000000  0.4720190000000 1.0
C      1  0.5595160000000  0.4827850000000  0.4861090000000 1.0
C      1  0.5107940000000  0.4236400000000  0.4943370000000 1.0
C      1  0.5672500000000  0.4167530000000  0.4733130000000 1.0
C      1  0.4888790000000  0.5452730000000  0.3966890000000 1.0
C      1  0.4411820000000  0.3970050000000  0.4863960000000 1.0
C      1  0.5694530000000  0.5560550000000  0.4385530000000 1.0
C      1  0.4285000000000  0.5740460000000  0.5133260000000 1.0
C      1  0.5468190000000  0.5107730000000  0.4480190000000 1.0
C      1  0.4051980000000  0.4797780000000  0.4445520000000 1.0
C      1  0.4213730000000  0.5233510000000  0.4153530000000 1.0
C      1  0.5828160000000  0.4399330000000  0.4620380000000 1.0
C      1  0.4995510000000  0.5113140000000  0.5562360000000 1.0
C      1  0.4336670000000  0.4505060000000  0.5726490000000 1.0
C      1  0.5221490000000  0.5486770000000  0.5306050000000 1.0
C      1  0.4606100000000  0.5376980000000  0.3997410000000 1.0
C      1  0.5127110000000  0.5655900000000  0.4715810000000 1.0
C      1  0.5687200000000  0.4493710000000  0.4384690000000 1.0
C      1  0.5795260000000  0.5277510000000  0.4350240000000 1.0
C      1  0.4384900000000  0.4664600000000  0.5148380000000 1.0
C      1  0.4813570000000  0.5800370000000  0.5699080000000 1.0
C      1  0.4911150000000  0.5574470000000  0.5865180000000 1.0
C      1  0.4461890000000  0.6018590000000  0.4692460000000 1.0
C      1  0.4986650000000  0.5391990000000  0.5468750000000 1.0
C      1  0.4629890000000  0.4477260000000  0.5639220000000 1.0
C      1  0.4410120000000  0.5092720000000  0.4557740000000 1.0
C      1  0.4430370000000  0.5866420000000  0.5371940000000 1.0
C      1  0.5091230000000  0.5705780000000  0.5154020000000 1.0
C      1  0.5289810000000  0.4554780000000  0.3963690000000 1.0
C      1  0.5340920000000  0.5108470000000  0.5904160000000 1.0
C      1  0.5220820000000  0.6028950000000  0.4733130000000 1.0
C      1  0.5010830000000  0.4677530000000  0.5318980000000 1.0
C      1  0.5110810000000  0.3933450000000  0.4952160000000 1.0
C      1  0.5274460000000  0.5787800000000  0.4149680000000 1.0
C      1  0.4440060000000  0.4679000000000  0.4227560000000 1.0
C      1  0.5209070000000  0.5104140000000  0.6371280000000 1.0
C      1  0.4082260000000  0.5447130000000  0.5446670000000 1.0
C      1  0.5012730000000  0.4911820000000  0.6301530000000 1.0
C      1  0.5979440000000  0.5367620000000  0.5440780000000 1.0
C      1  0.6072100000000  0.4771990000000  0.5386580000000 1.0
C      1  0.4458860000000  0.5357540000000  0.4722520000000 1.0
C      1  0.4776300000000  0.4078920000000  0.4566490000000 1.0
C      1  0.5349450000000  0.4668890000000  0.4869900000000 1.0
C      1  0.5766000000000  0.4424260000000  0.5533110000000 1.0
C      1  0.5863210000000  0.5282340000000  0.5695690000000 1.0
C      1  0.5279070000000  0.3908220000000  0.4505410000000 1.0
C      1  0.5100050000000  0.5571300000000  0.4418600000000 1.0
C      1  0.5150400000000  0.4729650000000  0.4655470000000 1.0
C      1  0.4343410000000  0.5966750000000  0.4950790000000 1.0
C      1  0.4387250000000  0.5600940000000  0.5802190000000 1.0
C      1  0.4428300000000  0.5540250000000  0.4154290000000 1.0
C      1  0.4874230000000  0.4777570000000  0.4814500000000 1.0
C      1  0.4829320000000  0.5694400000000  0.4786100000000 1.0
C      1  0.4024180000000  0.5316610000000  0.4957880000000 1.0
C      1  0.5462840000000  0.5684020000000  0.5457900000000 1.0
C      1  0.5614090000000  0.5907520000000  0.5043690000000 1.0
C      1  0.4520670000000  0.3901970000000  0.4595370000000 1.0
C      1  0.4566810000000  0.5690880000000  0.4370270000000 1.0
C      1  0.4929880000000  0.6034810000000  0.4480400000000 1.0
C      1  0.5659680000000  0.5139840000000  0.5155500000000 1.0
C      1  0.4072550000000  0.5537030000000  0.5178440000000 1.0
C      1  0.5059730000000  0.5056150000000  0.5841410000000 1.0
C      1  0.4387890000000  0.4271870000000  0.4855980000000 1.0
C      1  0.4678150000000  0.4334780000000  0.4738970000000 1.0
C      1  0.4863060000000  0.4149570000000  0.5455530000000 1.0
C      1  0.5090930000000  0.4482970000000  0.6030120000000 1.0
C      1  0.5993270000000  0.5316510000000  0.4874110000000 1.0
C      1  0.5040800000000  0.3915570000000  0.4647510000000 1.0
C      1  0.5848880000000  0.4442560000000  0.5072400000000 1.0
C      1  0.4184730000000  0.4262350000000  0.5335160000000 1.0
C      1  0.5937380000000  0.4517970000000  0.5328150000000 1.0
C      1  0.4986680000000  0.5728960000000  0.4079610000000 1.0
C      1  0.5338750000000  0.4413510000000  0.5031400000000 1.0
C      1  0.5419070000000  0.5042110000000  0.6188700000000 1.0
C      1  0.4859440000000  0.3813710000000  0.5036440000000 1.0
C      1  0.4702760000000  0.5039180000000  0.4875980000000 1.0
C      1  0.3952980000000  0.5247280000000  0.4594080000000 1.0
C      1  0.4722150000000  0.4623720000000  0.4607490000000 1.0
C      1  0.4803100000000  0.5864410000000  0.4276290000000 1.0
C      1  0.5100970000000  0.4509760000000  0.4415190000000 1.0
C      1  0.4621890000000  0.4157470000000  0.4225450000000 1.0
C      1  0.6122570000000  0.5008350000000  0.5074780000000 1.0
C      1  0.5509870000000  0.4283690000000  0.4303870000000 1.0
C      1  0.5572420000000  0.4050340000000  0.5244790000000 1.0
C      1  0.4542640000000  0.5177340000000  0.5700010000000 1.0
C      1  0.5468970000000  0.4748530000000  0.6175030000000 1.0
C      1  0.4685850000000  0.5265210000000  0.5950860000000 1.0
C      1  0.4139720000000  0.4488750000000  0.5502120000000 1.0
C      1  0.4208190000000  0.5389800000000  0.5697430000000 1.0
C      1  0.4685250000000  0.5509410000000  0.4586200000000 1.0
C      1  0.5763120000000  0.5005020000000  0.5683500000000 1.0
C      1  0.4833390000000  0.4825420000000  0.3935260000000 1.0
C      1  0.4516440000000  0.4810660000000  0.4488280000000 1.0
C      1  0.5617220000000  0.4255560000000  0.5022530000000 1.0
C      1  0.4843620000000  0.4343740000000  0.4993380000000 1.0
C      1  0.5253590000000  0.4472340000000  0.5323790000000 1.0
C      1  0.4349370000000  0.5816670000000  0.4525960000000 1.0
C      1  0.5339590000000  0.4204340000000  0.5665530000000 1.0
C      1  0.5112040000000  0.6144780000000  0.4992420000000 1.0
C      1  0.5451490000000  0.5933960000000  0.5283550000000 1.0
C      1  0.4164840000000  0.4321350000000  0.4416380000000 1.0
C      1  0.5398280000000  0.5000140000000  0.5148170000000 1.0
C      1  0.4363500000000  0.5165260000000  0.5254740000000 1.0
C      1  0.4219440000000  0.4983860000000  0.5448020000000 1.0
C      1  0.5719320000000  0.5195550000000  0.4877230000000 1.0
C      1  0.5006170000000  0.5177510000000  0.4678650000000 1.0
C      1  0.5075130000000  0.4980340000000  0.3926320000000 1.0
C      1  0.4788920000000  0.4711290000000  0.5517110000000 1.0
C      1  0.4277020000000  0.5127760000000  0.4977490000000 1.0
C      1  0.5943510000000  0.4569800000000  0.4833410000000 1.0
C      1  0.4682790000000  0.4197800000000  0.5211680000000 1.0
C      1  0.5964930000000  0.4797180000000  0.5675190000000 1.0
C      1  0.4390630000000  0.4047290000000  0.4360350000000 1.0
C      1  0.4164240000000  0.4392910000000  0.4697750000000 1.0
C      1  0.4247790000000  0.5605480000000  0.4713020000000 1.0
C      1  0.5460210000000  0.4118050000000  0.4534250000000 1.0
C      1  0.4662680000000  0.5953530000000  0.5167140000000 1.0
C      1  0.4666720000000  0.4744380000000  0.5983150000000 1.0
C      1  0.5743240000000  0.4715600000000  0.4215290000000 1.0
C      1  0.5218740000000  0.5358130000000  0.4820390000000 1.0
C      1  0.3919610000000  0.4746640000000  0.5157660000000 1.0
C      1  0.4369460000000  0.4830610000000  0.4898610000000 1.0
C      1  0.5286100000000  0.3961200000000  0.5238270000000 1.0
C      1  0.5163260000000  0.4178580000000  0.5421700000000 1.0
C      1  0.4771510000000  0.5412540000000  0.5257000000000 1.0
C      1  0.4613330000000  0.3931340000000  0.5090280000000 1.0
C      1  0.4440160000000  0.5133310000000  0.3985010000000 1.0
C      1  0.3879110000000  0.4722650000000  0.4894080000000 1.0
C      1  0.5299320000000  0.4453380000000  0.5822920000000 1.0
C      1  0.5499530000000  0.5321190000000  0.4696550000000 1.0
C      1  0.5163700000000  0.5973320000000  0.5239450000000 1.0
C      1  0.5832710000000  0.5724090000000  0.5100420000000 1.0
END
