TITL C-950529-3362-19 -2.10842199606853e-06 125000 -1178.96684237252 0 0 188 (C1) n - 1
REM
REM in /home/bkarasulu/work/CARBON/AIRSS/Generating-Clusters/EDIP-Nigel-Params/with-SteepDescent/Only-C1/SD-CG/HFTN-CG
REM
REM
REM
REM
REM
REM ./C.cell (11c1c37f851c82e70ff6c80c92926a4b)
REM
REM compiler GCC version 9.2.1 20190827 (Red Hat 9.2.1-1)
REM options -cpp -mtune=generic -march=x86-64 -g -O0 -fpre-include=/usr/include/finclude/math-vector-fortran.h
REM seed -1251704396 -1575249812 1635253249 -1710469311 757573313 1710675980 1687504462 1983177866 -918454872 -1559815359 -1395834693 25521044 -108779406 -343085353 1405550314 623694131 -1785717386 -1364929760 -138507655 1227707082 -2081236641 1293326305 123420002 990299754 -1123079800 -896804928 1883086389 -1740509821 1157419297 -902399572 1281772547 2044349100 -1024307394
REM
CELL 1.54180   50.00000   50.00000   50.00000   90.00000   90.00000   90.00000
LATT -1
SFAC C  
C      1  0.4472060000000  0.4018400000000  0.5171210000000 1.0
C      1  0.3901840000000  0.5391420000000  0.5118770000000 1.0
C      1  0.6161190000000  0.4445700000000  0.5044210000000 1.0
C      1  0.5478050000000  0.5946760000000  0.4982050000000 1.0
C      1  0.4608450000000  0.5235140000000  0.4503680000000 1.0
C      1  0.4949180000000  0.5025470000000  0.4731390000000 1.0
C      1  0.5785500000000  0.4507880000000  0.5545030000000 1.0
C      1  0.4490910000000  0.5838090000000  0.4612850000000 1.0
C      1  0.5270110000000  0.4038480000000  0.4941420000000 1.0
C      1  0.4967900000000  0.5734130000000  0.4935710000000 1.0
C      1  0.4649200000000  0.5466720000000  0.5801250000000 1.0
C      1  0.5964680000000  0.5470870000000  0.5481980000000 1.0
C      1  0.5461360000000  0.5680010000000  0.5133050000000 1.0
C      1  0.6163490000000  0.5171230000000  0.4823230000000 1.0
C      1  0.4811820000000  0.5050240000000  0.6103960000000 1.0
C      1  0.4413730000000  0.4958810000000  0.5075720000000 1.0
C      1  0.5675720000000  0.4817650000000  0.5121720000000 1.0
C      1  0.4511710000000  0.4263560000000  0.4445000000000 1.0
C      1  0.4306490000000  0.4667420000000  0.5438250000000 1.0
C      1  0.4147720000000  0.5370540000000  0.4509910000000 1.0
C      1  0.5115080000000  0.5929160000000  0.4367350000000 1.0
C      1  0.4385730000000  0.5345930000000  0.5859910000000 1.0
C      1  0.4573780000000  0.4068090000000  0.4657770000000 1.0
C      1  0.4089410000000  0.4809150000000  0.4409970000000 1.0
C      1  0.5315020000000  0.5571570000000  0.5928040000000 1.0
C      1  0.4804860000000  0.5995890000000  0.4954640000000 1.0
C      1  0.5129210000000  0.4910630000000  0.5650030000000 1.0
C      1  0.5499780000000  0.5381550000000  0.4006410000000 1.0
C      1  0.4379630000000  0.5449600000000  0.5384260000000 1.0
C      1  0.4852670000000  0.5274060000000  0.4867930000000 1.0
C      1  0.5782820000000  0.4579490000000  0.4388430000000 1.0
C      1  0.4596200000000  0.4446420000000  0.3992460000000 1.0
C      1  0.4641200000000  0.5927080000000  0.5360950000000 1.0
C      1  0.4160920000000  0.4565540000000  0.4249950000000 1.0
C      1  0.5916630000000  0.4633740000000  0.4666150000000 1.0
C      1  0.3984640000000  0.5048570000000  0.4250440000000 1.0
C      1  0.4921160000000  0.6026620000000  0.5384610000000 1.0
C      1  0.4554200000000  0.4198810000000  0.4934420000000 1.0
C      1  0.5144190000000  0.5384520000000  0.6068210000000 1.0
C      1  0.5591090000000  0.4585050000000  0.5326330000000 1.0
C      1  0.5012160000000  0.3967370000000  0.4369980000000 1.0
C      1  0.5340120000000  0.4031970000000  0.4662870000000 1.0
C      1  0.4941470000000  0.4879650000000  0.5152460000000 1.0
C      1  0.4672480000000  0.5765780000000  0.5841410000000 1.0
C      1  0.5205800000000  0.5501960000000  0.4581370000000 1.0
C      1  0.4901150000000  0.4708260000000  0.5576380000000 1.0
C      1  0.4153440000000  0.4441240000000  0.4738630000000 1.0
C      1  0.4936880000000  0.4517590000000  0.4746680000000 1.0
C      1  0.4536970000000  0.5972120000000  0.5087600000000 1.0
C      1  0.3978120000000  0.5141270000000  0.4971700000000 1.0
C      1  0.5116850000000  0.4676040000000  0.5958480000000 1.0
C      1  0.4799910000000  0.6144920000000  0.4697330000000 1.0
C      1  0.4891530000000  0.4452650000000  0.5932520000000 1.0
C      1  0.4338830000000  0.5463340000000  0.5085670000000 1.0
C      1  0.4698150000000  0.4624850000000  0.5782690000000 1.0
C      1  0.5547590000000  0.5156650000000  0.5369990000000 1.0
C      1  0.5661560000000  0.5293660000000  0.4574620000000 1.0
C      1  0.4780160000000  0.5194180000000  0.5440870000000 1.0
C      1  0.3941260000000  0.5141130000000  0.5411570000000 1.0
C      1  0.4108480000000  0.4725040000000  0.5656030000000 1.0
C      1  0.4568050000000  0.6099540000000  0.4543760000000 1.0
C      1  0.3891530000000  0.5224720000000  0.4473860000000 1.0
C      1  0.4374020000000  0.5074920000000  0.5706080000000 1.0
C      1  0.5347690000000  0.5888090000000  0.5574840000000 1.0
C      1  0.4997980000000  0.5187820000000  0.5652790000000 1.0
C      1  0.5371500000000  0.5578130000000  0.4137880000000 1.0
C      1  0.5960650000000  0.4911300000000  0.5225480000000 1.0
C      1  0.4868730000000  0.5803640000000  0.4264590000000 1.0
C      1  0.4938060000000  0.4194430000000  0.4208650000000 1.0
C      1  0.4651890000000  0.4235180000000  0.4183620000000 1.0
C      1  0.4841120000000  0.4389770000000  0.5282000000000 1.0
C      1  0.5599750000000  0.4795390000000  0.5894550000000 1.0
C      1  0.4278380000000  0.5102650000000  0.3852060000000 1.0
C      1  0.5228230000000  0.4531100000000  0.4664310000000 1.0
C      1  0.5139400000000  0.5367150000000  0.5242050000000 1.0
C      1  0.5912080000000  0.5182900000000  0.4122350000000 1.0
C      1  0.5789630000000  0.5032760000000  0.4519700000000 1.0
C      1  0.4461080000000  0.4237120000000  0.5596770000000 1.0
C      1  0.5596380000000  0.5527130000000  0.5906310000000 1.0
C      1  0.4937860000000  0.5865210000000  0.5852660000000 1.0
C      1  0.5593440000000  0.5948240000000  0.4732280000000 1.0
C      1  0.4074200000000  0.5025910000000  0.5649450000000 1.0
C      1  0.4952620000000  0.4217570000000  0.5745110000000 1.0
C      1  0.5320490000000  0.5707170000000  0.4391250000000 1.0
C      1  0.5228400000000  0.6092500000000  0.4943870000000 1.0
C      1  0.4222160000000  0.4664760000000  0.5912950000000 1.0
C      1  0.4371980000000  0.4461570000000  0.4947790000000 1.0
C      1  0.4840910000000  0.4609330000000  0.3940860000000 1.0
C      1  0.4985340000000  0.4972790000000  0.4243890000000 1.0
C      1  0.5875040000000  0.5241950000000  0.5640970000000 1.0
C      1  0.5218710000000  0.4258820000000  0.5600350000000 1.0
C      1  0.5707580000000  0.4293700000000  0.5711210000000 1.0
C      1  0.5278670000000  0.5035490000000  0.4758590000000 1.0
C      1  0.4361040000000  0.4619460000000  0.4026990000000 1.0
C      1  0.5465800000000  0.4682690000000  0.3968840000000 1.0
C      1  0.5318740000000  0.4010480000000  0.5474380000000 1.0
C      1  0.3905930000000  0.4559180000000  0.4794110000000 1.0
C      1  0.5399240000000  0.4587230000000  0.5935290000000 1.0
C      1  0.4891010000000  0.5113490000000  0.3996100000000 1.0
C      1  0.4972450000000  0.4659960000000  0.4226850000000 1.0
C      1  0.5362620000000  0.4489460000000  0.4145850000000 1.0
C      1  0.5531420000000  0.4083370000000  0.5296040000000 1.0
C      1  0.5584290000000  0.5815120000000  0.4489910000000 1.0
C      1  0.5473490000000  0.5407630000000  0.5555500000000 1.0
C      1  0.4738410000000  0.4191890000000  0.5507150000000 1.0
C      1  0.6131260000000  0.4685600000000  0.5178000000000 1.0
C      1  0.5172140000000  0.5412610000000  0.5536400000000 1.0
C      1  0.5367740000000  0.5266260000000  0.4601000000000 1.0
C      1  0.5664320000000  0.4670870000000  0.4841830000000 1.0
C      1  0.4473420000000  0.4820710000000  0.5892060000000 1.0
C      1  0.5878680000000  0.4236290000000  0.4879920000000 1.0
C      1  0.6026810000000  0.5086090000000  0.4362300000000 1.0
C      1  0.5093910000000  0.5787440000000  0.5434790000000 1.0
C      1  0.5833270000000  0.5719730000000  0.5488890000000 1.0
C      1  0.3879030000000  0.4771420000000  0.4617230000000 1.0
C      1  0.5526760000000  0.5063170000000  0.5963460000000 1.0
C      1  0.4563800000000  0.4922450000000  0.6145320000000 1.0
C      1  0.6082300000000  0.5388080000000  0.5245250000000 1.0
C      1  0.6078420000000  0.5156650000000  0.5091760000000 1.0
C      1  0.3830330000000  0.5052360000000  0.4712680000000 1.0
C      1  0.5796760000000  0.5619040000000  0.4508490000000 1.0
C      1  0.4988060000000  0.4018540000000  0.4989530000000 1.0
C      1  0.5715340000000  0.5271740000000  0.5889470000000 1.0
C      1  0.3913190000000  0.4960130000000  0.5193770000000 1.0
C      1  0.4083050000000  0.5606930000000  0.5046190000000 1.0
C      1  0.4755970000000  0.5391500000000  0.4054750000000 1.0
C      1  0.4182690000000  0.5201060000000  0.4098860000000 1.0
C      1  0.5198760000000  0.4751120000000  0.5230910000000 1.0
C      1  0.4180690000000  0.5535450000000  0.5810380000000 1.0
C      1  0.5428020000000  0.3880090000000  0.5123480000000 1.0
C      1  0.5158450000000  0.5651690000000  0.5162160000000 1.0
C      1  0.5548720000000  0.5687440000000  0.5440870000000 1.0
C      1  0.4801040000000  0.5018140000000  0.4472490000000 1.0
C      1  0.4279400000000  0.5438080000000  0.4249690000000 1.0
C      1  0.4709890000000  0.5664970000000  0.4485230000000 1.0
C      1  0.5499690000000  0.4345600000000  0.5165370000000 1.0
C      1  0.5089420000000  0.3752100000000  0.4565370000000 1.0
C      1  0.4508150000000  0.4751040000000  0.4890340000000 1.0
C      1  0.4814800000000  0.3897190000000  0.4600410000000 1.0
C      1  0.4581680000000  0.5437220000000  0.4304740000000 1.0
C      1  0.6199280000000  0.5201570000000  0.4552390000000 1.0
C      1  0.5795750000000  0.5378840000000  0.4843480000000 1.0
C      1  0.4620200000000  0.4793130000000  0.4466430000000 1.0
C      1  0.4265520000000  0.5658930000000  0.5567340000000 1.0
C      1  0.5555840000000  0.4380590000000  0.4356310000000 1.0
C      1  0.4443580000000  0.4887860000000  0.3926840000000 1.0
C      1  0.5127400000000  0.4471970000000  0.5363930000000 1.0
C      1  0.6078860000000  0.4407420000000  0.4768040000000 1.0
C      1  0.5818980000000  0.4754020000000  0.5696820000000 1.0
C      1  0.5508070000000  0.4910040000000  0.4126660000000 1.0
C      1  0.4888720000000  0.5286160000000  0.5928840000000 1.0
C      1  0.5412150000000  0.4774980000000  0.4655890000000 1.0
C      1  0.5569020000000  0.5382750000000  0.5046760000000 1.0
C      1  0.4350520000000  0.4875120000000  0.4582970000000 1.0
C      1  0.5617450000000  0.4372000000000  0.4886910000000 1.0
C      1  0.4912190000000  0.5627630000000  0.4045370000000 1.0
C      1  0.4492860000000  0.5862030000000  0.5613430000000 1.0
C      1  0.5912800000000  0.4974130000000  0.5526760000000 1.0
C      1  0.4704030000000  0.3933760000000  0.5348470000000 1.0
C      1  0.5069210000000  0.4909930000000  0.6144910000000 1.0
C      1  0.4911920000000  0.5199210000000  0.5165070000000 1.0
C      1  0.5609700000000  0.4829180000000  0.4399900000000 1.0
C      1  0.4741710000000  0.4767730000000  0.5334120000000 1.0
C      1  0.4285330000000  0.5188050000000  0.4946040000000 1.0
C      1  0.5367290000000  0.4887700000000  0.5437680000000 1.0
C      1  0.5046340000000  0.6189410000000  0.5162320000000 1.0
C      1  0.4313970000000  0.4193110000000  0.5354720000000 1.0
C      1  0.4235280000000  0.4369910000000  0.4460600000000 1.0
C      1  0.5433570000000  0.4312050000000  0.4630990000000 1.0
C      1  0.4348940000000  0.5179200000000  0.4640210000000 1.0
C      1  0.4927190000000  0.3851330000000  0.5205160000000 1.0
C      1  0.5118720000000  0.4353030000000  0.4032790000000 1.0
C      1  0.4253200000000  0.4453710000000  0.5231930000000 1.0
C      1  0.5441240000000  0.4350960000000  0.5779100000000 1.0
C      1  0.5651720000000  0.5147820000000  0.4014850000000 1.0
C      1  0.4931280000000  0.5535060000000  0.4716900000000 1.0
C      1  0.4836290000000  0.4780770000000  0.4880730000000 1.0
C      1  0.4779530000000  0.4541390000000  0.4467590000000 1.0
C      1  0.5415860000000  0.5088440000000  0.5047500000000 1.0
C      1  0.5281300000000  0.5122170000000  0.6119540000000 1.0
C      1  0.5221100000000  0.5834090000000  0.5849370000000 1.0
C      1  0.5075790000000  0.6103290000000  0.4602910000000 1.0
C      1  0.5912570000000  0.5639430000000  0.4775970000000 1.0
C      1  0.4381210000000  0.5802570000000  0.4900590000000 1.0
C      1  0.4469450000000  0.4912640000000  0.5362610000000 1.0
C      1  0.4839620000000  0.4280700000000  0.4988370000000 1.0
C      1  0.4730680000000  0.4888950000000  0.3859500000000 1.0
C      1  0.4640560000000  0.5428140000000  0.5503590000000 1.0
END
