TITL C-950522-5749-195 4.24522382478821e-07 125000 -1168.93882667896 0 0 189 (C1) n - 1
REM
REM in /home/bkarasulu/work/CARBON/AIRSS/Generating-Clusters/EDIP-Nigel-Params/with-SteepDescent/Only-C1/SD-CG/HFTN-CG
REM
REM
REM
REM
REM
REM ./C.cell (11c1c37f851c82e70ff6c80c92926a4b)
REM
REM compiler GCC version 9.2.1 20190827 (Red Hat 9.2.1-1)
REM options -cpp -mtune=generic -march=x86-64 -g -O0 -fpre-include=/usr/include/finclude/math-vector-fortran.h
REM seed 480092848 1206773562 -1892781738 1556009205 -1359662707 874873230 -684480299 -581416900 -1743541992 1402059624 235217928 193860631 -1581236951 -1149734905 81770393 1051120565 1856357373 1953773979 -1496051019 268517161 -1849836892 -1699522365 808049340 -567036554 -1524314678 394837504 301336283 -947965434 677265746 1407320619 -2057713929 -934599915 -1030926323
REM
CELL 1.54180   50.00000   50.00000   50.00000   90.00000   90.00000   90.00000
LATT -1
SFAC C  
C      1  0.4142660000000  0.4354030000000  0.4762490000000 1.0
C      1  0.4349560000000  0.5022500000000  0.4618220000000 1.0
C      1  0.4000000000000  0.4928760000000  0.5694470000000 1.0
C      1  0.5441860000000  0.4729580000000  0.4451990000000 1.0
C      1  0.5470540000000  0.5820750000000  0.5074560000000 1.0
C      1  0.5527860000000  0.5029050000000  0.6081480000000 1.0
C      1  0.3994090000000  0.5275690000000  0.5085340000000 1.0
C      1  0.5330430000000  0.4000310000000  0.4669200000000 1.0
C      1  0.5011110000000  0.5216230000000  0.4481000000000 1.0
C      1  0.5224700000000  0.5525290000000  0.4798890000000 1.0
C      1  0.4611000000000  0.4579530000000  0.5924570000000 1.0
C      1  0.5478710000000  0.5967800000000  0.4784610000000 1.0
C      1  0.5074700000000  0.4938670000000  0.5172240000000 1.0
C      1  0.5240700000000  0.5222640000000  0.6253540000000 1.0
C      1  0.5262590000000  0.6132390000000  0.4946400000000 1.0
C      1  0.4972410000000  0.6134180000000  0.4606790000000 1.0
C      1  0.4148580000000  0.4384400000000  0.5290660000000 1.0
C      1  0.3981950000000  0.4802050000000  0.4525960000000 1.0
C      1  0.6095130000000  0.5442990000000  0.5149440000000 1.0
C      1  0.5704790000000  0.4211580000000  0.5208180000000 1.0
C      1  0.5135770000000  0.5996230000000  0.4426050000000 1.0
C      1  0.5657640000000  0.4425870000000  0.5642430000000 1.0
C      1  0.5887230000000  0.5563840000000  0.5681160000000 1.0
C      1  0.4941520000000  0.4628350000000  0.4306280000000 1.0
C      1  0.4484840000000  0.4791810000000  0.5504250000000 1.0
C      1  0.4374270000000  0.4989300000000  0.6010370000000 1.0
C      1  0.5493440000000  0.5550890000000  0.4940040000000 1.0
C      1  0.4514160000000  0.4082230000000  0.4701480000000 1.0
C      1  0.4968960000000  0.4617260000000  0.5558700000000 1.0
C      1  0.4175710000000  0.4809010000000  0.4277360000000 1.0
C      1  0.5724710000000  0.5776740000000  0.5247030000000 1.0
C      1  0.5114030000000  0.3844030000000  0.5128730000000 1.0
C      1  0.4180820000000  0.4796830000000  0.5863780000000 1.0
C      1  0.4387100000000  0.4620240000000  0.4912700000000 1.0
C      1  0.4749600000000  0.5664380000000  0.4721620000000 1.0
C      1  0.5007090000000  0.5598940000000  0.4564320000000 1.0
C      1  0.3866040000000  0.5027540000000  0.4954110000000 1.0
C      1  0.5807930000000  0.4437310000000  0.5373150000000 1.0
C      1  0.6083310000000  0.5227360000000  0.4678590000000 1.0
C      1  0.4206150000000  0.5334580000000  0.4343360000000 1.0
C      1  0.4836960000000  0.5824140000000  0.4969130000000 1.0
C      1  0.5018470000000  0.5584870000000  0.4241220000000 1.0
C      1  0.4622800000000  0.6025660000000  0.5384430000000 1.0
C      1  0.4406260000000  0.4019040000000  0.4971160000000 1.0
C      1  0.4621000000000  0.4824670000000  0.3868030000000 1.0
C      1  0.5152240000000  0.5100830000000  0.4242110000000 1.0
C      1  0.4510430000000  0.5817660000000  0.4599940000000 1.0
C      1  0.4718730000000  0.5438430000000  0.4239220000000 1.0
C      1  0.4840540000000  0.3792660000000  0.5141430000000 1.0
C      1  0.4729100000000  0.4368380000000  0.3968190000000 1.0
C      1  0.5277610000000  0.5427200000000  0.5579690000000 1.0
C      1  0.5445730000000  0.4966630000000  0.3909560000000 1.0
C      1  0.4131020000000  0.5721700000000  0.4941550000000 1.0
C      1  0.6059830000000  0.5171850000000  0.5207930000000 1.0
C      1  0.4211120000000  0.4238070000000  0.5036770000000 1.0
C      1  0.4502890000000  0.4563410000000  0.3934380000000 1.0
C      1  0.5442450000000  0.4152060000000  0.5361330000000 1.0
C      1  0.5447320000000  0.5226410000000  0.4465290000000 1.0
C      1  0.4707860000000  0.4336240000000  0.4724530000000 1.0
C      1  0.4904650000000  0.4554500000000  0.5856820000000 1.0
C      1  0.4309950000000  0.4542860000000  0.4155840000000 1.0
C      1  0.4505410000000  0.5198410000000  0.5833090000000 1.0
C      1  0.5065630000000  0.5684610000000  0.5117450000000 1.0
C      1  0.6006670000000  0.4789690000000  0.4493390000000 1.0
C      1  0.4050550000000  0.5015350000000  0.5441470000000 1.0
C      1  0.4402860000000  0.4924000000000  0.4910380000000 1.0
C      1  0.4502770000000  0.5616330000000  0.5589100000000 1.0
C      1  0.5185060000000  0.4397960000000  0.5111530000000 1.0
C      1  0.5188080000000  0.4803140000000  0.4288170000000 1.0
C      1  0.5640760000000  0.5086820000000  0.5091880000000 1.0
C      1  0.4512680000000  0.5907130000000  0.5626050000000 1.0
C      1  0.5571290000000  0.4907530000000  0.4858900000000 1.0
C      1  0.5842980000000  0.5640900000000  0.4802260000000 1.0
C      1  0.5349540000000  0.5365290000000  0.6038010000000 1.0
C      1  0.5786750000000  0.5477160000000  0.4371050000000 1.0
C      1  0.5368130000000  0.6053970000000  0.5432000000000 1.0
C      1  0.4944350000000  0.5215230000000  0.6229660000000 1.0
C      1  0.5662460000000  0.5627540000000  0.5507650000000 1.0
C      1  0.5343480000000  0.5488970000000  0.4165390000000 1.0
C      1  0.4441310000000  0.4321140000000  0.4304200000000 1.0
C      1  0.5621090000000  0.4981250000000  0.4517870000000 1.0
C      1  0.5933190000000  0.4985210000000  0.4282700000000 1.0
C      1  0.4286660000000  0.5081300000000  0.4191330000000 1.0
C      1  0.5023600000000  0.4311560000000  0.5947580000000 1.0
C      1  0.5047870000000  0.4789460000000  0.4869560000000 1.0
C      1  0.4540540000000  0.4164130000000  0.5504440000000 1.0
C      1  0.4385530000000  0.4613330000000  0.5717390000000 1.0
C      1  0.5406270000000  0.4508700000000  0.4684790000000 1.0
C      1  0.4578170000000  0.5246930000000  0.4548570000000 1.0
C      1  0.4788710000000  0.4828830000000  0.4715330000000 1.0
C      1  0.3907740000000  0.4731870000000  0.5001900000000 1.0
C      1  0.5349050000000  0.4786130000000  0.5347280000000 1.0
C      1  0.4494600000000  0.5080580000000  0.5140460000000 1.0
C      1  0.4768950000000  0.4024920000000  0.5600070000000 1.0
C      1  0.5274530000000  0.4649040000000  0.5605730000000 1.0
C      1  0.5579520000000  0.4602340000000  0.4925780000000 1.0
C      1  0.4167620000000  0.5413700000000  0.4886440000000 1.0
C      1  0.4393030000000  0.4659950000000  0.4568010000000 1.0
C      1  0.4519570000000  0.5062440000000  0.4007720000000 1.0
C      1  0.5838990000000  0.4535230000000  0.4446980000000 1.0
C      1  0.5522610000000  0.5639770000000  0.4354390000000 1.0
C      1  0.5866290000000  0.4864680000000  0.5489620000000 1.0
C      1  0.4704660000000  0.4594450000000  0.4535800000000 1.0
C      1  0.5928890000000  0.5653460000000  0.5071410000000 1.0
C      1  0.5232080000000  0.3938340000000  0.5378820000000 1.0
C      1  0.5818740000000  0.4415240000000  0.4928940000000 1.0
C      1  0.4855310000000  0.5339220000000  0.5483720000000 1.0
C      1  0.5270340000000  0.5234060000000  0.5791240000000 1.0
C      1  0.5401710000000  0.4767750000000  0.5966770000000 1.0
C      1  0.5856320000000  0.4830640000000  0.5789690000000 1.0
C      1  0.4872520000000  0.4914970000000  0.6196200000000 1.0
C      1  0.4702600000000  0.4196070000000  0.4204450000000 1.0
C      1  0.4123520000000  0.5671230000000  0.5244120000000 1.0
C      1  0.4430370000000  0.5605200000000  0.5252260000000 1.0
C      1  0.4977810000000  0.4528310000000  0.4022660000000 1.0
C      1  0.5052920000000  0.3981560000000  0.5616140000000 1.0
C      1  0.5200520000000  0.4168580000000  0.5789630000000 1.0
C      1  0.3944840000000  0.5455640000000  0.5300770000000 1.0
C      1  0.5059170000000  0.4796590000000  0.5984250000000 1.0
C      1  0.5312250000000  0.6220140000000  0.5220680000000 1.0
C      1  0.4985060000000  0.4261070000000  0.4725910000000 1.0
C      1  0.4313230000000  0.4223500000000  0.4545910000000 1.0
C      1  0.4541650000000  0.5667770000000  0.4190070000000 1.0
C      1  0.5229790000000  0.4049320000000  0.4949630000000 1.0
C      1  0.5870640000000  0.5282600000000  0.5689910000000 1.0
C      1  0.4776290000000  0.5545740000000  0.5665900000000 1.0
C      1  0.3961450000000  0.4592880000000  0.5245260000000 1.0
C      1  0.4933380000000  0.5682060000000  0.5995770000000 1.0
C      1  0.5519590000000  0.5357220000000  0.5431590000000 1.0
C      1  0.5672950000000  0.4482470000000  0.4188850000000 1.0
C      1  0.4590540000000  0.4806660000000  0.6118060000000 1.0
C      1  0.4726840000000  0.5259900000000  0.4007940000000 1.0
C      1  0.5165740000000  0.5223160000000  0.5119730000000 1.0
C      1  0.4763450000000  0.4861510000000  0.5490810000000 1.0
C      1  0.6058530000000  0.4954430000000  0.4747940000000 1.0
C      1  0.5949610000000  0.5466230000000  0.4609540000000 1.0
C      1  0.4638810000000  0.5405210000000  0.4794510000000 1.0
C      1  0.4965440000000  0.5875100000000  0.4221680000000 1.0
C      1  0.4997950000000  0.5420240000000  0.5237400000000 1.0
C      1  0.5957860000000  0.4684790000000  0.5251640000000 1.0
C      1  0.5523640000000  0.5228990000000  0.4057950000000 1.0
C      1  0.5326320000000  0.5694510000000  0.5689370000000 1.0
C      1  0.4071980000000  0.5293320000000  0.4608810000000 1.0
C      1  0.6007210000000  0.5119440000000  0.5485620000000 1.0
C      1  0.5426780000000  0.4553460000000  0.5179790000000 1.0
C      1  0.4969020000000  0.6084320000000  0.4879120000000 1.0
C      1  0.5230300000000  0.5229690000000  0.4678800000000 1.0
C      1  0.5042230000000  0.5040340000000  0.5805510000000 1.0
C      1  0.5277160000000  0.4960280000000  0.4785210000000 1.0
C      1  0.4794360000000  0.5102180000000  0.5660300000000 1.0
C      1  0.4585590000000  0.3878590000000  0.5136390000000 1.0
C      1  0.5138050000000  0.4495630000000  0.4831620000000 1.0
C      1  0.4678130000000  0.5910680000000  0.4266510000000 1.0
C      1  0.4996690000000  0.4151580000000  0.4300620000000 1.0
C      1  0.5786860000000  0.5091450000000  0.5913250000000 1.0
C      1  0.5081160000000  0.5832490000000  0.5790070000000 1.0
C      1  0.4358220000000  0.5435980000000  0.5762830000000 1.0
C      1  0.4782750000000  0.4978660000000  0.5231850000000 1.0
C      1  0.5453970000000  0.5315730000000  0.5133120000000 1.0
C      1  0.4364660000000  0.5895540000000  0.4871370000000 1.0
C      1  0.5650320000000  0.4641080000000  0.5837010000000 1.0
C      1  0.5484730000000  0.4262070000000  0.4262190000000 1.0
C      1  0.5216270000000  0.4261960000000  0.4139040000000 1.0
C      1  0.4454950000000  0.5370130000000  0.5024130000000 1.0
C      1  0.3978890000000  0.4605520000000  0.4746870000000 1.0
C      1  0.4313920000000  0.4352210000000  0.5544160000000 1.0
C      1  0.5130450000000  0.5896430000000  0.5349780000000 1.0
C      1  0.4926740000000  0.4783190000000  0.3835510000000 1.0
C      1  0.5181360000000  0.4994780000000  0.3768720000000 1.0
C      1  0.5371680000000  0.5841540000000  0.4532690000000 1.0
C      1  0.5593740000000  0.4976590000000  0.5382000000000 1.0
C      1  0.4649380000000  0.4493080000000  0.4971280000000 1.0
C      1  0.4324800000000  0.4994150000000  0.5375090000000 1.0
C      1  0.5383340000000  0.4330710000000  0.5602380000000 1.0
C      1  0.5479260000000  0.4695460000000  0.4057970000000 1.0
C      1  0.4959980000000  0.4425360000000  0.5321700000000 1.0
C      1  0.3910990000000  0.5053450000000  0.4658870000000 1.0
C      1  0.4784150000000  0.5048300000000  0.4525940000000 1.0
C      1  0.4896380000000  0.5939940000000  0.5548260000000 1.0
C      1  0.5089440000000  0.3964480000000  0.4502940000000 1.0
C      1  0.4700890000000  0.4374100000000  0.5224410000000 1.0
C      1  0.4564520000000  0.5863500000000  0.5127380000000 1.0
C      1  0.4838860000000  0.5412310000000  0.6022830000000 1.0
C      1  0.5506070000000  0.4234780000000  0.4565200000000 1.0
C      1  0.5001480000000  0.5132790000000  0.3978860000000 1.0
C      1  0.5794140000000  0.5233240000000  0.4197110000000 1.0
C      1  0.6045710000000  0.4914990000000  0.5048170000000 1.0
C      1  0.4316930000000  0.5605880000000  0.4346890000000 1.0
C      1  0.5806630000000  0.4310820000000  0.4649220000000 1.0
END
