TITL C-950535-5962-698 5.42056950573877e-07 125000 -235.564632144834 0 0 40 (C1) n - 1
REM
REM in /home/bkarasulu/work/CARBON/AIRSS/Generating-Clusters/EDIP-Nigel-Params/with-SteepDescent/Only-C1/SD-CG/HFTN-CG
REM
REM
REM
REM
REM
REM ./C.cell (11c1c37f851c82e70ff6c80c92926a4b)
REM
REM compiler GCC version 9.2.1 20190827 (Red Hat 9.2.1-1)
REM options -cpp -mtune=generic -march=x86-64 -g -O0 -fpre-include=/usr/include/finclude/math-vector-fortran.h
REM seed 419735278 766798263 -674397126 794849808 1645369745 -1567116955 -1453002213 -232143693 -14131315 1000931586 -979788793 563144056 1000721087 801701174 -95611066 -51424031 283528800 689786665 -1228477064 -1636061987 1860511162 1641630789 -995283575 718007591 689560472 -1066291732 1327463051 645309717 1798044676 -1614477786 828499089 787934648 797434065
REM
CELL 1.54180   50.00000   50.00000   50.00000   90.00000   90.00000   90.00000
LATT -1
SFAC C  
C      1  0.5220620000000  0.4465320000000  0.5402490000000 1.0
C      1  0.5479340000000  0.5164430000000  0.4779010000000 1.0
C      1  0.4541400000000  0.4675970000000  0.4552910000000 1.0
C      1  0.5475730000000  0.5049320000000  0.5058440000000 1.0
C      1  0.4843570000000  0.4991490000000  0.5092490000000 1.0
C      1  0.5041590000000  0.4879830000000  0.5519540000000 1.0
C      1  0.5035580000000  0.5607610000000  0.5217900000000 1.0
C      1  0.5371800000000  0.5428460000000  0.4764310000000 1.0
C      1  0.4594230000000  0.5086140000000  0.5530780000000 1.0
C      1  0.4593650000000  0.5357580000000  0.4699340000000 1.0
C      1  0.4950700000000  0.5302130000000  0.4443330000000 1.0
C      1  0.4789590000000  0.5613290000000  0.5062200000000 1.0
C      1  0.5060440000000  0.5086450000000  0.4901770000000 1.0
C      1  0.4964600000000  0.4789620000000  0.5251330000000 1.0
C      1  0.5116250000000  0.4611040000000  0.4449360000000 1.0
C      1  0.5306330000000  0.4564150000000  0.4634530000000 1.0
C      1  0.4847900000000  0.5524960000000  0.4750050000000 1.0
C      1  0.4820960000000  0.5008410000000  0.5660470000000 1.0
C      1  0.5404760000000  0.5208310000000  0.5297460000000 1.0
C      1  0.5404930000000  0.4828410000000  0.5674150000000 1.0
C      1  0.5430020000000  0.4575930000000  0.5252270000000 1.0
C      1  0.4458620000000  0.5265790000000  0.4946590000000 1.0
C      1  0.5514860000000  0.4756810000000  0.5054520000000 1.0
C      1  0.5419320000000  0.5071830000000  0.5541180000000 1.0
C      1  0.5109590000000  0.5378620000000  0.4887310000000 1.0
C      1  0.4748590000000  0.5193740000000  0.5312280000000 1.0
C      1  0.4899600000000  0.4514170000000  0.5195940000000 1.0
C      1  0.4690120000000  0.5177270000000  0.4488630000000 1.0
C      1  0.4969840000000  0.4831730000000  0.4371710000000 1.0
C      1  0.5186540000000  0.4635640000000  0.5640960000000 1.0
C      1  0.4371640000000  0.4995050000000  0.4978880000000 1.0
C      1  0.4648760000000  0.4559680000000  0.5040030000000 1.0
C      1  0.5254220000000  0.4968100000000  0.4681310000000 1.0
C      1  0.5506450000000  0.4661840000000  0.4790920000000 1.0
C      1  0.5134570000000  0.5075030000000  0.4410320000000 1.0
C      1  0.4596320000000  0.4500070000000  0.4762090000000 1.0
C      1  0.4725160000000  0.4885610000000  0.4516500000000 1.0
C      1  0.4596390000000  0.5408500000000  0.5170080000000 1.0
C      1  0.5255260000000  0.5448700000000  0.5275340000000 1.0
C      1  0.4620170000000  0.4852990000000  0.4941270000000 1.0
END
