TITL C-951348-1603-129 -2.25205257126177e-07 125000 -393.165763830127 0 0 65 (C1) n - 1
REM
REM in /home/bkarasulu/work/CARBON/AIRSS/Generating-Clusters/EDIP-Nigel-Params/with-SteepDescent/Only-C1/SD-CG/HFTN-CG
REM
REM
REM
REM
REM
REM ./C.cell (11c1c37f851c82e70ff6c80c92926a4b)
REM
REM compiler GCC version 9.2.1 20190827 (Red Hat 9.2.1-1)
REM options -cpp -mtune=generic -march=x86-64 -g -O0 -fpre-include=/usr/include/finclude/math-vector-fortran.h
REM seed -42076633 -324711684 -1943070049 1889394394 -1627666512 -2076578256 -2144113285 -117470729 1109288099 158412474 261938597 -508219037 -1575810482 275829336 -101573877 1568736831 1457850797 358556886 1515836853 -94044435 998615853 -1395798600 -1709703833 -591322553 -582879066 -815570550 -407118776 -1144112255 1769107430 -198280098 -50811398 1882017813 -839385334
REM
CELL 1.54180   50.00000   50.00000   50.00000   90.00000   90.00000   90.00000
LATT -1
SFAC C  
C      1  0.4850910000000  0.4252540000000  0.5121350000000 1.0
C      1  0.5021580000000  0.4638500000000  0.4297670000000 1.0
C      1  0.4912520000000  0.4363550000000  0.4678830000000 1.0
C      1  0.4548450000000  0.4590390000000  0.5160450000000 1.0
C      1  0.4778900000000  0.4848080000000  0.5437550000000 1.0
C      1  0.4760900000000  0.5069510000000  0.4309540000000 1.0
C      1  0.4976200000000  0.4470120000000  0.5551780000000 1.0
C      1  0.5608450000000  0.5313710000000  0.4864950000000 1.0
C      1  0.5068850000000  0.5584710000000  0.5116480000000 1.0
C      1  0.5316360000000  0.5348390000000  0.5662150000000 1.0
C      1  0.4777710000000  0.4776970000000  0.4333770000000 1.0
C      1  0.4843110000000  0.5626480000000  0.5524140000000 1.0
C      1  0.5340560000000  0.5614910000000  0.5516400000000 1.0
C      1  0.4694280000000  0.5063900000000  0.5013300000000 1.0
C      1  0.4817710000000  0.5346600000000  0.5445600000000 1.0
C      1  0.5288760000000  0.5126210000000  0.5012480000000 1.0
C      1  0.5612760000000  0.5155060000000  0.5313120000000 1.0
C      1  0.4906660000000  0.5187200000000  0.5695900000000 1.0
C      1  0.5113680000000  0.4688080000000  0.5678520000000 1.0
C      1  0.4769320000000  0.4412450000000  0.5360080000000 1.0
C      1  0.5035450000000  0.4418660000000  0.4945420000000 1.0
C      1  0.4881030000000  0.5141700000000  0.4795740000000 1.0
C      1  0.5185580000000  0.5765560000000  0.4726780000000 1.0
C      1  0.5001090000000  0.5456750000000  0.4386330000000 1.0
C      1  0.4537500000000  0.4643400000000  0.4369030000000 1.0
C      1  0.5480110000000  0.4696770000000  0.5271150000000 1.0
C      1  0.5032200000000  0.4900640000000  0.5275140000000 1.0
C      1  0.4873820000000  0.5719760000000  0.4952450000000 1.0
C      1  0.5403110000000  0.5329680000000  0.4642070000000 1.0
C      1  0.5009120000000  0.4730170000000  0.5002080000000 1.0
C      1  0.5028470000000  0.5280790000000  0.5183220000000 1.0
C      1  0.5720060000000  0.5016070000000  0.4846920000000 1.0
C      1  0.5559070000000  0.4945900000000  0.5110930000000 1.0
C      1  0.5109320000000  0.5305280000000  0.5852450000000 1.0
C      1  0.4225210000000  0.4858070000000  0.4961910000000 1.0
C      1  0.4423970000000  0.5170280000000  0.4926920000000 1.0
C      1  0.5469450000000  0.4458790000000  0.5132870000000 1.0
C      1  0.5552010000000  0.5629750000000  0.5326650000000 1.0
C      1  0.4388610000000  0.5377500000000  0.5127680000000 1.0
C      1  0.5594640000000  0.4620370000000  0.4583180000000 1.0
C      1  0.5604450000000  0.4898900000000  0.4600550000000 1.0
C      1  0.5346240000000  0.5050600000000  0.4560650000000 1.0
C      1  0.4329150000000  0.4607190000000  0.4531520000000 1.0
C      1  0.4526140000000  0.4993540000000  0.5359580000000 1.0
C      1  0.4729360000000  0.5251800000000  0.4565490000000 1.0
C      1  0.4876390000000  0.4890070000000  0.5711560000000 1.0
C      1  0.5113210000000  0.4461160000000  0.4496360000000 1.0
C      1  0.5274070000000  0.4835680000000  0.5457180000000 1.0
C      1  0.4719890000000  0.4769330000000  0.4984360000000 1.0
C      1  0.5214170000000  0.5533760000000  0.4563710000000 1.0
C      1  0.4325230000000  0.4799640000000  0.5234760000000 1.0
C      1  0.5239000000000  0.5045900000000  0.4293470000000 1.0
C      1  0.4264850000000  0.4605030000000  0.4803020000000 1.0
C      1  0.5423270000000  0.5105190000000  0.5530000000000 1.0
C      1  0.4529030000000  0.5289440000000  0.5356370000000 1.0
C      1  0.4453500000000  0.5277140000000  0.4657290000000 1.0
C      1  0.4943060000000  0.5898120000000  0.4751980000000 1.0
C      1  0.5365690000000  0.4476010000000  0.4648810000000 1.0
C      1  0.4417920000000  0.4403690000000  0.4970930000000 1.0
C      1  0.5326690000000  0.4361810000000  0.4918410000000 1.0
C      1  0.5015010000000  0.5205470000000  0.4235300000000 1.0
C      1  0.5080680000000  0.5701090000000  0.5388890000000 1.0
C      1  0.5132160000000  0.4970620000000  0.4794680000000 1.0
C      1  0.5595230000000  0.5403720000000  0.5166400000000 1.0
C      1  0.4638110000000  0.4221890000000  0.4905730000000 1.0
END
