TITL C-950525-1983-626 -1.51887331972672e-06 125000 -788.563404115397 0 0 127 (C1) n - 1
REM
REM in /home/bkarasulu/work/CARBON/AIRSS/Generating-Clusters/EDIP-Nigel-Params/with-SteepDescent/Only-C1/SD-CG/HFTN-CG
REM
REM
REM
REM
REM
REM ./C.cell (11c1c37f851c82e70ff6c80c92926a4b)
REM
REM compiler GCC version 9.2.1 20190827 (Red Hat 9.2.1-1)
REM options -cpp -mtune=generic -march=x86-64 -g -O0 -fpre-include=/usr/include/finclude/math-vector-fortran.h
REM seed 1461099202 586883772 1356145845 1334807860 -179683866 -1374773468 553995499 1767870666 -1650382532 -1846277248 -1138368565 1798710006 -341630830 -2047920346 1220626763 237281042 310560049 -67476609 952429565 -1576342883 601811646 872168978 1805954213 993624386 456455392 -1299766043 2122014838 91295483 -1188633895 661658593 898082395 1613378621 -29590278
REM
CELL 1.54180   50.00000   50.00000   50.00000   90.00000   90.00000   90.00000
LATT -1
SFAC C  
C      1  0.5969090000000  0.4781780000000  0.5178160000000 1.0
C      1  0.4235900000000  0.5266600000000  0.4604170000000 1.0
C      1  0.5591800000000  0.4970300000000  0.5056160000000 1.0
C      1  0.3999090000000  0.4805330000000  0.5167010000000 1.0
C      1  0.4458100000000  0.4710140000000  0.5085230000000 1.0
C      1  0.4525860000000  0.5385820000000  0.4206200000000 1.0
C      1  0.4402290000000  0.4253070000000  0.4615030000000 1.0
C      1  0.5022290000000  0.5072350000000  0.5985350000000 1.0
C      1  0.4109950000000  0.5616130000000  0.4919700000000 1.0
C      1  0.5515690000000  0.4360770000000  0.4329260000000 1.0
C      1  0.5341410000000  0.5656000000000  0.5541340000000 1.0
C      1  0.5101300000000  0.5330210000000  0.4774840000000 1.0
C      1  0.4921830000000  0.4140910000000  0.4540020000000 1.0
C      1  0.4381560000000  0.4933160000000  0.4243780000000 1.0
C      1  0.4773780000000  0.4966590000000  0.5540640000000 1.0
C      1  0.5352380000000  0.4574160000000  0.5798740000000 1.0
C      1  0.5796240000000  0.5468680000000  0.5325910000000 1.0
C      1  0.4536230000000  0.4969080000000  0.4007070000000 1.0
C      1  0.4674190000000  0.4267790000000  0.4979340000000 1.0
C      1  0.4116680000000  0.5176280000000  0.5514470000000 1.0
C      1  0.5365150000000  0.5466460000000  0.4239410000000 1.0
C      1  0.4993530000000  0.4851770000000  0.4209180000000 1.0
C      1  0.5151610000000  0.5864430000000  0.5408810000000 1.0
C      1  0.4700370000000  0.4906240000000  0.5836540000000 1.0
C      1  0.4286660000000  0.4468070000000  0.4478460000000 1.0
C      1  0.4683720000000  0.5228810000000  0.5446310000000 1.0
C      1  0.5028770000000  0.4832340000000  0.5047320000000 1.0
C      1  0.5269710000000  0.4934220000000  0.4659810000000 1.0
C      1  0.5514530000000  0.5847580000000  0.5133130000000 1.0
C      1  0.4953110000000  0.5561910000000  0.4877410000000 1.0
C      1  0.4415790000000  0.5188430000000  0.4387730000000 1.0
C      1  0.5478670000000  0.5051240000000  0.5779540000000 1.0
C      1  0.5289980000000  0.5829040000000  0.4603630000000 1.0
C      1  0.4449830000000  0.4686470000000  0.4396430000000 1.0
C      1  0.5234230000000  0.5923280000000  0.5124130000000 1.0
C      1  0.5869350000000  0.5365960000000  0.4810510000000 1.0
C      1  0.5814910000000  0.5327930000000  0.5565770000000 1.0
C      1  0.5085770000000  0.5350520000000  0.5300420000000 1.0
C      1  0.5861910000000  0.4765560000000  0.4625790000000 1.0
C      1  0.5206540000000  0.5685270000000  0.4359250000000 1.0
C      1  0.4974670000000  0.4356940000000  0.4339540000000 1.0
C      1  0.4216870000000  0.5520900000000  0.5161610000000 1.0
C      1  0.4294610000000  0.5534850000000  0.4726110000000 1.0
C      1  0.5187630000000  0.5131660000000  0.5740400000000 1.0
C      1  0.4843880000000  0.4562090000000  0.4643160000000 1.0
C      1  0.4479650000000  0.4903310000000  0.4853540000000 1.0
C      1  0.4676320000000  0.5116260000000  0.4923630000000 1.0
C      1  0.4203510000000  0.5036210000000  0.4798580000000 1.0
C      1  0.4961480000000  0.5129000000000  0.4171330000000 1.0
C      1  0.4915110000000  0.4453600000000  0.5587770000000 1.0
C      1  0.5226690000000  0.4872070000000  0.5285160000000 1.0
C      1  0.5521020000000  0.4785180000000  0.5861540000000 1.0
C      1  0.5535610000000  0.4187380000000  0.5038440000000 1.0
C      1  0.5072460000000  0.4582170000000  0.4873750000000 1.0
C      1  0.5782760000000  0.4367060000000  0.4992240000000 1.0
C      1  0.5496180000000  0.4693540000000  0.5065580000000 1.0
C      1  0.4120200000000  0.5261230000000  0.5249860000000 1.0
C      1  0.5313620000000  0.4286480000000  0.5252240000000 1.0
C      1  0.4629770000000  0.5425920000000  0.5654580000000 1.0
C      1  0.4828140000000  0.5997360000000  0.4807870000000 1.0
C      1  0.4597780000000  0.5863740000000  0.4947850000000 1.0
C      1  0.5359190000000  0.5366470000000  0.5178130000000 1.0
C      1  0.5765000000000  0.4585720000000  0.5184850000000 1.0
C      1  0.5087770000000  0.5841590000000  0.4855030000000 1.0
C      1  0.5117350000000  0.4310730000000  0.5028680000000 1.0
C      1  0.4880550000000  0.5500170000000  0.5159830000000 1.0
C      1  0.4874870000000  0.5588490000000  0.5668350000000 1.0
C      1  0.4962210000000  0.5059560000000  0.4837520000000 1.0
C      1  0.4603920000000  0.5644570000000  0.4276040000000 1.0
C      1  0.5126720000000  0.5431990000000  0.5587430000000 1.0
C      1  0.5884420000000  0.5298620000000  0.5098450000000 1.0
C      1  0.4647480000000  0.4405050000000  0.5731860000000 1.0
C      1  0.5198470000000  0.5275700000000  0.4095210000000 1.0
C      1  0.5838500000000  0.5153110000000  0.4383750000000 1.0
C      1  0.5959270000000  0.5138170000000  0.4649600000000 1.0
C      1  0.4766410000000  0.6011030000000  0.4535370000000 1.0
C      1  0.5388910000000  0.4299160000000  0.5805020000000 1.0
C      1  0.5464040000000  0.5073000000000  0.4820100000000 1.0
C      1  0.5348940000000  0.4645250000000  0.4766000000000 1.0
C      1  0.5074660000000  0.4913330000000  0.5553370000000 1.0
C      1  0.6009460000000  0.5050440000000  0.5156470000000 1.0
C      1  0.4036010000000  0.5061660000000  0.5050830000000 1.0
C      1  0.4409440000000  0.5589380000000  0.5594330000000 1.0
C      1  0.5568050000000  0.5311430000000  0.4416100000000 1.0
C      1  0.4378650000000  0.4046440000000  0.5098680000000 1.0
C      1  0.4625980000000  0.4774030000000  0.4613150000000 1.0
C      1  0.4766610000000  0.5866050000000  0.4298100000000 1.0
C      1  0.4835840000000  0.4574960000000  0.5345210000000 1.0
C      1  0.5785440000000  0.4485190000000  0.4706100000000 1.0
C      1  0.5084550000000  0.4203810000000  0.5482970000000 1.0
C      1  0.4900270000000  0.4095150000000  0.5054800000000 1.0
C      1  0.5511440000000  0.4400750000000  0.4619150000000 1.0
C      1  0.5628300000000  0.5118110000000  0.5539430000000 1.0
C      1  0.5342650000000  0.5048160000000  0.4372800000000 1.0
C      1  0.5457970000000  0.5100280000000  0.5284110000000 1.0
C      1  0.5794680000000  0.4860310000000  0.4350450000000 1.0
C      1  0.4148270000000  0.4957190000000  0.5664630000000 1.0
C      1  0.4861890000000  0.4022920000000  0.5343880000000 1.0
C      1  0.5019190000000  0.5815280000000  0.4199630000000 1.0
C      1  0.4691330000000  0.4292090000000  0.4684440000000 1.0
C      1  0.4615840000000  0.5351760000000  0.5100460000000 1.0
C      1  0.4263240000000  0.4703580000000  0.5686850000000 1.0
C      1  0.4577180000000  0.5866620000000  0.5243330000000 1.0
C      1  0.5605240000000  0.5471410000000  0.4689780000000 1.0
C      1  0.4695980000000  0.4544720000000  0.5104970000000 1.0
C      1  0.4546650000000  0.4073660000000  0.5352060000000 1.0
C      1  0.4202260000000  0.4612230000000  0.5202390000000 1.0
C      1  0.4948550000000  0.4792310000000  0.5977300000000 1.0
C      1  0.4867360000000  0.5810980000000  0.5470850000000 1.0
C      1  0.5382060000000  0.4584630000000  0.4236900000000 1.0
C      1  0.5656780000000  0.5892870000000  0.4899300000000 1.0
C      1  0.5105920000000  0.4609570000000  0.4297890000000 1.0
C      1  0.5134150000000  0.4050960000000  0.4743720000000 1.0
C      1  0.4516430000000  0.4660210000000  0.5831700000000 1.0
C      1  0.4453970000000  0.4290720000000  0.5537100000000 1.0
C      1  0.4699750000000  0.5202860000000  0.4045080000000 1.0
C      1  0.5375790000000  0.5342060000000  0.4870430000000 1.0
C      1  0.4355350000000  0.5702580000000  0.5345060000000 1.0
C      1  0.5568240000000  0.5764610000000  0.4671320000000 1.0
C      1  0.4576610000000  0.5575710000000  0.4843350000000 1.0
C      1  0.5523470000000  0.5596560000000  0.5299860000000 1.0
C      1  0.4227630000000  0.4490390000000  0.5481810000000 1.0
C      1  0.5515030000000  0.4840210000000  0.4250090000000 1.0
C      1  0.5231890000000  0.4099520000000  0.5710280000000 1.0
C      1  0.5082520000000  0.4664520000000  0.5736100000000 1.0
C      1  0.4286130000000  0.4132600000000  0.4844390000000 1.0
C      1  0.5423460000000  0.4149170000000  0.4760990000000 1.0
END
