TITL C-950533-5798-296 1.13460004867272e-06 125000 -1236.51958875151 0 0 197 (C1) n - 1
REM
REM in /home/bkarasulu/work/CARBON/AIRSS/Generating-Clusters/EDIP-Nigel-Params/with-SteepDescent/Only-C1/SD-CG/HFTN-CG
REM
REM
REM
REM
REM
REM ./C.cell (11c1c37f851c82e70ff6c80c92926a4b)
REM
REM compiler GCC version 9.2.1 20190827 (Red Hat 9.2.1-1)
REM options -cpp -mtune=generic -march=x86-64 -g -O0 -fpre-include=/usr/include/finclude/math-vector-fortran.h
REM seed 349782953 -1989511594 -819903552 1763858791 -973049707 -22453620 1673411851 -1953215936 2042158832 963615369 1066557503 -3499938 1470395213 1349835555 1848752814 221935167 -1585769688 891015128 1542701434 671442918 -1034476524 -1956453958 1662338761 -1801536053 -1456865694 -1874643577 1951590849 -322508410 -1580144985 -1352601379 -807540839 935243421 -1627834064
REM
CELL 1.54180   50.00000   50.00000   50.00000   90.00000   90.00000   90.00000
LATT -1
SFAC C  
C      1  0.5212110000000  0.5884990000000  0.5630800000000 1.0
C      1  0.4559560000000  0.4903410000000  0.5586060000000 1.0
C      1  0.5111980000000  0.5878430000000  0.4503840000000 1.0
C      1  0.5846020000000  0.5383270000000  0.5490710000000 1.0
C      1  0.4956650000000  0.4933880000000  0.4417770000000 1.0
C      1  0.5024470000000  0.4997140000000  0.5406880000000 1.0
C      1  0.4793950000000  0.5339800000000  0.4438020000000 1.0
C      1  0.4924950000000  0.4977450000000  0.6176020000000 1.0
C      1  0.3958220000000  0.5240730000000  0.4847410000000 1.0
C      1  0.4914560000000  0.5816170000000  0.4891240000000 1.0
C      1  0.4258400000000  0.4669620000000  0.5862080000000 1.0
C      1  0.5590200000000  0.4792460000000  0.5894540000000 1.0
C      1  0.6071460000000  0.4781640000000  0.4524190000000 1.0
C      1  0.4110880000000  0.4826100000000  0.4671400000000 1.0
C      1  0.5590530000000  0.5405670000000  0.3989740000000 1.0
C      1  0.5011180000000  0.4015010000000  0.5325010000000 1.0
C      1  0.4484240000000  0.4526370000000  0.5228890000000 1.0
C      1  0.5177000000000  0.5405640000000  0.6074350000000 1.0
C      1  0.5247380000000  0.4673690000000  0.4794420000000 1.0
C      1  0.5988980000000  0.5209600000000  0.4366860000000 1.0
C      1  0.4123290000000  0.5173930000000  0.5250790000000 1.0
C      1  0.4906400000000  0.4138560000000  0.4185470000000 1.0
C      1  0.5624780000000  0.4590590000000  0.4335040000000 1.0
C      1  0.4967520000000  0.6003270000000  0.5740620000000 1.0
C      1  0.4845300000000  0.4671930000000  0.3897900000000 1.0
C      1  0.5741400000000  0.4817720000000  0.4177130000000 1.0
C      1  0.5064500000000  0.5367650000000  0.4027600000000 1.0
C      1  0.5167600000000  0.4526270000000  0.5478080000000 1.0
C      1  0.5730800000000  0.5811300000000  0.5097940000000 1.0
C      1  0.4893120000000  0.4353090000000  0.4978680000000 1.0
C      1  0.5047350000000  0.4348340000000  0.4365540000000 1.0
C      1  0.4024060000000  0.4398380000000  0.5116860000000 1.0
C      1  0.5064250000000  0.5075000000000  0.3957550000000 1.0
C      1  0.4371530000000  0.4343780000000  0.5443930000000 1.0
C      1  0.5817490000000  0.4394590000000  0.4453220000000 1.0
C      1  0.4950990000000  0.5225090000000  0.5613170000000 1.0
C      1  0.4734940000000  0.4648090000000  0.5667110000000 1.0
C      1  0.5986970000000  0.4929270000000  0.4298580000000 1.0
C      1  0.5471730000000  0.5490980000000  0.5819770000000 1.0
C      1  0.5696340000000  0.5877480000000  0.4594810000000 1.0
C      1  0.4967690000000  0.4768970000000  0.4668570000000 1.0
C      1  0.4351710000000  0.4860460000000  0.3964820000000 1.0
C      1  0.4892810000000  0.5810180000000  0.5953480000000 1.0
C      1  0.5739890000000  0.4542980000000  0.5821420000000 1.0
C      1  0.5338770000000  0.5756460000000  0.5854950000000 1.0
C      1  0.4830510000000  0.4880840000000  0.5185000000000 1.0
C      1  0.6040940000000  0.5422110000000  0.4186510000000 1.0
C      1  0.4826270000000  0.4974620000000  0.4885730000000 1.0
C      1  0.5478640000000  0.4959570000000  0.5632130000000 1.0
C      1  0.4378240000000  0.5625520000000  0.5591390000000 1.0
C      1  0.4689280000000  0.4797710000000  0.6129310000000 1.0
C      1  0.5401190000000  0.5078180000000  0.4284760000000 1.0
C      1  0.5395750000000  0.5564660000000  0.4368420000000 1.0
C      1  0.4727470000000  0.4364090000000  0.4739800000000 1.0
C      1  0.4811700000000  0.4960700000000  0.3855190000000 1.0
C      1  0.4246270000000  0.4393030000000  0.4553790000000 1.0
C      1  0.5455150000000  0.4723500000000  0.4574080000000 1.0
C      1  0.5297640000000  0.4409960000000  0.5887520000000 1.0
C      1  0.4830310000000  0.5366520000000  0.4878360000000 1.0
C      1  0.4684440000000  0.5619320000000  0.4926510000000 1.0
C      1  0.4350290000000  0.5902860000000  0.4857660000000 1.0
C      1  0.5022480000000  0.5370700000000  0.4636530000000 1.0
C      1  0.5203070000000  0.5139910000000  0.4723810000000 1.0
C      1  0.5602080000000  0.4913660000000  0.3924800000000 1.0
C      1  0.4378940000000  0.5968920000000  0.5149310000000 1.0
C      1  0.4114160000000  0.4858340000000  0.5328880000000 1.0
C      1  0.4387760000000  0.4097060000000  0.4900270000000 1.0
C      1  0.5440700000000  0.5281840000000  0.5149150000000 1.0
C      1  0.5294620000000  0.4095640000000  0.5258860000000 1.0
C      1  0.4395910000000  0.4847720000000  0.6070200000000 1.0
C      1  0.5345300000000  0.4389360000000  0.5301900000000 1.0
C      1  0.5090850000000  0.4224560000000  0.5932040000000 1.0
C      1  0.4779910000000  0.4556150000000  0.5198140000000 1.0
C      1  0.5353440000000  0.5358000000000  0.4167040000000 1.0
C      1  0.4586060000000  0.5026730000000  0.4033600000000 1.0
C      1  0.5166900000000  0.3925380000000  0.4770790000000 1.0
C      1  0.5488310000000  0.3948700000000  0.5419510000000 1.0
C      1  0.4202220000000  0.4331990000000  0.4861180000000 1.0
C      1  0.5138220000000  0.4612030000000  0.3876530000000 1.0
C      1  0.4847950000000  0.4058530000000  0.5072870000000 1.0
C      1  0.4210650000000  0.4667510000000  0.4442280000000 1.0
C      1  0.5336760000000  0.6087960000000  0.4908830000000 1.0
C      1  0.4232780000000  0.5761870000000  0.5341100000000 1.0
C      1  0.4997710000000  0.4731720000000  0.5826290000000 1.0
C      1  0.5628150000000  0.4887180000000  0.5081830000000 1.0
C      1  0.4794280000000  0.5455510000000  0.4162680000000 1.0
C      1  0.4702200000000  0.4589440000000  0.4163320000000 1.0
C      1  0.5959460000000  0.4782340000000  0.5441590000000 1.0
C      1  0.5216360000000  0.6058030000000  0.5184350000000 1.0
C      1  0.4696420000000  0.5395180000000  0.6194980000000 1.0
C      1  0.5368990000000  0.4658750000000  0.6040810000000 1.0
C      1  0.6013470000000  0.4524630000000  0.4622290000000 1.0
C      1  0.5163730000000  0.4909710000000  0.4206010000000 1.0
C      1  0.4865090000000  0.5483760000000  0.5501580000000 1.0
C      1  0.5659780000000  0.5666570000000  0.4401240000000 1.0
C      1  0.5364030000000  0.4792000000000  0.3807590000000 1.0
C      1  0.5683260000000  0.5595450000000  0.5598930000000 1.0
C      1  0.5330480000000  0.4120930000000  0.4939320000000 1.0
C      1  0.5652080000000  0.4175800000000  0.4559860000000 1.0
C      1  0.5558420000000  0.4313790000000  0.5787410000000 1.0
C      1  0.5331390000000  0.5277190000000  0.5636680000000 1.0
C      1  0.4942690000000  0.5266590000000  0.6174970000000 1.0
C      1  0.5060310000000  0.5544440000000  0.5289800000000 1.0
C      1  0.5976780000000  0.5409110000000  0.5239160000000 1.0
C      1  0.4421400000000  0.4438680000000  0.5759310000000 1.0
C      1  0.5327860000000  0.4846210000000  0.5037790000000 1.0
C      1  0.3867760000000  0.4704120000000  0.4761850000000 1.0
C      1  0.5181650000000  0.4010180000000  0.4504650000000 1.0
C      1  0.4843370000000  0.4147870000000  0.5822080000000 1.0
C      1  0.5845090000000  0.4241340000000  0.4997560000000 1.0
C      1  0.3735820000000  0.5197340000000  0.5285810000000 1.0
C      1  0.5670170000000  0.5175410000000  0.3848860000000 1.0
C      1  0.5101380000000  0.6100710000000  0.4701620000000 1.0
C      1  0.5418890000000  0.4110310000000  0.4398930000000 1.0
C      1  0.4678620000000  0.5152360000000  0.5731630000000 1.0
C      1  0.5004950000000  0.5842670000000  0.5174890000000 1.0
C      1  0.5191720000000  0.4810590000000  0.5569810000000 1.0
C      1  0.6102310000000  0.4992790000000  0.5549120000000 1.0
C      1  0.4723080000000  0.5974190000000  0.5578370000000 1.0
C      1  0.6166280000000  0.5226850000000  0.5142660000000 1.0
C      1  0.5201370000000  0.4559780000000  0.4165740000000 1.0
C      1  0.4878570000000  0.4468200000000  0.5462650000000 1.0
C      1  0.4420280000000  0.5246480000000  0.5280380000000 1.0
C      1  0.4660650000000  0.4940980000000  0.4326430000000 1.0
C      1  0.5348360000000  0.5454830000000  0.5368600000000 1.0
C      1  0.5968650000000  0.5173860000000  0.4669670000000 1.0
C      1  0.5551720000000  0.5872150000000  0.4853930000000 1.0
C      1  0.5589510000000  0.5393870000000  0.4927760000000 1.0
C      1  0.4734620000000  0.5939540000000  0.5288860000000 1.0
C      1  0.5576920000000  0.5771240000000  0.5360070000000 1.0
C      1  0.5625680000000  0.4456660000000  0.5315540000000 1.0
C      1  0.5622710000000  0.4143260000000  0.4845460000000 1.0
C      1  0.4534620000000  0.5322000000000  0.4034770000000 1.0
C      1  0.5748780000000  0.4606680000000  0.5096180000000 1.0
C      1  0.4994980000000  0.5907490000000  0.4249840000000 1.0
C      1  0.4017470000000  0.5597670000000  0.5209140000000 1.0
C      1  0.4160750000000  0.5119570000000  0.4310700000000 1.0
C      1  0.4639750000000  0.4323750000000  0.5946350000000 1.0
C      1  0.4643230000000  0.4292950000000  0.4194110000000 1.0
C      1  0.4771240000000  0.5743200000000  0.4252500000000 1.0
C      1  0.4231630000000  0.5590410000000  0.4308380000000 1.0
C      1  0.6028530000000  0.4433910000000  0.4893490000000 1.0
C      1  0.5679490000000  0.5131530000000  0.4780740000000 1.0
C      1  0.6188020000000  0.5287180000000  0.4866930000000 1.0
C      1  0.4311340000000  0.5138220000000  0.6023180000000 1.0
C      1  0.3897420000000  0.4665060000000  0.5208260000000 1.0
C      1  0.4549300000000  0.5045340000000  0.4794250000000 1.0
C      1  0.4054130000000  0.5109400000000  0.4591790000000 1.0
C      1  0.4191010000000  0.5148930000000  0.5750760000000 1.0
C      1  0.4992920000000  0.5316550000000  0.5108870000000 1.0
C      1  0.4361980000000  0.4785210000000  0.5165670000000 1.0
C      1  0.4345190000000  0.4850010000000  0.4870680000000 1.0
C      1  0.4540090000000  0.4107970000000  0.5423030000000 1.0
C      1  0.4803350000000  0.6105820000000  0.4821310000000 1.0
C      1  0.3749060000000  0.4799480000000  0.4992500000000 1.0
C      1  0.4786950000000  0.4531730000000  0.6083240000000 1.0
C      1  0.5448830000000  0.5029940000000  0.4580890000000 1.0
C      1  0.4372180000000  0.5327780000000  0.5566010000000 1.0
C      1  0.4561740000000  0.4027660000000  0.5141200000000 1.0
C      1  0.5791460000000  0.5549960000000  0.4160850000000 1.0
C      1  0.4838470000000  0.4520830000000  0.4521440000000 1.0
C      1  0.5947770000000  0.5189380000000  0.5655650000000 1.0
C      1  0.4249730000000  0.4875950000000  0.5641520000000 1.0
C      1  0.4822880000000  0.4168960000000  0.5519090000000 1.0
C      1  0.4453680000000  0.4208800000000  0.4427140000000 1.0
C      1  0.4628340000000  0.5743870000000  0.4507100000000 1.0
C      1  0.5219190000000  0.5611810000000  0.4590540000000 1.0
C      1  0.3868630000000  0.5425870000000  0.5383220000000 1.0
C      1  0.4267260000000  0.5630330000000  0.4785140000000 1.0
C      1  0.4549880000000  0.5301720000000  0.5971790000000 1.0
C      1  0.5628540000000  0.4153810000000  0.5549020000000 1.0
C      1  0.4264370000000  0.5354400000000  0.4162980000000 1.0
C      1  0.4409300000000  0.5537520000000  0.4534130000000 1.0
C      1  0.5404940000000  0.5619630000000  0.4824080000000 1.0
C      1  0.5841180000000  0.5544510000000  0.5019770000000 1.0
C      1  0.5139790000000  0.5686220000000  0.6044920000000 1.0
C      1  0.4569950000000  0.5988780000000  0.4671440000000 1.0
C      1  0.4680210000000  0.5683030000000  0.5658680000000 1.0
C      1  0.3762910000000  0.5095820000000  0.5017760000000 1.0
C      1  0.5926660000000  0.4572540000000  0.5617200000000 1.0
C      1  0.4070220000000  0.5490940000000  0.4943150000000 1.0
C      1  0.6037920000000  0.5528740000000  0.4798520000000 1.0
C      1  0.4601820000000  0.4099950000000  0.4682210000000 1.0
C      1  0.5381140000000  0.5985720000000  0.5418160000000 1.0
C      1  0.5220620000000  0.5128350000000  0.5027430000000 1.0
C      1  0.4535280000000  0.5184960000000  0.4524120000000 1.0
C      1  0.4103740000000  0.4274030000000  0.5359870000000 1.0
C      1  0.5402650000000  0.4164340000000  0.4115480000000 1.0
C      1  0.5179170000000  0.4849490000000  0.6150640000000 1.0
C      1  0.5717510000000  0.4972550000000  0.5398030000000 1.0
C      1  0.4216910000000  0.4855400000000  0.4212580000000 1.0
C      1  0.4583130000000  0.5651710000000  0.5216470000000 1.0
C      1  0.5182210000000  0.4388810000000  0.4891850000000 1.0
C      1  0.5136860000000  0.4110640000000  0.4008360000000 1.0
C      1  0.4560470000000  0.4975420000000  0.5290290000000 1.0
C      1  0.5469840000000  0.4454210000000  0.4122280000000 1.0
C      1  0.4889790000000  0.3893800000000  0.4834540000000 1.0
END
