TITL C-951334-9093-133 8.6061762913717e-07 125000 -423.67221814955 0 0 70 (C1) n - 1
REM
REM in /home/bkarasulu/work/CARBON/AIRSS/Generating-Clusters/EDIP-Nigel-Params/with-SteepDescent/Only-C1/SD-CG/HFTN-CG
REM
REM
REM
REM
REM
REM ./C.cell (11c1c37f851c82e70ff6c80c92926a4b)
REM
REM compiler GCC version 9.2.1 20190827 (Red Hat 9.2.1-1)
REM options -cpp -mtune=generic -march=x86-64 -g -O0 -fpre-include=/usr/include/finclude/math-vector-fortran.h
REM seed 343011958 1480958207 -2146363684 1764947305 932032603 645189668 -400605226 344131298 -1154132733 -122024373 -1027498925 650453855 -1425193735 -544835788 539835935 -1012318785 1409139997 747380145 83101507 -1635470278 1766270493 -286773361 564794826 1111118058 1863686986 -809541567 -1554805533 393486256 -1720457520 -2142587726 1989157017 -1193901897 1523730454
REM
CELL 1.54180   50.00000   50.00000   50.00000   90.00000   90.00000   90.00000
LATT -1
SFAC C  
C      1  0.5365430000000  0.5406440000000  0.5441480000000 1.0
C      1  0.5235540000000  0.4451050000000  0.5416780000000 1.0
C      1  0.4841810000000  0.5289690000000  0.4393550000000 1.0
C      1  0.4461330000000  0.5253820000000  0.5524110000000 1.0
C      1  0.5360970000000  0.5204360000000  0.4440060000000 1.0
C      1  0.5502020000000  0.4617700000000  0.4542740000000 1.0
C      1  0.5793620000000  0.4698910000000  0.5004740000000 1.0
C      1  0.4899160000000  0.4611290000000  0.4516640000000 1.0
C      1  0.4817430000000  0.5233930000000  0.5385460000000 1.0
C      1  0.5252580000000  0.4619750000000  0.5160200000000 1.0
C      1  0.5096470000000  0.5156200000000  0.4322710000000 1.0
C      1  0.5007380000000  0.4358820000000  0.4905150000000 1.0
C      1  0.4755780000000  0.4346030000000  0.5064590000000 1.0
C      1  0.4953540000000  0.4466010000000  0.5513170000000 1.0
C      1  0.4899710000000  0.4838620000000  0.5000400000000 1.0
C      1  0.5208410000000  0.5695970000000  0.4621140000000 1.0
C      1  0.5014170000000  0.4955120000000  0.5280320000000 1.0
C      1  0.4490170000000  0.5542420000000  0.4654290000000 1.0
C      1  0.4855530000000  0.5829850000000  0.4915700000000 1.0
C      1  0.4229520000000  0.4838090000000  0.4796830000000 1.0
C      1  0.5765160000000  0.5089910000000  0.5470260000000 1.0
C      1  0.4625740000000  0.4697260000000  0.4493360000000 1.0
C      1  0.4695430000000  0.5060320000000  0.4906120000000 1.0
C      1  0.4578370000000  0.4859870000000  0.4267740000000 1.0
C      1  0.4973860000000  0.4779540000000  0.5565570000000 1.0
C      1  0.5423190000000  0.5578770000000  0.4751740000000 1.0
C      1  0.4785640000000  0.4962420000000  0.5735280000000 1.0
C      1  0.4265430000000  0.5464820000000  0.4821530000000 1.0
C      1  0.5631070000000  0.5305070000000  0.5341460000000 1.0
C      1  0.4764080000000  0.5714540000000  0.5145550000000 1.0
C      1  0.4516950000000  0.4505610000000  0.4976830000000 1.0
C      1  0.5210300000000  0.5205230000000  0.5588720000000 1.0
C      1  0.4166340000000  0.4798940000000  0.5074360000000 1.0
C      1  0.4938140000000  0.5723050000000  0.4670750000000 1.0
C      1  0.4918200000000  0.5471300000000  0.5196980000000 1.0
C      1  0.4784150000000  0.4324890000000  0.5342180000000 1.0
C      1  0.5068490000000  0.4914520000000  0.4183030000000 1.0
C      1  0.4504440000000  0.5154760000000  0.4650970000000 1.0
C      1  0.4213070000000  0.5106920000000  0.4695460000000 1.0
C      1  0.5360490000000  0.5408440000000  0.5001870000000 1.0
C      1  0.4598460000000  0.5122310000000  0.4368920000000 1.0
C      1  0.5706100000000  0.5187940000000  0.4854390000000 1.0
C      1  0.4466420000000  0.5031410000000  0.5115740000000 1.0
C      1  0.5195320000000  0.4980130000000  0.4709720000000 1.0
C      1  0.5078000000000  0.4652340000000  0.4284550000000 1.0
C      1  0.5493100000000  0.4423390000000  0.4938510000000 1.0
C      1  0.5215100000000  0.5547920000000  0.5229730000000 1.0
C      1  0.5335400000000  0.4559620000000  0.4339770000000 1.0
C      1  0.5259510000000  0.4262250000000  0.5015770000000 1.0
C      1  0.4474760000000  0.4690160000000  0.4745060000000 1.0
C      1  0.5030780000000  0.4640160000000  0.4789380000000 1.0
C      1  0.5551890000000  0.4892780000000  0.5478750000000 1.0
C      1  0.5595460000000  0.4906810000000  0.4953400000000 1.0
C      1  0.4399790000000  0.5279820000000  0.5248450000000 1.0
C      1  0.5172860000000  0.5176920000000  0.4933760000000 1.0
C      1  0.5371250000000  0.4996790000000  0.5702900000000 1.0
C      1  0.4291610000000  0.5486170000000  0.5097740000000 1.0
C      1  0.4362940000000  0.4620320000000  0.5210220000000 1.0
C      1  0.5224260000000  0.4754250000000  0.5739430000000 1.0
C      1  0.5430180000000  0.4809080000000  0.4734180000000 1.0
C      1  0.4903240000000  0.5282010000000  0.4956370000000 1.0
C      1  0.5390240000000  0.4906760000000  0.5207380000000 1.0
C      1  0.4555690000000  0.4830620000000  0.5333000000000 1.0
C      1  0.4524280000000  0.4973980000000  0.5592210000000 1.0
C      1  0.4773130000000  0.5501200000000  0.4593650000000 1.0
C      1  0.5406890000000  0.4561930000000  0.5620870000000 1.0
C      1  0.5730100000000  0.5373200000000  0.5080060000000 1.0
C      1  0.5558730000000  0.5344810000000  0.4614320000000 1.0
C      1  0.4927850000000  0.5230610000000  0.5671590000000 1.0
C      1  0.5747540000000  0.4434060000000  0.5060380000000 1.0
END
