TITL C-951339-9237-39 8.78025949722914e-07 125000 -646.911398452101 0 0 104 (C1) n - 1
REM
REM in /home/bkarasulu/work/CARBON/AIRSS/Generating-Clusters/EDIP-Nigel-Params/with-SteepDescent/Only-C1/SD-CG/HFTN-CG
REM
REM
REM
REM
REM
REM ./C.cell (11c1c37f851c82e70ff6c80c92926a4b)
REM
REM compiler GCC version 9.2.1 20190827 (Red Hat 9.2.1-1)
REM options -cpp -mtune=generic -march=x86-64 -g -O0 -fpre-include=/usr/include/finclude/math-vector-fortran.h
REM seed 1282122347 -2120733536 -1066570910 1805180984 440137014 -2143211611 260841641 -903041894 1150989987 -179769730 1427046797 -1424850081 -44715953 -1083310992 471605366 403504230 1112658141 -75711746 -1734802398 429234790 -848838489 -194834509 -1899320854 -1482197204 -419312770 -259966148 1641011267 -658270156 -38858926 -831806445 196745719 -773679552 -769702227
REM
CELL 1.54180   50.00000   50.00000   50.00000   90.00000   90.00000   90.00000
LATT -1
SFAC C  
C      1  0.4643870000000  0.4845070000000  0.4705370000000 1.0
C      1  0.5779220000000  0.4629750000000  0.4695170000000 1.0
C      1  0.4508110000000  0.5111860000000  0.5251150000000 1.0
C      1  0.5253040000000  0.5283980000000  0.5303610000000 1.0
C      1  0.4540060000000  0.5528320000000  0.5033640000000 1.0
C      1  0.4137770000000  0.4442560000000  0.4724830000000 1.0
C      1  0.5847590000000  0.5412560000000  0.5019810000000 1.0
C      1  0.4934270000000  0.4815410000000  0.5411370000000 1.0
C      1  0.5248660000000  0.4901780000000  0.5776380000000 1.0
C      1  0.5656310000000  0.4386700000000  0.4646560000000 1.0
C      1  0.4568870000000  0.5624910000000  0.4575150000000 1.0
C      1  0.4079550000000  0.4677340000000  0.4843520000000 1.0
C      1  0.4665900000000  0.5072460000000  0.4224180000000 1.0
C      1  0.4594210000000  0.4356480000000  0.4546710000000 1.0
C      1  0.5708810000000  0.5133450000000  0.5400080000000 1.0
C      1  0.5242240000000  0.4471970000000  0.5659120000000 1.0
C      1  0.5271790000000  0.5891380000000  0.5232260000000 1.0
C      1  0.5173460000000  0.5440300000000  0.4192830000000 1.0
C      1  0.5428550000000  0.4252020000000  0.4729180000000 1.0
C      1  0.5373110000000  0.5255630000000  0.4273260000000 1.0
C      1  0.5011440000000  0.5112540000000  0.4920910000000 1.0
C      1  0.5449620000000  0.5091540000000  0.5248550000000 1.0
C      1  0.5575300000000  0.5407890000000  0.4636290000000 1.0
C      1  0.5084840000000  0.4156560000000  0.5351680000000 1.0
C      1  0.5662900000000  0.5120150000000  0.5684930000000 1.0
C      1  0.4501690000000  0.5237850000000  0.4970300000000 1.0
C      1  0.4880200000000  0.4755150000000  0.4539450000000 1.0
C      1  0.5492790000000  0.5071570000000  0.4965540000000 1.0
C      1  0.5077440000000  0.4826330000000  0.4960210000000 1.0
C      1  0.5976160000000  0.4927520000000  0.5036140000000 1.0
C      1  0.4821730000000  0.5768730000000  0.5279690000000 1.0
C      1  0.5250340000000  0.5103990000000  0.4496830000000 1.0
C      1  0.4071980000000  0.5321580000000  0.5100070000000 1.0
C      1  0.4407000000000  0.4784790000000  0.4502220000000 1.0
C      1  0.4798840000000  0.4508720000000  0.4377000000000 1.0
C      1  0.4166510000000  0.4881210000000  0.5009890000000 1.0
C      1  0.4577880000000  0.4252390000000  0.5546730000000 1.0
C      1  0.5479130000000  0.5702250000000  0.5109920000000 1.0
C      1  0.4622920000000  0.4698160000000  0.4995700000000 1.0
C      1  0.5155900000000  0.4373680000000  0.4666170000000 1.0
C      1  0.4984900000000  0.5265060000000  0.5179280000000 1.0
C      1  0.5018440000000  0.5885510000000  0.4821440000000 1.0
C      1  0.5642300000000  0.5579770000000  0.4878510000000 1.0
C      1  0.4438690000000  0.5376770000000  0.4228170000000 1.0
C      1  0.5013720000000  0.5944220000000  0.5100180000000 1.0
C      1  0.4508570000000  0.4824640000000  0.4225240000000 1.0
C      1  0.4850700000000  0.5532170000000  0.5071140000000 1.0
C      1  0.5264730000000  0.4643600000000  0.4252000000000 1.0
C      1  0.4415630000000  0.4836960000000  0.5171180000000 1.0
C      1  0.4788310000000  0.4393260000000  0.5673620000000 1.0
C      1  0.4787540000000  0.4707580000000  0.5668200000000 1.0
C      1  0.4298320000000  0.5485280000000  0.5491380000000 1.0
C      1  0.5753180000000  0.5151580000000  0.4616700000000 1.0
C      1  0.4813130000000  0.5459330000000  0.4603930000000 1.0
C      1  0.5352720000000  0.4819470000000  0.4501920000000 1.0
C      1  0.4230250000000  0.5256120000000  0.5332720000000 1.0
C      1  0.4952440000000  0.4273340000000  0.4867630000000 1.0
C      1  0.4823680000000  0.5178420000000  0.5809740000000 1.0
C      1  0.4348580000000  0.5505230000000  0.4463010000000 1.0
C      1  0.4669310000000  0.4298180000000  0.4823130000000 1.0
C      1  0.4330570000000  0.4495510000000  0.4524850000000 1.0
C      1  0.5023380000000  0.4389150000000  0.5130370000000 1.0
C      1  0.5051390000000  0.4275160000000  0.5622080000000 1.0
C      1  0.5894090000000  0.4905440000000  0.5319030000000 1.0
C      1  0.5089680000000  0.4404710000000  0.4352110000000 1.0
C      1  0.4393150000000  0.5366070000000  0.5728160000000 1.0
C      1  0.5396590000000  0.5154720000000  0.5761590000000 1.0
C      1  0.5213090000000  0.5821510000000  0.5521790000000 1.0
C      1  0.5620750000000  0.5642750000000  0.5364220000000 1.0
C      1  0.5911300000000  0.4660740000000  0.4948790000000 1.0
C      1  0.5277420000000  0.5215280000000  0.4786030000000 1.0
C      1  0.5421200000000  0.5622060000000  0.5595340000000 1.0
C      1  0.5333230000000  0.4431070000000  0.5115340000000 1.0
C      1  0.5452410000000  0.4088350000000  0.4970070000000 1.0
C      1  0.4459420000000  0.5639620000000  0.5303700000000 1.0
C      1  0.5256790000000  0.4723050000000  0.5525970000000 1.0
C      1  0.4962720000000  0.5388390000000  0.5620500000000 1.0
C      1  0.5142750000000  0.4690470000000  0.4702190000000 1.0
C      1  0.4488820000000  0.4338760000000  0.5052680000000 1.0
C      1  0.5450500000000  0.4652120000000  0.5288590000000 1.0
C      1  0.5652040000000  0.4859340000000  0.4560270000000 1.0
C      1  0.5116770000000  0.4871890000000  0.4121620000000 1.0
C      1  0.4813000000000  0.5116000000000  0.5377340000000 1.0
C      1  0.5286480000000  0.5098830000000  0.4042980000000 1.0
C      1  0.4730020000000  0.5152810000000  0.4765810000000 1.0
C      1  0.4431340000000  0.5678930000000  0.4806860000000 1.0
C      1  0.5790160000000  0.5134650000000  0.4917830000000 1.0
C      1  0.4900790000000  0.4677580000000  0.5137090000000 1.0
C      1  0.4385840000000  0.4679290000000  0.5416620000000 1.0
C      1  0.4503950000000  0.4420600000000  0.5335870000000 1.0
C      1  0.4939740000000  0.4984460000000  0.4344550000000 1.0
C      1  0.4665380000000  0.4603740000000  0.4136100000000 1.0
C      1  0.4913350000000  0.5426720000000  0.4314230000000 1.0
C      1  0.5742700000000  0.4654040000000  0.5293130000000 1.0
C      1  0.4695640000000  0.5447480000000  0.4129500000000 1.0
C      1  0.5811760000000  0.5413680000000  0.5317160000000 1.0
C      1  0.5377160000000  0.4142430000000  0.5250940000000 1.0
C      1  0.4978870000000  0.5608870000000  0.4812070000000 1.0
C      1  0.4940720000000  0.5693770000000  0.5545920000000 1.0
C      1  0.4200940000000  0.5157500000000  0.4905150000000 1.0
C      1  0.4956410000000  0.4911050000000  0.5848400000000 1.0
C      1  0.4512100000000  0.4822920000000  0.5653680000000 1.0
C      1  0.5264680000000  0.5358900000000  0.5586340000000 1.0
C      1  0.4545750000000  0.5126550000000  0.5725580000000 1.0
END
