TITL C-950533-5798-145 -9.14727578072488e-07 125000 -381.031933061525 0 0 63 (C1) n - 1
REM
REM in /home/bkarasulu/work/CARBON/AIRSS/Generating-Clusters/EDIP-Nigel-Params/with-SteepDescent/Only-C1/SD-CG/HFTN-CG
REM
REM
REM
REM
REM
REM ./C.cell (11c1c37f851c82e70ff6c80c92926a4b)
REM
REM compiler GCC version 9.2.1 20190827 (Red Hat 9.2.1-1)
REM options -cpp -mtune=generic -march=x86-64 -g -O0 -fpre-include=/usr/include/finclude/math-vector-fortran.h
REM seed 1588570706 2000477439 1509998558 1543760430 -1551669751 960665992 -489566143 -22106028 -304968131 -1494397028 421456710 -845595210 1546461340 1313852541 -1293660156 -571133315 -1516515479 1556418132 356247133 757664126 684791220 -214121145 -1548026145 -948034992 1604422319 714393196 403310133 -1902239351 1923678876 191514763 778848344 1964122716 2129562533
REM
CELL 1.54180   50.00000   50.00000   50.00000   90.00000   90.00000   90.00000
LATT -1
SFAC C  
C      1  0.4613350000000  0.5138860000000  0.5291400000000 1.0
C      1  0.4352620000000  0.5024840000000  0.5355360000000 1.0
C      1  0.5189630000000  0.5071100000000  0.5766260000000 1.0
C      1  0.5310630000000  0.4734530000000  0.5486480000000 1.0
C      1  0.5414930000000  0.4995720000000  0.5580710000000 1.0
C      1  0.5599870000000  0.5423630000000  0.4757670000000 1.0
C      1  0.4741090000000  0.5582810000000  0.5470660000000 1.0
C      1  0.5352650000000  0.4966020000000  0.4180980000000 1.0
C      1  0.4587410000000  0.4404310000000  0.5052070000000 1.0
C      1  0.5162600000000  0.5676630000000  0.5243270000000 1.0
C      1  0.4376950000000  0.4739640000000  0.5332480000000 1.0
C      1  0.5019920000000  0.4332730000000  0.5457030000000 1.0
C      1  0.4621960000000  0.4814650000000  0.4726060000000 1.0
C      1  0.4741420000000  0.5308210000000  0.5511550000000 1.0
C      1  0.4649980000000  0.5487340000000  0.4569780000000 1.0
C      1  0.5117770000000  0.4825510000000  0.5899490000000 1.0
C      1  0.5233280000000  0.4771840000000  0.5188750000000 1.0
C      1  0.5066530000000  0.4657390000000  0.5662030000000 1.0
C      1  0.5107940000000  0.4512690000000  0.5122350000000 1.0
C      1  0.5412160000000  0.4444530000000  0.4754740000000 1.0
C      1  0.5139860000000  0.5464900000000  0.4315580000000 1.0
C      1  0.5575100000000  0.4920460000000  0.4625470000000 1.0
C      1  0.5029270000000  0.5015740000000  0.4860680000000 1.0
C      1  0.5034810000000  0.4968470000000  0.5149520000000 1.0
C      1  0.5572060000000  0.4649140000000  0.4673140000000 1.0
C      1  0.5400170000000  0.5546380000000  0.5185450000000 1.0
C      1  0.4984310000000  0.5515110000000  0.4749800000000 1.0
C      1  0.4618290000000  0.5269440000000  0.4999250000000 1.0
C      1  0.4367880000000  0.4606020000000  0.5067490000000 1.0
C      1  0.4782460000000  0.5527830000000  0.4989950000000 1.0
C      1  0.4786560000000  0.4899530000000  0.5284160000000 1.0
C      1  0.4969520000000  0.5205420000000  0.5645160000000 1.0
C      1  0.5146360000000  0.4486240000000  0.4833640000000 1.0
C      1  0.5182400000000  0.5650730000000  0.4538980000000 1.0
C      1  0.5457120000000  0.5535540000000  0.4528550000000 1.0
C      1  0.5608510000000  0.4989720000000  0.5124220000000 1.0
C      1  0.5545360000000  0.5430170000000  0.5391670000000 1.0
C      1  0.5156070000000  0.5277580000000  0.4821970000000 1.0
C      1  0.4633600000000  0.4283690000000  0.4802410000000 1.0
C      1  0.5169450000000  0.4760340000000  0.4688890000000 1.0
C      1  0.5521310000000  0.4501210000000  0.5377960000000 1.0
C      1  0.4671500000000  0.4380840000000  0.4551480000000 1.0
C      1  0.5084140000000  0.4965290000000  0.4263630000000 1.0
C      1  0.5287830000000  0.4320490000000  0.5292310000000 1.0
C      1  0.4606630000000  0.4601550000000  0.5479070000000 1.0
C      1  0.5015910000000  0.4721150000000  0.4428460000000 1.0
C      1  0.4741660000000  0.4389490000000  0.5312630000000 1.0
C      1  0.4371740000000  0.5474920000000  0.4658010000000 1.0
C      1  0.4232060000000  0.5049520000000  0.4884400000000 1.0
C      1  0.5679830000000  0.5101280000000  0.4838220000000 1.0
C      1  0.5551970000000  0.4996800000000  0.4360080000000 1.0
C      1  0.4347680000000  0.4793790000000  0.4833750000000 1.0
C      1  0.4228870000000  0.5698480000000  0.4641500000000 1.0
C      1  0.4818220000000  0.4795150000000  0.5571370000000 1.0
C      1  0.4889560000000  0.5627640000000  0.5238710000000 1.0
C      1  0.4725580000000  0.4653200000000  0.4500820000000 1.0
C      1  0.5021660000000  0.5214850000000  0.4402870000000 1.0
C      1  0.4744350000000  0.5076330000000  0.4775190000000 1.0
C      1  0.5511880000000  0.5153040000000  0.5354920000000 1.0
C      1  0.5612660000000  0.4695270000000  0.5159400000000 1.0
C      1  0.4757460000000  0.5227220000000  0.4520480000000 1.0
C      1  0.4340580000000  0.5309880000000  0.4900470000000 1.0
C      1  0.5405080000000  0.5337160000000  0.4969170000000 1.0
END
