TITL C-950527-2551-418 -9.06138863192903e-07 125000 -1046.35864341614 0 0 168 (C1) n - 1
REM
REM in /home/bkarasulu/work/CARBON/AIRSS/Generating-Clusters/EDIP-Nigel-Params/with-SteepDescent/Only-C1/SD-CG/HFTN-CG
REM
REM
REM
REM
REM
REM ./C.cell (11c1c37f851c82e70ff6c80c92926a4b)
REM
REM compiler GCC version 9.2.1 20190827 (Red Hat 9.2.1-1)
REM options -cpp -mtune=generic -march=x86-64 -g -O0 -fpre-include=/usr/include/finclude/math-vector-fortran.h
REM seed -1794905525 -344570369 -948244354 1035651991 1545389213 -759219731 -1745637350 -769563996 58208553 -399891190 -230309205 947413666 158532811 1924173120 -1516586817 1197380544 -1809092617 -2088176341 -1752082707 -2017516200 -1759814082 -1154310400 -1991467121 1629236795 95560882 -1182992209 402177517 -1615768934 -163489425 -704443237 2069117201 989392018 -1659806339
REM
CELL 1.54180   50.00000   50.00000   50.00000   90.00000   90.00000   90.00000
LATT -1
SFAC C  
C      1  0.3970990000000  0.4545940000000  0.4644480000000 1.0
C      1  0.4671840000000  0.5957950000000  0.4881420000000 1.0
C      1  0.4246180000000  0.4404340000000  0.5373140000000 1.0
C      1  0.4194440000000  0.5310540000000  0.5473900000000 1.0
C      1  0.4033810000000  0.5530970000000  0.4940110000000 1.0
C      1  0.5628200000000  0.5749270000000  0.4622350000000 1.0
C      1  0.5730050000000  0.4429550000000  0.5729960000000 1.0
C      1  0.5332580000000  0.4906520000000  0.4805140000000 1.0
C      1  0.4171740000000  0.5632000000000  0.5416580000000 1.0
C      1  0.5906760000000  0.5161180000000  0.4869770000000 1.0
C      1  0.5270970000000  0.3973310000000  0.4732790000000 1.0
C      1  0.4496380000000  0.4600480000000  0.5078310000000 1.0
C      1  0.5404600000000  0.5180830000000  0.4437920000000 1.0
C      1  0.4751810000000  0.4733480000000  0.4087530000000 1.0
C      1  0.4331200000000  0.4233530000000  0.4895000000000 1.0
C      1  0.4934920000000  0.5541610000000  0.5163870000000 1.0
C      1  0.4761500000000  0.5647000000000  0.4399070000000 1.0
C      1  0.4619420000000  0.4494110000000  0.4503160000000 1.0
C      1  0.4505610000000  0.5513520000000  0.4477360000000 1.0
C      1  0.4117220000000  0.5743650000000  0.5127860000000 1.0
C      1  0.5990150000000  0.4638310000000  0.5358400000000 1.0
C      1  0.5067670000000  0.5154440000000  0.5834790000000 1.0
C      1  0.5675770000000  0.5804050000000  0.5161930000000 1.0
C      1  0.5081210000000  0.5538010000000  0.4113080000000 1.0
C      1  0.3818900000000  0.4906700000000  0.4974130000000 1.0
C      1  0.4160830000000  0.5278650000000  0.5026500000000 1.0
C      1  0.5925470000000  0.5089150000000  0.5517370000000 1.0
C      1  0.5508860000000  0.4711530000000  0.4100860000000 1.0
C      1  0.4865430000000  0.5694560000000  0.4881130000000 1.0
C      1  0.4533320000000  0.4834270000000  0.5920160000000 1.0
C      1  0.5557400000000  0.4554850000000  0.5941080000000 1.0
C      1  0.5463360000000  0.4917740000000  0.5591790000000 1.0
C      1  0.4592510000000  0.4087520000000  0.5301670000000 1.0
C      1  0.5875380000000  0.4477830000000  0.5131630000000 1.0
C      1  0.4625230000000  0.5561410000000  0.5657070000000 1.0
C      1  0.5653500000000  0.5700490000000  0.4335920000000 1.0
C      1  0.5541870000000  0.5948530000000  0.4940630000000 1.0
C      1  0.5263370000000  0.4334950000000  0.4879940000000 1.0
C      1  0.4873330000000  0.4099390000000  0.4384440000000 1.0
C      1  0.4424180000000  0.5758870000000  0.5522100000000 1.0
C      1  0.4981200000000  0.3986990000000  0.4643040000000 1.0
C      1  0.4123760000000  0.5241350000000  0.4580710000000 1.0
C      1  0.4323440000000  0.5157950000000  0.4790830000000 1.0
C      1  0.5681220000000  0.4938180000000  0.4192980000000 1.0
C      1  0.5169220000000  0.5051130000000  0.3971060000000 1.0
C      1  0.4725300000000  0.4990320000000  0.6075690000000 1.0
C      1  0.5001980000000  0.4611820000000  0.5910480000000 1.0
C      1  0.6030970000000  0.4932090000000  0.4997330000000 1.0
C      1  0.3912940000000  0.5134380000000  0.5102240000000 1.0
C      1  0.5210750000000  0.4775020000000  0.4085690000000 1.0
C      1  0.5326270000000  0.5182840000000  0.4727910000000 1.0
C      1  0.4922990000000  0.5545560000000  0.4624620000000 1.0
C      1  0.4141900000000  0.4631750000000  0.5231130000000 1.0
C      1  0.5721220000000  0.4155240000000  0.4639440000000 1.0
C      1  0.5871520000000  0.5155530000000  0.4583210000000 1.0
C      1  0.3975670000000  0.5105350000000  0.5382190000000 1.0
C      1  0.5219850000000  0.4702240000000  0.5244890000000 1.0
C      1  0.4989700000000  0.4546750000000  0.4057000000000 1.0
C      1  0.5581000000000  0.4226430000000  0.5564150000000 1.0
C      1  0.4443390000000  0.5260030000000  0.5292320000000 1.0
C      1  0.5629810000000  0.4850710000000  0.5934270000000 1.0
C      1  0.5133670000000  0.5333010000000  0.5093990000000 1.0
C      1  0.4588490000000  0.4191800000000  0.4459380000000 1.0
C      1  0.5494750000000  0.5614190000000  0.5295650000000 1.0
C      1  0.5044310000000  0.4345390000000  0.4302240000000 1.0
C      1  0.5396770000000  0.4478600000000  0.5116970000000 1.0
C      1  0.4956250000000  0.5061740000000  0.3791020000000 1.0
C      1  0.5406800000000  0.5399840000000  0.4916750000000 1.0
C      1  0.5237980000000  0.4720680000000  0.5528740000000 1.0
C      1  0.4770840000000  0.4870800000000  0.5546800000000 1.0
C      1  0.4536100000000  0.4656880000000  0.4263590000000 1.0
C      1  0.4953600000000  0.4765210000000  0.5118840000000 1.0
C      1  0.4784640000000  0.4446680000000  0.6008820000000 1.0
C      1  0.4295140000000  0.4950950000000  0.5821630000000 1.0
C      1  0.5900770000000  0.5620740000000  0.5095040000000 1.0
C      1  0.4955860000000  0.4650210000000  0.5612740000000 1.0
C      1  0.4340630000000  0.4855720000000  0.4389060000000 1.0
C      1  0.5824730000000  0.4660320000000  0.5587140000000 1.0
C      1  0.5083430000000  0.5978840000000  0.4733440000000 1.0
C      1  0.4151430000000  0.4764470000000  0.5674870000000 1.0
C      1  0.5150740000000  0.5239070000000  0.4210140000000 1.0
C      1  0.5597330000000  0.4245870000000  0.5253070000000 1.0
C      1  0.5037070000000  0.4806500000000  0.4836920000000 1.0
C      1  0.4544640000000  0.4545610000000  0.5902670000000 1.0
C      1  0.5203570000000  0.5559660000000  0.4537440000000 1.0
C      1  0.4302280000000  0.5717030000000  0.4575900000000 1.0
C      1  0.5407680000000  0.5724620000000  0.5538100000000 1.0
C      1  0.4102680000000  0.4335270000000  0.4769580000000 1.0
C      1  0.4113360000000  0.4692350000000  0.4456250000000 1.0
C      1  0.5455600000000  0.5069970000000  0.5317610000000 1.0
C      1  0.5013750000000  0.5872020000000  0.5714030000000 1.0
C      1  0.5095630000000  0.4024740000000  0.5239330000000 1.0
C      1  0.4931630000000  0.5139250000000  0.5528480000000 1.0
C      1  0.5546490000000  0.4890120000000  0.5021110000000 1.0
C      1  0.4796410000000  0.4500780000000  0.5131640000000 1.0
C      1  0.4552020000000  0.5371430000000  0.4801150000000 1.0
C      1  0.4462290000000  0.5600580000000  0.5020280000000 1.0
C      1  0.5377840000000  0.5650400000000  0.4751140000000 1.0
C      1  0.4437810000000  0.4425890000000  0.5630270000000 1.0
C      1  0.4862860000000  0.5657870000000  0.5806530000000 1.0
C      1  0.5626810000000  0.4610990000000  0.5007370000000 1.0
C      1  0.5185160000000  0.5900490000000  0.5500300000000 1.0
C      1  0.5531700000000  0.5362220000000  0.5823170000000 1.0
C      1  0.5409190000000  0.4810270000000  0.4514930000000 1.0
C      1  0.4427130000000  0.5325730000000  0.4244300000000 1.0
C      1  0.4650180000000  0.4235400000000  0.5552710000000 1.0
C      1  0.4972260000000  0.5068150000000  0.4416150000000 1.0
C      1  0.5451830000000  0.4115800000000  0.4546840000000 1.0
C      1  0.5664120000000  0.5343100000000  0.4484200000000 1.0
C      1  0.4587280000000  0.5202040000000  0.4050370000000 1.0
C      1  0.4816920000000  0.5214820000000  0.4892060000000 1.0
C      1  0.5306210000000  0.4242140000000  0.5667240000000 1.0
C      1  0.5062840000000  0.5971680000000  0.4434090000000 1.0
C      1  0.5064740000000  0.5907450000000  0.5219130000000 1.0
C      1  0.4284770000000  0.5230400000000  0.5749200000000 1.0
C      1  0.4480640000000  0.4772360000000  0.5460540000000 1.0
C      1  0.5110710000000  0.4221310000000  0.5450310000000 1.0
C      1  0.4524280000000  0.4087170000000  0.4730250000000 1.0
C      1  0.4778640000000  0.5017850000000  0.5130350000000 1.0
C      1  0.5124620000000  0.4803600000000  0.4387450000000 1.0
C      1  0.5240230000000  0.5993830000000  0.4979740000000 1.0
C      1  0.4731390000000  0.4988550000000  0.3939190000000 1.0
C      1  0.5706130000000  0.5512250000000  0.5666890000000 1.0
C      1  0.3811400000000  0.4698750000000  0.4807850000000 1.0
C      1  0.4068630000000  0.5541270000000  0.4637660000000 1.0
C      1  0.4755940000000  0.5889860000000  0.4068060000000 1.0
C      1  0.4728580000000  0.5381470000000  0.5413960000000 1.0
C      1  0.6037420000000  0.4675730000000  0.4853470000000 1.0
C      1  0.5334960000000  0.4044750000000  0.5060810000000 1.0
C      1  0.5530180000000  0.4511340000000  0.4303650000000 1.0
C      1  0.4999580000000  0.4903740000000  0.6019940000000 1.0
C      1  0.5624790000000  0.5330370000000  0.5307200000000 1.0
C      1  0.4826790000000  0.4057150000000  0.5125020000000 1.0
C      1  0.5375420000000  0.5128230000000  0.5813060000000 1.0
C      1  0.5934360000000  0.4411940000000  0.4443730000000 1.0
C      1  0.4226850000000  0.5140580000000  0.4322460000000 1.0
C      1  0.4700890000000  0.5287840000000  0.6047490000000 1.0
C      1  0.5958800000000  0.5385560000000  0.5557090000000 1.0
C      1  0.5834220000000  0.4902940000000  0.4448850000000 1.0
C      1  0.5867870000000  0.4899320000000  0.5743320000000 1.0
C      1  0.6042290000000  0.5530800000000  0.5324680000000 1.0
C      1  0.4962780000000  0.5426210000000  0.5972500000000 1.0
C      1  0.4764560000000  0.5992650000000  0.5184940000000 1.0
C      1  0.4923910000000  0.4517910000000  0.4529100000000 1.0
C      1  0.4876550000000  0.4396550000000  0.5449420000000 1.0
C      1  0.4495360000000  0.4906270000000  0.4660240000000 1.0
C      1  0.4483820000000  0.4630350000000  0.4772440000000 1.0
C      1  0.5341840000000  0.4305630000000  0.4357070000000 1.0
C      1  0.4497610000000  0.5388760000000  0.5855600000000 1.0
C      1  0.5670940000000  0.5196120000000  0.4070680000000 1.0
C      1  0.4835530000000  0.4993750000000  0.4681320000000 1.0
C      1  0.6037460000000  0.4919580000000  0.5292940000000 1.0
C      1  0.4781050000000  0.4024690000000  0.4844970000000 1.0
C      1  0.4041260000000  0.4819970000000  0.5425380000000 1.0
C      1  0.5213820000000  0.5734720000000  0.4303610000000 1.0
C      1  0.5947780000000  0.4664670000000  0.4577440000000 1.0
C      1  0.5977480000000  0.4154620000000  0.4534730000000 1.0
C      1  0.4348600000000  0.4201440000000  0.5187340000000 1.0
C      1  0.4374190000000  0.5847570000000  0.4845540000000 1.0
C      1  0.5162960000000  0.5139510000000  0.5309170000000 1.0
C      1  0.4577430000000  0.5771040000000  0.5268800000000 1.0
C      1  0.4829250000000  0.5627530000000  0.4012960000000 1.0
C      1  0.5279680000000  0.4454910000000  0.5882050000000 1.0
C      1  0.4810190000000  0.6023830000000  0.4305320000000 1.0
C      1  0.4976460000000  0.4421970000000  0.4836510000000 1.0
C      1  0.5738830000000  0.5441130000000  0.4204060000000 1.0
C      1  0.5745080000000  0.5371790000000  0.5016200000000 1.0
C      1  0.4498980000000  0.4969740000000  0.5210670000000 1.0
END
