TITL C-950528-5794-38 -8.87192124337e-07 125000 -852.338540226388 0 0 137 (C1) n - 1
REM
REM in /home/bkarasulu/work/CARBON/AIRSS/Generating-Clusters/EDIP-Nigel-Params/with-SteepDescent/Only-C1/SD-CG/HFTN-CG
REM
REM
REM
REM
REM
REM ./C.cell (11c1c37f851c82e70ff6c80c92926a4b)
REM
REM compiler GCC version 9.2.1 20190827 (Red Hat 9.2.1-1)
REM options -cpp -mtune=generic -march=x86-64 -g -O0 -fpre-include=/usr/include/finclude/math-vector-fortran.h
REM seed -1038287477 -1514077556 -1869165670 -1548847658 -1691382085 -811487604 1381037117 -1248505429 -1074940602 500126317 1092782402 -1587890566 574676607 -614756885 1124048759 -1574224072 -692737091 1140864596 2124739143 2073433247 -413631409 847872107 940364403 -1733487637 214452524 -1183420454 -197819054 870066964 1637497885 469771889 1419432312 -276423373 -862607006
REM
CELL 1.54180   50.00000   50.00000   50.00000   90.00000   90.00000   90.00000
LATT -1
SFAC C  
C      1  0.5693140000000  0.5420470000000  0.4608250000000 1.0
C      1  0.5284900000000  0.4897750000000  0.4045510000000 1.0
C      1  0.4180120000000  0.4611420000000  0.4658490000000 1.0
C      1  0.4663630000000  0.5495030000000  0.4755590000000 1.0
C      1  0.4247130000000  0.4335180000000  0.5171430000000 1.0
C      1  0.5393880000000  0.6025640000000  0.5136460000000 1.0
C      1  0.4852480000000  0.5283780000000  0.5163550000000 1.0
C      1  0.5559230000000  0.5188180000000  0.5807810000000 1.0
C      1  0.5625630000000  0.5878860000000  0.5061200000000 1.0
C      1  0.4979280000000  0.5334440000000  0.5616910000000 1.0
C      1  0.4491950000000  0.4311550000000  0.4307690000000 1.0
C      1  0.4431310000000  0.4971990000000  0.4931740000000 1.0
C      1  0.4385240000000  0.5183910000000  0.4254700000000 1.0
C      1  0.5082980000000  0.4604160000000  0.4780430000000 1.0
C      1  0.4762030000000  0.5880050000000  0.5380570000000 1.0
C      1  0.4760760000000  0.4088490000000  0.5594540000000 1.0
C      1  0.5016780000000  0.4556110000000  0.4278850000000 1.0
C      1  0.4843090000000  0.5032080000000  0.6131490000000 1.0
C      1  0.4941390000000  0.6004560000000  0.4943270000000 1.0
C      1  0.4651210000000  0.5453500000000  0.5048260000000 1.0
C      1  0.4969490000000  0.6030510000000  0.4664270000000 1.0
C      1  0.5164470000000  0.5855030000000  0.5071550000000 1.0
C      1  0.5470780000000  0.5579250000000  0.5424760000000 1.0
C      1  0.4644560000000  0.5009330000000  0.4699630000000 1.0
C      1  0.4452140000000  0.4631890000000  0.5808580000000 1.0
C      1  0.5007330000000  0.4889630000000  0.3923920000000 1.0
C      1  0.5114580000000  0.5022530000000  0.5499310000000 1.0
C      1  0.5039240000000  0.5519320000000  0.5843840000000 1.0
C      1  0.4840160000000  0.4567000000000  0.4534520000000 1.0
C      1  0.4939270000000  0.4530790000000  0.5834550000000 1.0
C      1  0.5883650000000  0.4559470000000  0.4815450000000 1.0
C      1  0.4100420000000  0.5311730000000  0.4769750000000 1.0
C      1  0.5184250000000  0.4289870000000  0.5453930000000 1.0
C      1  0.4996880000000  0.4048730000000  0.5441200000000 1.0
C      1  0.4627750000000  0.4331420000000  0.5494650000000 1.0
C      1  0.5836110000000  0.5206430000000  0.4459780000000 1.0
C      1  0.5460090000000  0.4026500000000  0.5127170000000 1.0
C      1  0.5306630000000  0.4202580000000  0.4415210000000 1.0
C      1  0.5054590000000  0.4387190000000  0.4982790000000 1.0
C      1  0.4466640000000  0.5261610000000  0.5445680000000 1.0
C      1  0.5449000000000  0.5084030000000  0.5542900000000 1.0
C      1  0.4384660000000  0.5404300000000  0.5181070000000 1.0
C      1  0.5450840000000  0.4226080000000  0.5326670000000 1.0
C      1  0.4632600000000  0.4804130000000  0.4484110000000 1.0
C      1  0.5478530000000  0.4943620000000  0.5018000000000 1.0
C      1  0.5188130000000  0.5746580000000  0.5781730000000 1.0
C      1  0.5431650000000  0.5153150000000  0.4110340000000 1.0
C      1  0.4655690000000  0.4562750000000  0.5035580000000 1.0
C      1  0.4512990000000  0.5741710000000  0.5498340000000 1.0
C      1  0.4947630000000  0.5365520000000  0.4022870000000 1.0
C      1  0.4672890000000  0.4408410000000  0.5793130000000 1.0
C      1  0.5475980000000  0.4780180000000  0.5543210000000 1.0
C      1  0.4915230000000  0.3982170000000  0.5182980000000 1.0
C      1  0.5046860000000  0.5741850000000  0.5336030000000 1.0
C      1  0.4514190000000  0.4308350000000  0.5017850000000 1.0
C      1  0.5195490000000  0.4409400000000  0.5741850000000 1.0
C      1  0.5498790000000  0.5037060000000  0.6035000000000 1.0
C      1  0.5103190000000  0.5128170000000  0.4789600000000 1.0
C      1  0.5103050000000  0.4282030000000  0.4242650000000 1.0
C      1  0.4708930000000  0.5104810000000  0.5350160000000 1.0
C      1  0.4235590000000  0.5202280000000  0.5001120000000 1.0
C      1  0.5606730000000  0.5284510000000  0.4885820000000 1.0
C      1  0.4833360000000  0.5243630000000  0.4643860000000 1.0
C      1  0.5703130000000  0.4783740000000  0.4331900000000 1.0
C      1  0.4287330000000  0.5512420000000  0.4657650000000 1.0
C      1  0.5074460000000  0.5817870000000  0.4511770000000 1.0
C      1  0.5039810000000  0.4967880000000  0.5934280000000 1.0
C      1  0.5038750000000  0.5431240000000  0.5342980000000 1.0
C      1  0.4617030000000  0.5405340000000  0.5912310000000 1.0
C      1  0.4186510000000  0.5003860000000  0.4373010000000 1.0
C      1  0.5564750000000  0.5715250000000  0.4827190000000 1.0
C      1  0.5301660000000  0.4841420000000  0.5998570000000 1.0
C      1  0.4692390000000  0.5979810000000  0.5110250000000 1.0
C      1  0.5947070000000  0.4789310000000  0.4991020000000 1.0
C      1  0.5358030000000  0.5773140000000  0.4502810000000 1.0
C      1  0.4261440000000  0.4796630000000  0.5388010000000 1.0
C      1  0.4999750000000  0.5347350000000  0.4307710000000 1.0
C      1  0.5182660000000  0.4826320000000  0.5215630000000 1.0
C      1  0.5278870000000  0.5792800000000  0.5524130000000 1.0
C      1  0.4908090000000  0.4118660000000  0.4932370000000 1.0
C      1  0.5701180000000  0.5061250000000  0.4229210000000 1.0
C      1  0.5572400000000  0.4558440000000  0.4216210000000 1.0
C      1  0.4313090000000  0.5696890000000  0.5263800000000 1.0
C      1  0.4323960000000  0.4316440000000  0.5459890000000 1.0
C      1  0.4777290000000  0.4525510000000  0.5304540000000 1.0
C      1  0.4146300000000  0.4622730000000  0.5145110000000 1.0
C      1  0.4305150000000  0.4682870000000  0.4902870000000 1.0
C      1  0.5284500000000  0.5021390000000  0.4552860000000 1.0
C      1  0.5606910000000  0.4420560000000  0.4897710000000 1.0
C      1  0.5653360000000  0.4678040000000  0.5346550000000 1.0
C      1  0.4564470000000  0.4176490000000  0.4764520000000 1.0
C      1  0.5457990000000  0.5500680000000  0.4451860000000 1.0
C      1  0.5309800000000  0.5349560000000  0.4966140000000 1.0
C      1  0.5490500000000  0.4415050000000  0.4450690000000 1.0
C      1  0.4829640000000  0.5549910000000  0.6032650000000 1.0
C      1  0.5882550000000  0.5004460000000  0.4673960000000 1.0
C      1  0.4828770000000  0.5121700000000  0.3971360000000 1.0
C      1  0.4316380000000  0.4741010000000  0.4443750000000 1.0
C      1  0.5550190000000  0.4460920000000  0.5191460000000 1.0
C      1  0.5052500000000  0.4868960000000  0.4939740000000 1.0
C      1  0.4665510000000  0.4312750000000  0.4528780000000 1.0
C      1  0.5780870000000  0.5383760000000  0.5113820000000 1.0
C      1  0.5825210000000  0.5270700000000  0.5789260000000 1.0
C      1  0.5297440000000  0.5269940000000  0.4355080000000 1.0
C      1  0.5804260000000  0.5158330000000  0.5298710000000 1.0
C      1  0.4621700000000  0.5668640000000  0.4367330000000 1.0
C      1  0.4347980000000  0.5800080000000  0.4759720000000 1.0
C      1  0.5893050000000  0.4731400000000  0.4555760000000 1.0
C      1  0.4300750000000  0.5045120000000  0.5579100000000 1.0
C      1  0.4476560000000  0.4931030000000  0.5790330000000 1.0
C      1  0.5274340000000  0.4104170000000  0.4684700000000 1.0
C      1  0.4924010000000  0.4798220000000  0.5742160000000 1.0
C      1  0.4382490000000  0.4552760000000  0.4217200000000 1.0
C      1  0.5736380000000  0.4893130000000  0.5169140000000 1.0
C      1  0.4543960000000  0.4879530000000  0.5221300000000 1.0
C      1  0.4867600000000  0.4646560000000  0.4032520000000 1.0
C      1  0.4560740000000  0.5475180000000  0.5628770000000 1.0
C      1  0.4417700000000  0.5447410000000  0.4393200000000 1.0
C      1  0.4906580000000  0.5607650000000  0.4409230000000 1.0
C      1  0.5321490000000  0.5343540000000  0.5294760000000 1.0
C      1  0.5053820000000  0.3944680000000  0.4747960000000 1.0
C      1  0.5698360000000  0.5650450000000  0.5245030000000 1.0
C      1  0.5259360000000  0.4757540000000  0.4311970000000 1.0
C      1  0.5506670000000  0.4128980000000  0.4866760000000 1.0
C      1  0.5515080000000  0.4886010000000  0.4718350000000 1.0
C      1  0.5066000000000  0.4506800000000  0.5258640000000 1.0
C      1  0.5417880000000  0.4582070000000  0.4704390000000 1.0
C      1  0.4035990000000  0.5121070000000  0.4576450000000 1.0
C      1  0.5268090000000  0.5643030000000  0.4867960000000 1.0
C      1  0.4264450000000  0.4572090000000  0.5592640000000 1.0
C      1  0.4580560000000  0.5840030000000  0.4598650000000 1.0
C      1  0.4594030000000  0.4740980000000  0.4095660000000 1.0
C      1  0.5396870000000  0.4634040000000  0.5788890000000 1.0
C      1  0.5918970000000  0.5197030000000  0.5548410000000 1.0
C      1  0.4591730000000  0.5035260000000  0.4111640000000 1.0
C      1  0.4622600000000  0.5116050000000  0.5972030000000 1.0
C      1  0.4405100000000  0.5885410000000  0.5045070000000 1.0
END
