TITL C-951347-9520-197 -1.16215827915777e-06 125000 -660.374513238089 0 0 106 (C1) n - 1
REM
REM in /home/bkarasulu/work/CARBON/AIRSS/Generating-Clusters/EDIP-Nigel-Params/with-SteepDescent/Only-C1/SD-CG/HFTN-CG
REM
REM
REM
REM
REM
REM ./C.cell (11c1c37f851c82e70ff6c80c92926a4b)
REM
REM compiler GCC version 9.2.1 20190827 (Red Hat 9.2.1-1)
REM options -cpp -mtune=generic -march=x86-64 -g -O0 -fpre-include=/usr/include/finclude/math-vector-fortran.h
REM seed 880425813 -1203091602 -1190212000 2138763783 2034489411 -1324124828 98092721 -568568493 2105095775 83665092 971397748 -1067663425 -1268789832 -1718475842 1339139213 963464942 -1835456501 684384129 -39764411 1579400374 1158284918 1058085631 -1816401543 1501811076 1017219452 1063717396 -295876009 -1109561021 731756855 -1550612299 2122299737 -386107178 398665572
REM
CELL 1.54180   50.00000   50.00000   50.00000   90.00000   90.00000   90.00000
LATT -1
SFAC C  
C      1  0.3945640000000  0.5056090000000  0.5032630000000 1.0
C      1  0.5186820000000  0.4603610000000  0.4261600000000 1.0
C      1  0.5144490000000  0.5111420000000  0.5015860000000 1.0
C      1  0.4972120000000  0.4827910000000  0.5503590000000 1.0
C      1  0.4643090000000  0.4393760000000  0.5003450000000 1.0
C      1  0.4796140000000  0.4619950000000  0.5671990000000 1.0
C      1  0.5704870000000  0.4679920000000  0.5090590000000 1.0
C      1  0.5430600000000  0.5442580000000  0.4318510000000 1.0
C      1  0.4992050000000  0.4224540000000  0.4353700000000 1.0
C      1  0.5213200000000  0.5635870000000  0.4304620000000 1.0
C      1  0.4241460000000  0.4415490000000  0.4548980000000 1.0
C      1  0.5631920000000  0.4812650000000  0.5379030000000 1.0
C      1  0.5098730000000  0.5598610000000  0.5757420000000 1.0
C      1  0.5203000000000  0.4124990000000  0.4797880000000 1.0
C      1  0.5290060000000  0.4306680000000  0.4298600000000 1.0
C      1  0.5439890000000  0.4274970000000  0.4545470000000 1.0
C      1  0.5896840000000  0.5399360000000  0.4949010000000 1.0
C      1  0.4239260000000  0.4648670000000  0.5161070000000 1.0
C      1  0.4690140000000  0.5092070000000  0.4946450000000 1.0
C      1  0.5333170000000  0.5158380000000  0.4286740000000 1.0
C      1  0.4752070000000  0.5276150000000  0.5818940000000 1.0
C      1  0.4551360000000  0.4846950000000  0.4799850000000 1.0
C      1  0.4384710000000  0.5531960000000  0.4636750000000 1.0
C      1  0.5566460000000  0.4486260000000  0.4916410000000 1.0
C      1  0.5032030000000  0.5202050000000  0.5275190000000 1.0
C      1  0.4633910000000  0.5668510000000  0.4697710000000 1.0
C      1  0.5231620000000  0.4745670000000  0.4527260000000 1.0
C      1  0.4495290000000  0.4650790000000  0.5008380000000 1.0
C      1  0.4185630000000  0.5113450000000  0.4604850000000 1.0
C      1  0.4948360000000  0.5139720000000  0.4803570000000 1.0
C      1  0.5124630000000  0.5761020000000  0.4911830000000 1.0
C      1  0.4587420000000  0.5150080000000  0.4304770000000 1.0
C      1  0.5607240000000  0.4498960000000  0.4629890000000 1.0
C      1  0.5064200000000  0.5115460000000  0.4183450000000 1.0
C      1  0.4528380000000  0.4960510000000  0.5483260000000 1.0
C      1  0.4392990000000  0.5276890000000  0.4489440000000 1.0
C      1  0.5247120000000  0.4752270000000  0.5347110000000 1.0
C      1  0.4371920000000  0.4477240000000  0.5397530000000 1.0
C      1  0.5714610000000  0.5298820000000  0.5519590000000 1.0
C      1  0.5811640000000  0.5086160000000  0.4234330000000 1.0
C      1  0.4617840000000  0.5797030000000  0.4960280000000 1.0
C      1  0.4869540000000  0.5430100000000  0.5228890000000 1.0
C      1  0.4672380000000  0.4262740000000  0.4726300000000 1.0
C      1  0.5355110000000  0.5562780000000  0.5351960000000 1.0
C      1  0.5066490000000  0.4855600000000  0.5932300000000 1.0
C      1  0.4959800000000  0.4247270000000  0.4646330000000 1.0
C      1  0.4837160000000  0.5751580000000  0.4509190000000 1.0
C      1  0.4312570000000  0.5099980000000  0.5322450000000 1.0
C      1  0.4516000000000  0.4390180000000  0.4506540000000 1.0
C      1  0.4106080000000  0.4640890000000  0.4605530000000 1.0
C      1  0.4788960000000  0.4975420000000  0.5310600000000 1.0
C      1  0.5048120000000  0.4178630000000  0.5152830000000 1.0
C      1  0.5887760000000  0.5116820000000  0.4504410000000 1.0
C      1  0.4223870000000  0.5488820000000  0.4891720000000 1.0
C      1  0.5227540000000  0.4442160000000  0.5658040000000 1.0
C      1  0.4929760000000  0.4437740000000  0.5046980000000 1.0
C      1  0.5505450000000  0.4873580000000  0.5664880000000 1.0
C      1  0.4934180000000  0.4358710000000  0.5628080000000 1.0
C      1  0.5468690000000  0.5224860000000  0.4702590000000 1.0
C      1  0.5286760000000  0.4709350000000  0.5788240000000 1.0
C      1  0.4898800000000  0.4495800000000  0.4223510000000 1.0
C      1  0.4848510000000  0.5280380000000  0.4270810000000 1.0
C      1  0.5334650000000  0.4198950000000  0.5251940000000 1.0
C      1  0.4298540000000  0.5338320000000  0.5530780000000 1.0
C      1  0.5819400000000  0.4895960000000  0.4925840000000 1.0
C      1  0.4891430000000  0.5701780000000  0.5348020000000 1.0
C      1  0.4835380000000  0.4693080000000  0.5953800000000 1.0
C      1  0.5676090000000  0.4996390000000  0.4679400000000 1.0
C      1  0.4132430000000  0.5203610000000  0.4877270000000 1.0
C      1  0.5447910000000  0.4225930000000  0.4984270000000 1.0
C      1  0.5098630000000  0.5815250000000  0.4624450000000 1.0
C      1  0.5153470000000  0.5733200000000  0.5496850000000 1.0
C      1  0.5000360000000  0.5107590000000  0.5776730000000 1.0
C      1  0.5218170000000  0.5309470000000  0.5737250000000 1.0
C      1  0.4108870000000  0.4923340000000  0.5222560000000 1.0
C      1  0.4566120000000  0.4258720000000  0.5270640000000 1.0
C      1  0.4438320000000  0.5577780000000  0.5102270000000 1.0
C      1  0.4927420000000  0.5566120000000  0.4297890000000 1.0
C      1  0.5363400000000  0.5580720000000  0.5041010000000 1.0
C      1  0.5749330000000  0.5085420000000  0.5327700000000 1.0
C      1  0.5739180000000  0.5602320000000  0.5102220000000 1.0
C      1  0.4501190000000  0.5168130000000  0.5716580000000 1.0
C      1  0.5540810000000  0.4775720000000  0.4508170000000 1.0
C      1  0.5653680000000  0.5571840000000  0.5391760000000 1.0
C      1  0.4571720000000  0.4866330000000  0.4260450000000 1.0
C      1  0.5576760000000  0.5477030000000  0.4581500000000 1.0
C      1  0.5890670000000  0.5127670000000  0.5082570000000 1.0
C      1  0.5395820000000  0.4412790000000  0.5427130000000 1.0
C      1  0.5364980000000  0.5288750000000  0.4957620000000 1.0
C      1  0.5013640000000  0.4985690000000  0.4544530000000 1.0
C      1  0.5558220000000  0.4958810000000  0.4248300000000 1.0
C      1  0.5209960000000  0.4821360000000  0.5049360000000 1.0
C      1  0.4393100000000  0.5609540000000  0.5423000000000 1.0
C      1  0.4888570000000  0.5849380000000  0.5083850000000 1.0
C      1  0.4507060000000  0.4669750000000  0.5583440000000 1.0
C      1  0.4796670000000  0.5571970000000  0.5786680000000 1.0
C      1  0.5278770000000  0.5287950000000  0.5438300000000 1.0
C      1  0.4298780000000  0.4850200000000  0.4602990000000 1.0
C      1  0.4841110000000  0.4181810000000  0.5397970000000 1.0
C      1  0.5523280000000  0.5171620000000  0.5727850000000 1.0
C      1  0.4804450000000  0.4749840000000  0.4642630000000 1.0
C      1  0.4686070000000  0.4624060000000  0.4391870000000 1.0
C      1  0.5870040000000  0.5397240000000  0.4626120000000 1.0
C      1  0.4623830000000  0.5340120000000  0.5119300000000 1.0
C      1  0.5069050000000  0.4623490000000  0.4858790000000 1.0
C      1  0.4656240000000  0.5718060000000  0.5548580000000 1.0
END
