TITL C-950536-5891-468 -8.1850150798358e-07 125000 -530.907240828409 0 0 87 (C1) n - 1
REM
REM in /home/bkarasulu/work/CARBON/AIRSS/Generating-Clusters/EDIP-Nigel-Params/with-SteepDescent/Only-C1/SD-CG/HFTN-CG
REM
REM
REM
REM
REM
REM ./C.cell (11c1c37f851c82e70ff6c80c92926a4b)
REM
REM compiler GCC version 9.2.1 20190827 (Red Hat 9.2.1-1)
REM options -cpp -mtune=generic -march=x86-64 -g -O0 -fpre-include=/usr/include/finclude/math-vector-fortran.h
REM seed -820308925 1518893992 367049824 -1702917726 1459732829 1538034354 -83356956 -163982654 -467293960 -1240497634 1929446035 421354971 -457953352 -1096476705 -2125590419 -1738089315 -1942058651 -702348045 828230235 1438677979 30752699 -1190756666 -1348696766 905052108 2072295070 -577785877 -1296979574 1642995492 -1582333034 471979373 -1455627263 -310318078 1488819998
REM
CELL 1.54180   50.00000   50.00000   50.00000   90.00000   90.00000   90.00000
LATT -1
SFAC C  
C      1  0.4295990000000  0.4733380000000  0.4972310000000 1.0
C      1  0.5769460000000  0.4412360000000  0.5029680000000 1.0
C      1  0.4963230000000  0.5849430000000  0.4596050000000 1.0
C      1  0.4676380000000  0.4965260000000  0.4130240000000 1.0
C      1  0.5464360000000  0.5086040000000  0.5124620000000 1.0
C      1  0.4842940000000  0.5413400000000  0.5652810000000 1.0
C      1  0.5040500000000  0.5957020000000  0.4893400000000 1.0
C      1  0.5417030000000  0.5639940000000  0.5219270000000 1.0
C      1  0.4989250000000  0.4168460000000  0.4473690000000 1.0
C      1  0.4704180000000  0.4333560000000  0.5391850000000 1.0
C      1  0.5383490000000  0.4486500000000  0.4506330000000 1.0
C      1  0.4973050000000  0.4259160000000  0.5321870000000 1.0
C      1  0.4946450000000  0.4665210000000  0.4470230000000 1.0
C      1  0.4312390000000  0.4891560000000  0.5538220000000 1.0
C      1  0.5274870000000  0.5334500000000  0.4413760000000 1.0
C      1  0.4496400000000  0.4802810000000  0.4740840000000 1.0
C      1  0.4203910000000  0.5177650000000  0.4841800000000 1.0
C      1  0.4733570000000  0.5906390000000  0.4910050000000 1.0
C      1  0.5195540000000  0.5710710000000  0.5013670000000 1.0
C      1  0.5563470000000  0.5490540000000  0.4768090000000 1.0
C      1  0.5511780000000  0.4747950000000  0.4769600000000 1.0
C      1  0.5359990000000  0.4377370000000  0.5660720000000 1.0
C      1  0.4792070000000  0.4664430000000  0.4764340000000 1.0
C      1  0.5065660000000  0.5221060000000  0.5612920000000 1.0
C      1  0.4558010000000  0.4290590000000  0.4242910000000 1.0
C      1  0.5606200000000  0.5490730000000  0.5056450000000 1.0
C      1  0.4558800000000  0.5563690000000  0.4584750000000 1.0
C      1  0.5120980000000  0.5118530000000  0.4289370000000 1.0
C      1  0.4945570000000  0.5343970000000  0.4770050000000 1.0
C      1  0.4664850000000  0.5320450000000  0.4661680000000 1.0
C      1  0.5656510000000  0.4836440000000  0.4500660000000 1.0
C      1  0.5115870000000  0.4760800000000  0.5208510000000 1.0
C      1  0.4931760000000  0.5261120000000  0.5253550000000 1.0
C      1  0.4498740000000  0.4647310000000  0.5503590000000 1.0
C      1  0.5420800000000  0.4728600000000  0.4347700000000 1.0
C      1  0.4497620000000  0.5137180000000  0.4826440000000 1.0
C      1  0.4600710000000  0.5187090000000  0.5130170000000 1.0
C      1  0.4656980000000  0.5821010000000  0.4616680000000 1.0
C      1  0.5187480000000  0.5687210000000  0.5636330000000 1.0
C      1  0.5754490000000  0.5215030000000  0.5435190000000 1.0
C      1  0.4144820000000  0.4976850000000  0.5042120000000 1.0
C      1  0.5709980000000  0.4678030000000  0.4981820000000 1.0
C      1  0.5072280000000  0.5063600000000  0.4816450000000 1.0
C      1  0.4220600000000  0.5064710000000  0.5314370000000 1.0
C      1  0.5782690000000  0.5303960000000  0.5166220000000 1.0
C      1  0.5437560000000  0.5012170000000  0.5731030000000 1.0
C      1  0.5560280000000  0.4556250000000  0.5543420000000 1.0
C      1  0.4740450000000  0.4685640000000  0.4235410000000 1.0
C      1  0.4733000000000  0.4857650000000  0.5729520000000 1.0
C      1  0.5705410000000  0.4227810000000  0.5212770000000 1.0
C      1  0.4476150000000  0.5551200000000  0.5155760000000 1.0
C      1  0.4502580000000  0.4691350000000  0.5189410000000 1.0
C      1  0.4915480000000  0.5684140000000  0.5626300000000 1.0
C      1  0.4400760000000  0.4467060000000  0.4392820000000 1.0
C      1  0.4703830000000  0.4907640000000  0.5145420000000 1.0
C      1  0.5492210000000  0.5239030000000  0.4612460000000 1.0
C      1  0.5019330000000  0.4296350000000  0.5036710000000 1.0
C      1  0.4516860000000  0.5045510000000  0.5685290000000 1.0
C      1  0.5545740000000  0.4264470000000  0.5439720000000 1.0
C      1  0.4855890000000  0.5162080000000  0.4210110000000 1.0
C      1  0.5804780000000  0.4923380000000  0.5432480000000 1.0
C      1  0.5170960000000  0.4868850000000  0.4430830000000 1.0
C      1  0.5178160000000  0.4486490000000  0.5335390000000 1.0
C      1  0.4146350000000  0.5326040000000  0.5397630000000 1.0
C      1  0.4601840000000  0.5293910000000  0.5547370000000 1.0
C      1  0.5359390000000  0.5526710000000  0.5485030000000 1.0
C      1  0.5110790000000  0.5528470000000  0.4578860000000 1.0
C      1  0.5499010000000  0.5272230000000  0.5577160000000 1.0
C      1  0.4376290000000  0.4735090000000  0.4474930000000 1.0
C      1  0.4934130000000  0.4842700000000  0.4972550000000 1.0
C      1  0.5376620000000  0.5036010000000  0.4827170000000 1.0
C      1  0.5643390000000  0.4816100000000  0.5651640000000 1.0
C      1  0.4723670000000  0.5671330000000  0.5089990000000 1.0
C      1  0.4694200000000  0.4454090000000  0.4056990000000 1.0
C      1  0.5625640000000  0.4840360000000  0.5207330000000 1.0
C      1  0.5709440000000  0.5111330000000  0.4470880000000 1.0
C      1  0.4430960000000  0.4931500000000  0.4274200000000 1.0
C      1  0.5228410000000  0.4893430000000  0.5884430000000 1.0
C      1  0.4995250000000  0.4983030000000  0.5765570000000 1.0
C      1  0.4396910000000  0.5456920000000  0.5412740000000 1.0
C      1  0.4736340000000  0.4131660000000  0.4386720000000 1.0
C      1  0.5323220000000  0.5648150000000  0.4751300000000 1.0
C      1  0.5193990000000  0.5049380000000  0.5290130000000 1.0
C      1  0.5109340000000  0.4419180000000  0.4459190000000 1.0
C      1  0.4782650000000  0.4398630000000  0.4909210000000 1.0
C      1  0.4959530000000  0.5495400000000  0.5044660000000 1.0
C      1  0.4601490000000  0.4419700000000  0.5138110000000 1.0
END
