TITL C-950522-5749-28 -1.5327244203881e-06 125000 -869.989935570484 0 0 138 (C1) n - 1
REM
REM in /home/bkarasulu/work/CARBON/AIRSS/Generating-Clusters/EDIP-Nigel-Params/with-SteepDescent/Only-C1/SD-CG/HFTN-CG
REM
REM
REM
REM
REM
REM ./C.cell (11c1c37f851c82e70ff6c80c92926a4b)
REM
REM compiler GCC version 9.2.1 20190827 (Red Hat 9.2.1-1)
REM options -cpp -mtune=generic -march=x86-64 -g -O0 -fpre-include=/usr/include/finclude/math-vector-fortran.h
REM seed 928837848 -1171408690 1749614498 -306732439 -1237040817 -1576173061 -179266814 948987199 -1255678031 -1356401210 1956192066 -1211792049 942827073 -89146403 -1515759898 -616566387 746172593 798478597 1419127374 -309721019 -605456226 1086977172 -2132234691 1466238791 -520718740 1558443599 1325010364 1073802107 -414788697 1057314164 1817651129 -15367555 1651693095
REM
CELL 1.54180   50.00000   50.00000   50.00000   90.00000   90.00000   90.00000
LATT -1
SFAC C  
C      1  0.4713290000000  0.5246020000000  0.5433990000000 1.0
C      1  0.5357650000000  0.5084190000000  0.4429560000000 1.0
C      1  0.4736490000000  0.5626490000000  0.4318480000000 1.0
C      1  0.4541210000000  0.4158130000000  0.5375310000000 1.0
C      1  0.5001490000000  0.5027980000000  0.5471440000000 1.0
C      1  0.4797620000000  0.4678300000000  0.5189390000000 1.0
C      1  0.4146630000000  0.5223300000000  0.5456070000000 1.0
C      1  0.5081440000000  0.4464440000000  0.4311500000000 1.0
C      1  0.5227960000000  0.4606340000000  0.4851660000000 1.0
C      1  0.4515490000000  0.5251350000000  0.5210880000000 1.0
C      1  0.5015670000000  0.5397220000000  0.5100680000000 1.0
C      1  0.4309870000000  0.4447540000000  0.4494450000000 1.0
C      1  0.5060250000000  0.4041220000000  0.5298120000000 1.0
C      1  0.5398060000000  0.5339300000000  0.4859910000000 1.0
C      1  0.4666230000000  0.5799950000000  0.4520930000000 1.0
C      1  0.5976970000000  0.5141390000000  0.4705040000000 1.0
C      1  0.4966480000000  0.3878700000000  0.5069080000000 1.0
C      1  0.5213320000000  0.4344140000000  0.4561770000000 1.0
C      1  0.4076450000000  0.4876980000000  0.4518010000000 1.0
C      1  0.5288560000000  0.5875810000000  0.5123800000000 1.0
C      1  0.4529850000000  0.5442310000000  0.4204270000000 1.0
C      1  0.4788130000000  0.4867810000000  0.4462970000000 1.0
C      1  0.4738580000000  0.4233350000000  0.4565000000000 1.0
C      1  0.5490490000000  0.5326180000000  0.4046530000000 1.0
C      1  0.4902320000000  0.4624810000000  0.4692290000000 1.0
C      1  0.4622830000000  0.5788920000000  0.5556400000000 1.0
C      1  0.5941120000000  0.5531060000000  0.5037540000000 1.0
C      1  0.5462700000000  0.5582670000000  0.5581850000000 1.0
C      1  0.4975900000000  0.5616170000000  0.4860340000000 1.0
C      1  0.5009760000000  0.5514510000000  0.5632030000000 1.0
C      1  0.4518640000000  0.4943270000000  0.4535410000000 1.0
C      1  0.4184000000000  0.5586620000000  0.4810570000000 1.0
C      1  0.5337010000000  0.4522720000000  0.5602050000000 1.0
C      1  0.4875940000000  0.5488130000000  0.5355480000000 1.0
C      1  0.4818220000000  0.4113560000000  0.5501180000000 1.0
C      1  0.4909950000000  0.5113910000000  0.5010890000000 1.0
C      1  0.5466340000000  0.4820670000000  0.4904040000000 1.0
C      1  0.5203720000000  0.5725430000000  0.5594860000000 1.0
C      1  0.5872480000000  0.4923690000000  0.5317960000000 1.0
C      1  0.4820620000000  0.5098100000000  0.4007630000000 1.0
C      1  0.4401510000000  0.4646860000000  0.4880190000000 1.0
C      1  0.4690480000000  0.3876100000000  0.5021780000000 1.0
C      1  0.4161560000000  0.4802180000000  0.5218980000000 1.0
C      1  0.5331540000000  0.4965270000000  0.5981540000000 1.0
C      1  0.5703880000000  0.5501690000000  0.4456040000000 1.0
C      1  0.5357910000000  0.5057850000000  0.4741110000000 1.0
C      1  0.5117190000000  0.3962680000000  0.4830060000000 1.0
C      1  0.5102420000000  0.5869640000000  0.5357180000000 1.0
C      1  0.5362450000000  0.5836980000000  0.4625830000000 1.0
C      1  0.5163670000000  0.5863020000000  0.4855190000000 1.0
C      1  0.5901900000000  0.4769000000000  0.5074150000000 1.0
C      1  0.4968580000000  0.4910280000000  0.5205770000000 1.0
C      1  0.5220980000000  0.4466190000000  0.5140310000000 1.0
C      1  0.5340050000000  0.4174170000000  0.5174820000000 1.0
C      1  0.5790830000000  0.4954040000000  0.5832140000000 1.0
C      1  0.4467570000000  0.4558250000000  0.5640400000000 1.0
C      1  0.4806800000000  0.4429660000000  0.4371090000000 1.0
C      1  0.5262400000000  0.5670810000000  0.4364630000000 1.0
C      1  0.5403100000000  0.4775780000000  0.4076560000000 1.0
C      1  0.4691330000000  0.5661820000000  0.4758550000000 1.0
C      1  0.4379510000000  0.4395240000000  0.5422320000000 1.0
C      1  0.4806600000000  0.5866030000000  0.5338530000000 1.0
C      1  0.5508220000000  0.5540810000000  0.4236630000000 1.0
C      1  0.4794390000000  0.5412620000000  0.6048840000000 1.0
C      1  0.4561700000000  0.5328880000000  0.5689650000000 1.0
C      1  0.5456930000000  0.5284610000000  0.5647160000000 1.0
C      1  0.4425840000000  0.4952150000000  0.4809340000000 1.0
C      1  0.4929950000000  0.5104930000000  0.4545940000000 1.0
C      1  0.4718330000000  0.4702990000000  0.5995300000000 1.0
C      1  0.4600550000000  0.5183450000000  0.6042530000000 1.0
C      1  0.4970290000000  0.4475650000000  0.5299170000000 1.0
C      1  0.5122240000000  0.4696180000000  0.4143020000000 1.0
C      1  0.5082500000000  0.4830030000000  0.5966780000000 1.0
C      1  0.5124240000000  0.5250130000000  0.4381360000000 1.0
C      1  0.5891240000000  0.4883630000000  0.4804320000000 1.0
C      1  0.4319880000000  0.5298690000000  0.4359880000000 1.0
C      1  0.5586960000000  0.5834600000000  0.5157340000000 1.0
C      1  0.5642860000000  0.4377380000000  0.5272480000000 1.0
C      1  0.4886590000000  0.4305410000000  0.5732700000000 1.0
C      1  0.4647870000000  0.4453090000000  0.5844370000000 1.0
C      1  0.5544440000000  0.4827200000000  0.5849330000000 1.0
C      1  0.5883330000000  0.5194260000000  0.5430590000000 1.0
C      1  0.5666820000000  0.5662540000000  0.5388400000000 1.0
C      1  0.5596510000000  0.4587150000000  0.4162360000000 1.0
C      1  0.5801840000000  0.4482570000000  0.5055480000000 1.0
C      1  0.5822840000000  0.5441030000000  0.5282340000000 1.0
C      1  0.4386770000000  0.4829550000000  0.5684810000000 1.0
C      1  0.4744100000000  0.5574770000000  0.5778360000000 1.0
C      1  0.4951390000000  0.4800570000000  0.5696780000000 1.0
C      1  0.4376230000000  0.5522420000000  0.5189040000000 1.0
C      1  0.5038810000000  0.4526280000000  0.5590330000000 1.0
C      1  0.4141460000000  0.5064390000000  0.4758420000000 1.0
C      1  0.4494130000000  0.4050830000000  0.5112510000000 1.0
C      1  0.4311310000000  0.4980810000000  0.4326940000000 1.0
C      1  0.5572490000000  0.5619390000000  0.4709300000000 1.0
C      1  0.5068990000000  0.5347050000000  0.6035290000000 1.0
C      1  0.4227630000000  0.4942530000000  0.5470500000000 1.0
C      1  0.5323550000000  0.5123250000000  0.5374390000000 1.0
C      1  0.4997510000000  0.4190290000000  0.4693620000000 1.0
C      1  0.4222230000000  0.4502770000000  0.5190540000000 1.0
C      1  0.4607380000000  0.5278020000000  0.3991090000000 1.0
C      1  0.4612570000000  0.5134220000000  0.4968320000000 1.0
C      1  0.5825910000000  0.5226660000000  0.4474280000000 1.0
C      1  0.4790360000000  0.4834840000000  0.4148350000000 1.0
C      1  0.4363790000000  0.5676430000000  0.5457480000000 1.0
C      1  0.5500230000000  0.5057720000000  0.4170600000000 1.0
C      1  0.4213590000000  0.5340240000000  0.4640700000000 1.0
C      1  0.5776980000000  0.5024270000000  0.4261780000000 1.0
C      1  0.5042670000000  0.5513150000000  0.3965780000000 1.0
C      1  0.4477160000000  0.4773890000000  0.4129190000000 1.0
C      1  0.5767750000000  0.4736470000000  0.4332760000000 1.0
C      1  0.5002300000000  0.5672540000000  0.4194730000000 1.0
C      1  0.5743290000000  0.5189840000000  0.5685850000000 1.0
C      1  0.5298600000000  0.5337880000000  0.5151280000000 1.0
C      1  0.5160930000000  0.5457920000000  0.4670780000000 1.0
C      1  0.5507180000000  0.4553070000000  0.5822180000000 1.0
C      1  0.5298610000000  0.5239540000000  0.5910130000000 1.0
C      1  0.5470640000000  0.4268650000000  0.4701540000000 1.0
C      1  0.4290800000000  0.5434330000000  0.5616840000000 1.0
C      1  0.4118680000000  0.4611270000000  0.4620980000000 1.0
C      1  0.5649880000000  0.4490730000000  0.4796290000000 1.0
C      1  0.4459300000000  0.4267440000000  0.4663370000000 1.0
C      1  0.4352860000000  0.4236370000000  0.4938620000000 1.0
C      1  0.5434980000000  0.4580100000000  0.5329040000000 1.0
C      1  0.5500910000000  0.4873420000000  0.5227970000000 1.0
C      1  0.4575720000000  0.4936340000000  0.5886600000000 1.0
C      1  0.5755020000000  0.5734070000000  0.4923410000000 1.0
C      1  0.6057650000000  0.5343590000000  0.4872580000000 1.0
C      1  0.4454100000000  0.5685360000000  0.4929630000000 1.0
C      1  0.5390600000000  0.4059930000000  0.4901540000000 1.0
C      1  0.5056900000000  0.5250420000000  0.4076090000000 1.0
C      1  0.4029140000000  0.5008900000000  0.5038010000000 1.0
C      1  0.4017810000000  0.5519390000000  0.5047400000000 1.0
C      1  0.4701110000000  0.4593040000000  0.4921760000000 1.0
C      1  0.4019030000000  0.5264290000000  0.5188850000000 1.0
C      1  0.5063550000000  0.5004170000000  0.4780930000000 1.0
C      1  0.5776420000000  0.4694200000000  0.4621600000000 1.0
C      1  0.4400620000000  0.4526170000000  0.4239000000000 1.0
END
