TITL C-951348-1603-232 3.98830997810764e-06 125000 -1255.66430593901 0 0 199 (C1) n - 1
REM
REM in /home/bkarasulu/work/CARBON/AIRSS/Generating-Clusters/EDIP-Nigel-Params/with-SteepDescent/Only-C1/SD-CG/HFTN-CG
REM
REM
REM
REM
REM
REM ./C.cell (11c1c37f851c82e70ff6c80c92926a4b)
REM
REM compiler GCC version 9.2.1 20190827 (Red Hat 9.2.1-1)
REM options -cpp -mtune=generic -march=x86-64 -g -O0 -fpre-include=/usr/include/finclude/math-vector-fortran.h
REM seed -784659735 -457006519 -481048116 -1179129654 621647185 1583040166 -984376364 -1884529499 1074906012 -1732924499 1271374918 1058064192 -591859733 -1707762396 581523787 -31982798 -961347971 -1639600875 -1329889971 1333345745 -211981526 -263887509 -705611890 1065208130 343087724 -2116789561 -1912522637 -2041709078 900599620 -1966528967 -1439064798 1737804075 -1047426328
REM
CELL 1.54180   50.00000   50.00000   50.00000   90.00000   90.00000   90.00000
LATT -1
SFAC C  
C      1  0.5660650000000  0.4596810000000  0.4093300000000 1.0
C      1  0.4810240000000  0.4848500000000  0.4908720000000 1.0
C      1  0.5278090000000  0.4823710000000  0.4455650000000 1.0
C      1  0.4755010000000  0.4457470000000  0.4147110000000 1.0
C      1  0.5068050000000  0.4635790000000  0.4492610000000 1.0
C      1  0.4472110000000  0.5142630000000  0.4759590000000 1.0
C      1  0.5519770000000  0.4393360000000  0.5598330000000 1.0
C      1  0.3864450000000  0.4759890000000  0.4786420000000 1.0
C      1  0.5813790000000  0.4145140000000  0.4770360000000 1.0
C      1  0.6157140000000  0.5306800000000  0.4803710000000 1.0
C      1  0.5694690000000  0.5256490000000  0.4900080000000 1.0
C      1  0.4009740000000  0.4562150000000  0.4598420000000 1.0
C      1  0.5117150000000  0.5625200000000  0.4676750000000 1.0
C      1  0.4398640000000  0.4016790000000  0.4643970000000 1.0
C      1  0.4312830000000  0.6004410000000  0.5187960000000 1.0
C      1  0.5732810000000  0.5059010000000  0.5158000000000 1.0
C      1  0.4556670000000  0.5418950000000  0.5865650000000 1.0
C      1  0.5420300000000  0.4903270000000  0.4696580000000 1.0
C      1  0.4731910000000  0.4774850000000  0.5591940000000 1.0
C      1  0.4844470000000  0.5216520000000  0.5599020000000 1.0
C      1  0.4355410000000  0.4869530000000  0.5117770000000 1.0
C      1  0.5713190000000  0.4959690000000  0.4173630000000 1.0
C      1  0.4189030000000  0.4234600000000  0.4706980000000 1.0
C      1  0.4880070000000  0.5224430000000  0.6143220000000 1.0
C      1  0.4879340000000  0.5432390000000  0.4764360000000 1.0
C      1  0.5010500000000  0.5920900000000  0.4738890000000 1.0
C      1  0.6161660000000  0.5078830000000  0.4972540000000 1.0
C      1  0.5392800000000  0.3869270000000  0.5081480000000 1.0
C      1  0.4059050000000  0.4540240000000  0.5793400000000 1.0
C      1  0.5216420000000  0.4338510000000  0.5253980000000 1.0
C      1  0.5504550000000  0.4239300000000  0.4379450000000 1.0
C      1  0.5833380000000  0.4173320000000  0.5212150000000 1.0
C      1  0.4303790000000  0.5905240000000  0.4764810000000 1.0
C      1  0.5991020000000  0.4812130000000  0.4567060000000 1.0
C      1  0.5317490000000  0.5776530000000  0.5485170000000 1.0
C      1  0.4938400000000  0.5114870000000  0.3771660000000 1.0
C      1  0.4519320000000  0.5853620000000  0.4196860000000 1.0
C      1  0.5443600000000  0.5389770000000  0.4958660000000 1.0
C      1  0.3989400000000  0.5697320000000  0.5072170000000 1.0
C      1  0.5471510000000  0.4771150000000  0.6120080000000 1.0
C      1  0.4220600000000  0.4620100000000  0.4131440000000 1.0
C      1  0.4964430000000  0.5878270000000  0.5044760000000 1.0
C      1  0.4232050000000  0.5537280000000  0.4532380000000 1.0
C      1  0.4994210000000  0.4271450000000  0.4250350000000 1.0
C      1  0.4262590000000  0.5627290000000  0.5200840000000 1.0
C      1  0.4289300000000  0.4611520000000  0.4731020000000 1.0
C      1  0.5240010000000  0.4956720000000  0.4937130000000 1.0
C      1  0.5242120000000  0.4505960000000  0.5762840000000 1.0
C      1  0.4771470000000  0.4827370000000  0.5974930000000 1.0
C      1  0.5314150000000  0.5183490000000  0.5366970000000 1.0
C      1  0.5419100000000  0.5308100000000  0.3896300000000 1.0
C      1  0.4778700000000  0.5687090000000  0.5462450000000 1.0
C      1  0.5160150000000  0.6025990000000  0.5475190000000 1.0
C      1  0.4929750000000  0.5073840000000  0.5870000000000 1.0
C      1  0.5920240000000  0.5466280000000  0.4858510000000 1.0
C      1  0.4060930000000  0.4989470000000  0.4388350000000 1.0
C      1  0.4287280000000  0.5425230000000  0.4267080000000 1.0
C      1  0.3929100000000  0.5507920000000  0.4855470000000 1.0
C      1  0.5400830000000  0.4506280000000  0.4003820000000 1.0
C      1  0.4090290000000  0.4626390000000  0.5236950000000 1.0
C      1  0.4258820000000  0.4936640000000  0.4836540000000 1.0
C      1  0.4906820000000  0.3860520000000  0.5209860000000 1.0
C      1  0.5543950000000  0.5398760000000  0.4436990000000 1.0
C      1  0.4429160000000  0.4255770000000  0.5681460000000 1.0
C      1  0.4589830000000  0.4097730000000  0.4434550000000 1.0
C      1  0.4941750000000  0.5343150000000  0.5054920000000 1.0
C      1  0.5125810000000  0.5356160000000  0.3842030000000 1.0
C      1  0.5089970000000  0.5251970000000  0.4385550000000 1.0
C      1  0.4676200000000  0.5173980000000  0.3920770000000 1.0
C      1  0.5573460000000  0.4654630000000  0.4792050000000 1.0
C      1  0.5359360000000  0.5645240000000  0.4866310000000 1.0
C      1  0.4289110000000  0.4918840000000  0.5807640000000 1.0
C      1  0.5919100000000  0.4015610000000  0.4993260000000 1.0
C      1  0.4472620000000  0.4704920000000  0.4041630000000 1.0
C      1  0.5007980000000  0.5788770000000  0.4187740000000 1.0
C      1  0.4884140000000  0.4131970000000  0.4501110000000 1.0
C      1  0.4859080000000  0.4708540000000  0.4288620000000 1.0
C      1  0.5154620000000  0.4317300000000  0.4964340000000 1.0
C      1  0.5494990000000  0.4447510000000  0.5295460000000 1.0
C      1  0.5900140000000  0.4660970000000  0.5435290000000 1.0
C      1  0.4776590000000  0.4470070000000  0.5525840000000 1.0
C      1  0.4907610000000  0.5204830000000  0.4596830000000 1.0
C      1  0.4476650000000  0.4999450000000  0.4060850000000 1.0
C      1  0.5596820000000  0.4803330000000  0.5785110000000 1.0
C      1  0.5987530000000  0.5051570000000  0.5711430000000 1.0
C      1  0.5366560000000  0.6155350000000  0.4984890000000 1.0
C      1  0.5275260000000  0.5862280000000  0.4283800000000 1.0
C      1  0.5513400000000  0.4168640000000  0.4678360000000 1.0
C      1  0.4837950000000  0.4346850000000  0.4826470000000 1.0
C      1  0.4862330000000  0.5982760000000  0.5496640000000 1.0
C      1  0.5848510000000  0.5636470000000  0.4364320000000 1.0
C      1  0.3941550000000  0.5221700000000  0.4907540000000 1.0
C      1  0.5612700000000  0.4736480000000  0.5107240000000 1.0
C      1  0.5395990000000  0.4409240000000  0.4801020000000 1.0
C      1  0.5584180000000  0.5706980000000  0.5387740000000 1.0
C      1  0.4766130000000  0.5898660000000  0.4318470000000 1.0
C      1  0.5007700000000  0.4074390000000  0.5638440000000 1.0
C      1  0.4106650000000  0.5963810000000  0.4973350000000 1.0
C      1  0.6055720000000  0.4552750000000  0.4971620000000 1.0
C      1  0.5970130000000  0.4388490000000  0.4734580000000 1.0
C      1  0.4588670000000  0.4698960000000  0.5041990000000 1.0
C      1  0.5460320000000  0.5109260000000  0.4114640000000 1.0
C      1  0.5634770000000  0.5996670000000  0.4963630000000 1.0
C      1  0.4600830000000  0.5022260000000  0.6163390000000 1.0
C      1  0.4520750000000  0.4365080000000  0.4323120000000 1.0
C      1  0.4151680000000  0.4315800000000  0.5632030000000 1.0
C      1  0.5573310000000  0.5820200000000  0.4728990000000 1.0
C      1  0.5623860000000  0.5136270000000  0.4620390000000 1.0
C      1  0.5365400000000  0.5063810000000  0.6089390000000 1.0
C      1  0.3919040000000  0.4797180000000  0.5083880000000 1.0
C      1  0.4278760000000  0.5555960000000  0.5486980000000 1.0
C      1  0.4588840000000  0.4420400000000  0.4991580000000 1.0
C      1  0.4037570000000  0.4704540000000  0.4329360000000 1.0
C      1  0.4966130000000  0.4353670000000  0.5732670000000 1.0
C      1  0.5751120000000  0.4574640000000  0.5667790000000 1.0
C      1  0.4597990000000  0.4209390000000  0.5445220000000 1.0
C      1  0.5602240000000  0.5187430000000  0.5427050000000 1.0
C      1  0.4033160000000  0.4189990000000  0.5410130000000 1.0
C      1  0.5293640000000  0.4760620000000  0.5159150000000 1.0
C      1  0.5202330000000  0.5006610000000  0.5858700000000 1.0
C      1  0.5724950000000  0.5459520000000  0.5454420000000 1.0
C      1  0.3918110000000  0.5031810000000  0.4669000000000 1.0
C      1  0.5210240000000  0.5023960000000  0.4253570000000 1.0
C      1  0.5717830000000  0.5463430000000  0.4183230000000 1.0
C      1  0.5049730000000  0.5572390000000  0.5858290000000 1.0
C      1  0.4279600000000  0.5132290000000  0.4242250000000 1.0
C      1  0.5931180000000  0.4458730000000  0.5221940000000 1.0
C      1  0.4506710000000  0.4578780000000  0.4531950000000 1.0
C      1  0.5278210000000  0.4352910000000  0.4223840000000 1.0
C      1  0.5209990000000  0.4913680000000  0.5406020000000 1.0
C      1  0.4787680000000  0.3979570000000  0.5462330000000 1.0
C      1  0.5168520000000  0.5241300000000  0.6258540000000 1.0
C      1  0.5570590000000  0.5242300000000  0.5951990000000 1.0
C      1  0.5409120000000  0.5988370000000  0.4517950000000 1.0
C      1  0.4322120000000  0.4272130000000  0.4991570000000 1.0
C      1  0.4815290000000  0.3919220000000  0.4939350000000 1.0
C      1  0.5261620000000  0.4556350000000  0.6066330000000 1.0
C      1  0.4506750000000  0.5576620000000  0.4157680000000 1.0
C      1  0.5322800000000  0.3952080000000  0.4800280000000 1.0
C      1  0.5260060000000  0.5806870000000  0.5106450000000 1.0
C      1  0.4962510000000  0.5572310000000  0.3979920000000 1.0
C      1  0.4780760000000  0.5643420000000  0.5144320000000 1.0
C      1  0.5590080000000  0.5531420000000  0.3937920000000 1.0
C      1  0.4531940000000  0.3957560000000  0.4897240000000 1.0
C      1  0.4151840000000  0.5321440000000  0.5579360000000 1.0
C      1  0.5262580000000  0.4655360000000  0.3815940000000 1.0
C      1  0.4571280000000  0.6078780000000  0.5078670000000 1.0
C      1  0.4910560000000  0.4974050000000  0.5410980000000 1.0
C      1  0.4503460000000  0.5181270000000  0.5496740000000 1.0
C      1  0.4805080000000  0.6164780000000  0.5252170000000 1.0
C      1  0.5811670000000  0.4573910000000  0.4577780000000 1.0
C      1  0.5246650000000  0.5500170000000  0.4415430000000 1.0
C      1  0.4551910000000  0.6039180000000  0.4787570000000 1.0
C      1  0.5238160000000  0.5227970000000  0.5076360000000 1.0
C      1  0.5418790000000  0.5493230000000  0.5940010000000 1.0
C      1  0.4693020000000  0.5457170000000  0.3980730000000 1.0
C      1  0.5177140000000  0.3757510000000  0.5231700000000 1.0
C      1  0.5989310000000  0.5422050000000  0.5326970000000 1.0
C      1  0.4408950000000  0.5165170000000  0.5984320000000 1.0
C      1  0.4806570000000  0.5477470000000  0.6014990000000 1.0
C      1  0.4495190000000  0.5654800000000  0.4991300000000 1.0
C      1  0.3962150000000  0.5601510000000  0.4593440000000 1.0
C      1  0.5634360000000  0.3991100000000  0.5329590000000 1.0
C      1  0.4975510000000  0.4915770000000  0.4101750000000 1.0
C      1  0.4012630000000  0.4900900000000  0.5672930000000 1.0
C      1  0.4707700000000  0.5000460000000  0.4662960000000 1.0
C      1  0.5226820000000  0.6126330000000  0.4710000000000 1.0
C      1  0.4808620000000  0.4389940000000  0.5995360000000 1.0
C      1  0.5004360000000  0.4617200000000  0.4788410000000 1.0
C      1  0.4106600000000  0.4347540000000  0.5191040000000 1.0
C      1  0.4795250000000  0.5080860000000  0.5140780000000 1.0
C      1  0.4632020000000  0.4820040000000  0.4438320000000 1.0
C      1  0.5836760000000  0.5021930000000  0.4437550000000 1.0
C      1  0.3990640000000  0.5112590000000  0.5466250000000 1.0
C      1  0.4543990000000  0.4473250000000  0.5850490000000 1.0
C      1  0.5258420000000  0.5505600000000  0.6175030000000 1.0
C      1  0.4466110000000  0.4899670000000  0.5576480000000 1.0
C      1  0.6023030000000  0.5120100000000  0.5237620000000 1.0
C      1  0.5221180000000  0.4082280000000  0.5428620000000 1.0
C      1  0.4300550000000  0.4643690000000  0.5939020000000 1.0
C      1  0.6044600000000  0.4920310000000  0.5467000000000 1.0
C      1  0.4959140000000  0.4611610000000  0.6129270000000 1.0
C      1  0.4495390000000  0.5453100000000  0.4741450000000 1.0
C      1  0.4766560000000  0.5974690000000  0.4599910000000 1.0
C      1  0.5187550000000  0.6205710000000  0.5234570000000 1.0
C      1  0.4526210000000  0.5598550000000  0.5623680000000 1.0
C      1  0.5965780000000  0.5624360000000  0.5113000000000 1.0
C      1  0.4985360000000  0.5495260000000  0.5573230000000 1.0
C      1  0.5498570000000  0.4089300000000  0.5570860000000 1.0
C      1  0.3943440000000  0.5074420000000  0.5166880000000 1.0
C      1  0.5022780000000  0.3966730000000  0.4732680000000 1.0
C      1  0.5300640000000  0.4802340000000  0.5677180000000 1.0
C      1  0.4506110000000  0.5130300000000  0.5201770000000 1.0
C      1  0.6050000000000  0.4834500000000  0.4859470000000 1.0
C      1  0.5755630000000  0.5834710000000  0.5186700000000 1.0
C      1  0.5698290000000  0.5079590000000  0.5719080000000 1.0
C      1  0.5814930000000  0.5661270000000  0.4645760000000 1.0
C      1  0.5036280000000  0.4812280000000  0.3825500000000 1.0
C      1  0.5724480000000  0.4431630000000  0.4322890000000 1.0
END
