TITL C-950528-5794-444 3.00730845408211e-06 125000 -53.0141334425238 0 0 10 (C1) n - 1
REM
REM in /home/bkarasulu/work/CARBON/AIRSS/Generating-Clusters/EDIP-Nigel-Params/with-SteepDescent/Only-C1/SD-CG/HFTN-CG
REM
REM
REM
REM
REM
REM ./C.cell (11c1c37f851c82e70ff6c80c92926a4b)
REM
REM compiler GCC version 9.2.1 20190827 (Red Hat 9.2.1-1)
REM options -cpp -mtune=generic -march=x86-64 -g -O0 -fpre-include=/usr/include/finclude/math-vector-fortran.h
REM seed -1265580844 1352784182 1136828269 -542520972 -365907045 -1594689299 -86589345 -770213475 1617461916 1506828 -1601030506 1929653573 951694580 -1137581833 1623985817 1713005071 -438394892 -1669305707 -1427986772 355172207 -516625394 1605791332 1479682667 1157516035 1102256781 -793794315 -1298509085 1493746373 -505976769 -1570020145 1001270016 146728144 1141598307
REM
CELL 1.54180   50.00000   50.00000   50.00000   90.00000   90.00000   90.00000
LATT -1
SFAC C  
C      1  0.4647660000000  0.4841510000000  0.4959800000000 1.0
C      1  0.4388320000000  0.4821920000000  0.5071200000000 1.0
C      1  0.5449130000000  0.5289580000000  0.5374140000000 1.0
C      1  0.5109570000000  0.5059770000000  0.5038860000000 1.0
C      1  0.5366460000000  0.5031370000000  0.4601240000000 1.0
C      1  0.4846920000000  0.4981580000000  0.5133600000000 1.0
C      1  0.4562520000000  0.4964290000000  0.5241830000000 1.0
C      1  0.5121770000000  0.4931710000000  0.4546710000000 1.0
C      1  0.5290430000000  0.5161790000000  0.5219040000000 1.0
C      1  0.5217220000000  0.4916480000000  0.4813570000000 1.0
END
