TITL C-951342-2639-480 0.25805751131057 125000 -66.620660710784 0 0 12 (C1) n - 1
REM
REM in /home/bkarasulu/work/CARBON/AIRSS/Generating-Clusters/EDIP-Nigel-Params/with-SteepDescent/Only-C1/SD-CG/HFTN-CG
REM
REM
REM
REM
REM
REM ./C.cell (11c1c37f851c82e70ff6c80c92926a4b)
REM
REM compiler GCC version 9.2.1 20190827 (Red Hat 9.2.1-1)
REM options -cpp -mtune=generic -march=x86-64 -g -O0 -fpre-include=/usr/include/finclude/math-vector-fortran.h
REM seed -181051860 15553152 -974481836 520908212 1503026365 475411144 1815272584 -479196004 -1997471461 661979417 -1675042737 -661957166 -1338413556 897065089 2073506127 -1928365270 -955693524 428241694 -1285438706 1491218215 -170112178 1595598069 -142410173 1208756061 2110706341 431844763 402411415 -1024626463 623146411 1707163310 1483233420 210578565 1031230845
REM
CELL 1.54180   50.00000   50.00000   50.00000   90.00000   90.00000   90.00000
LATT -1
SFAC C  
C      1  0.5019690000000  0.5362480000000  0.4572530000000 1.0
C      1  0.5014830000000  0.5331120000000  0.5097080000000 1.0
C      1  0.4775210000000  0.4167800000000  0.5259850000000 1.0
C      1  0.4997060000000  0.5116450000000  0.4678140000000 1.0
C      1  0.4950060000000  0.4614280000000  0.5190150000000 1.0
C      1  0.5042520000000  0.5622560000000  0.4661900000000 1.0
C      1  0.5222690000000  0.5701330000000  0.4858060000000 1.0
C      1  0.4929020000000  0.4389800000000  0.5346080000000 1.0
C      1  0.4971980000000  0.4853810000000  0.5079710000000 1.0
C      1  0.5043760000000  0.4144420000000  0.5262420000000 1.0
C      1  0.5038960000000  0.5600000000000  0.5039990000000 1.0
C      1  0.4994220000000  0.5095950000000  0.4954090000000 1.0
END
