TITL C-951345-2650-174 -1.17634417494757e-06 125000 -1061.88422799345 0 0 170 (C1) n - 1
REM
REM in /home/bkarasulu/work/CARBON/AIRSS/Generating-Clusters/EDIP-Nigel-Params/with-SteepDescent/Only-C1/SD-CG/HFTN-CG
REM
REM
REM
REM
REM
REM ./C.cell (11c1c37f851c82e70ff6c80c92926a4b)
REM
REM compiler GCC version 9.2.1 20190827 (Red Hat 9.2.1-1)
REM options -cpp -mtune=generic -march=x86-64 -g -O0 -fpre-include=/usr/include/finclude/math-vector-fortran.h
REM seed -358561981 -1895639330 1471779243 -1584268139 -996213751 -1429647435 -63219351 -1649059262 1493314303 -74120372 1938994351 692218763 -2093280798 1570614499 1008028468 -895874079 -1506245873 166290991 497862198 -264996586 -2020212253 435632075 2130926355 1210329827 218809283 -792840340 1128825267 -1614279010 -1324992983 463354350 359725924 1509823433 -314906258
REM
CELL 1.54180   50.00000   50.00000   50.00000   90.00000   90.00000   90.00000
LATT -1
SFAC C  
C      1  0.4267300000000  0.4792490000000  0.5835020000000 1.0
C      1  0.5990310000000  0.5148460000000  0.5488860000000 1.0
C      1  0.5419320000000  0.4911600000000  0.4047620000000 1.0
C      1  0.4436550000000  0.4656450000000  0.5098260000000 1.0
C      1  0.5201750000000  0.5325930000000  0.4511580000000 1.0
C      1  0.5993560000000  0.4602840000000  0.4757160000000 1.0
C      1  0.5691480000000  0.5701310000000  0.5777560000000 1.0
C      1  0.4037070000000  0.5557350000000  0.4795870000000 1.0
C      1  0.4832740000000  0.4818270000000  0.4479470000000 1.0
C      1  0.4284960000000  0.5357480000000  0.5776750000000 1.0
C      1  0.5238650000000  0.5464550000000  0.4958880000000 1.0
C      1  0.4534410000000  0.5752160000000  0.4590230000000 1.0
C      1  0.4766740000000  0.5584900000000  0.5822740000000 1.0
C      1  0.4799450000000  0.5286620000000  0.5823630000000 1.0
C      1  0.4950210000000  0.4784400000000  0.4019900000000 1.0
C      1  0.5299890000000  0.4465300000000  0.4246490000000 1.0
C      1  0.5223300000000  0.5938060000000  0.5143490000000 1.0
C      1  0.3986250000000  0.5228170000000  0.4498590000000 1.0
C      1  0.3996960000000  0.4873710000000  0.5429790000000 1.0
C      1  0.5492160000000  0.4297720000000  0.5684360000000 1.0
C      1  0.5838560000000  0.5004080000000  0.4265800000000 1.0
C      1  0.4383290000000  0.4190300000000  0.4697600000000 1.0
C      1  0.4173590000000  0.5008550000000  0.5641300000000 1.0
C      1  0.4081810000000  0.5537630000000  0.5289580000000 1.0
C      1  0.3947920000000  0.4708410000000  0.4870700000000 1.0
C      1  0.4840620000000  0.5096160000000  0.5320770000000 1.0
C      1  0.4703610000000  0.5073030000000  0.4558620000000 1.0
C      1  0.5190030000000  0.4551620000000  0.5483330000000 1.0
C      1  0.5385520000000  0.4030670000000  0.4992270000000 1.0
C      1  0.5005180000000  0.5948790000000  0.4551760000000 1.0
C      1  0.5909600000000  0.4951490000000  0.5706630000000 1.0
C      1  0.4726690000000  0.4704400000000  0.5935690000000 1.0
C      1  0.6025200000000  0.5418850000000  0.4772400000000 1.0
C      1  0.5514020000000  0.5397380000000  0.4058950000000 1.0
C      1  0.3920860000000  0.5265180000000  0.4775660000000 1.0
C      1  0.4182760000000  0.4432370000000  0.5525520000000 1.0
C      1  0.5763770000000  0.4712250000000  0.5166170000000 1.0
C      1  0.4862590000000  0.4081010000000  0.5521970000000 1.0
C      1  0.5524940000000  0.5870270000000  0.4716650000000 1.0
C      1  0.4331090000000  0.4523150000000  0.5750950000000 1.0
C      1  0.4976630000000  0.4647830000000  0.4870610000000 1.0
C      1  0.5723020000000  0.4633100000000  0.4627020000000 1.0
C      1  0.5633770000000  0.5240660000000  0.4571010000000 1.0
C      1  0.4475650000000  0.5529650000000  0.5028620000000 1.0
C      1  0.5744790000000  0.4072240000000  0.5332580000000 1.0
C      1  0.6182660000000  0.4753020000000  0.4894820000000 1.0
C      1  0.5211210000000  0.5219940000000  0.4798620000000 1.0
C      1  0.5557520000000  0.4269640000000  0.4936140000000 1.0
C      1  0.5805440000000  0.4236980000000  0.5111030000000 1.0
C      1  0.5177380000000  0.4388360000000  0.5238880000000 1.0
C      1  0.4933170000000  0.5520250000000  0.4526180000000 1.0
C      1  0.4439210000000  0.4508610000000  0.4218690000000 1.0
C      1  0.5502310000000  0.4082620000000  0.5477500000000 1.0
C      1  0.5648620000000  0.5588240000000  0.4223670000000 1.0
C      1  0.5017330000000  0.5106190000000  0.5962310000000 1.0
C      1  0.5495770000000  0.4805870000000  0.4786070000000 1.0
C      1  0.4385560000000  0.5088580000000  0.5441140000000 1.0
C      1  0.5387960000000  0.4472440000000  0.5063690000000 1.0
C      1  0.5580800000000  0.4364930000000  0.4646120000000 1.0
C      1  0.5697700000000  0.5224060000000  0.5528970000000 1.0
C      1  0.5536240000000  0.5155420000000  0.5276620000000 1.0
C      1  0.5518610000000  0.4661200000000  0.4160140000000 1.0
C      1  0.4415170000000  0.4509060000000  0.4799410000000 1.0
C      1  0.6184520000000  0.4546610000000  0.5081590000000 1.0
C      1  0.4611220000000  0.5464510000000  0.4145850000000 1.0
C      1  0.4612270000000  0.5512560000000  0.5302050000000 1.0
C      1  0.4936240000000  0.4257370000000  0.5754480000000 1.0
C      1  0.4845700000000  0.4819920000000  0.5415780000000 1.0
C      1  0.5070520000000  0.4088070000000  0.4289640000000 1.0
C      1  0.5143710000000  0.4969980000000  0.4145300000000 1.0
C      1  0.4931420000000  0.5868780000000  0.4273140000000 1.0
C      1  0.4956510000000  0.6010080000000  0.5231240000000 1.0
C      1  0.5520470000000  0.5105910000000  0.4805300000000 1.0
C      1  0.5301280000000  0.4432410000000  0.4549550000000 1.0
C      1  0.4773350000000  0.4187300000000  0.4950400000000 1.0
C      1  0.5733660000000  0.5877820000000  0.5206080000000 1.0
C      1  0.4469750000000  0.4989680000000  0.4120000000000 1.0
C      1  0.4507770000000  0.4897030000000  0.5939560000000 1.0
C      1  0.4887310000000  0.5981430000000  0.5506170000000 1.0
C      1  0.4219670000000  0.5378290000000  0.4418260000000 1.0
C      1  0.5966610000000  0.5697340000000  0.4711040000000 1.0
C      1  0.4538440000000  0.4096310000000  0.4473510000000 1.0
C      1  0.3950770000000  0.4520670000000  0.5102550000000 1.0
C      1  0.4743640000000  0.5046860000000  0.5045080000000 1.0
C      1  0.5041680000000  0.5244200000000  0.4110370000000 1.0
C      1  0.5454040000000  0.5888030000000  0.5349030000000 1.0
C      1  0.4020190000000  0.4251900000000  0.5046610000000 1.0
C      1  0.4478980000000  0.4107550000000  0.4959090000000 1.0
C      1  0.4601800000000  0.4286900000000  0.4269390000000 1.0
C      1  0.5721000000000  0.4495360000000  0.5675510000000 1.0
C      1  0.4427720000000  0.5006450000000  0.4681070000000 1.0
C      1  0.4291150000000  0.4237920000000  0.5128350000000 1.0
C      1  0.4816730000000  0.5308570000000  0.4300660000000 1.0
C      1  0.4160490000000  0.4625970000000  0.4677020000000 1.0
C      1  0.4984130000000  0.4817310000000  0.5958550000000 1.0
C      1  0.4813990000000  0.4282540000000  0.4656610000000 1.0
C      1  0.5218320000000  0.4708350000000  0.4674710000000 1.0
C      1  0.5314040000000  0.4180240000000  0.4160170000000 1.0
C      1  0.4222380000000  0.4851340000000  0.4505970000000 1.0
C      1  0.4937890000000  0.3946410000000  0.5013270000000 1.0
C      1  0.5747920000000  0.4729880000000  0.4335540000000 1.0
C      1  0.4687390000000  0.4420190000000  0.5856570000000 1.0
C      1  0.5671660000000  0.5719760000000  0.4955950000000 1.0
C      1  0.5328060000000  0.5340430000000  0.5724640000000 1.0
C      1  0.4490850000000  0.6012020000000  0.5110290000000 1.0
C      1  0.4070150000000  0.5776040000000  0.5105580000000 1.0
C      1  0.4616590000000  0.4363020000000  0.5478470000000 1.0
C      1  0.5343680000000  0.4929400000000  0.5249340000000 1.0
C      1  0.4702940000000  0.4581200000000  0.5274360000000 1.0
C      1  0.5243300000000  0.5806550000000  0.4658240000000 1.0
C      1  0.4752610000000  0.5971680000000  0.5022020000000 1.0
C      1  0.4857440000000  0.5178180000000  0.4811290000000 1.0
C      1  0.5685420000000  0.4773560000000  0.5760690000000 1.0
C      1  0.5906150000000  0.5357040000000  0.5040490000000 1.0
C      1  0.5207420000000  0.4417390000000  0.5738360000000 1.0
C      1  0.4940590000000  0.5726510000000  0.5621560000000 1.0
C      1  0.5501330000000  0.5498370000000  0.4485680000000 1.0
C      1  0.4908640000000  0.4446450000000  0.5089420000000 1.0
C      1  0.5921120000000  0.5240990000000  0.4559790000000 1.0
C      1  0.5900080000000  0.5673960000000  0.5346580000000 1.0
C      1  0.4138970000000  0.4634380000000  0.5303970000000 1.0
C      1  0.4223390000000  0.5369460000000  0.5076380000000 1.0
C      1  0.5495790000000  0.4732240000000  0.5078150000000 1.0
C      1  0.3913960000000  0.5005980000000  0.4942230000000 1.0
C      1  0.5222380000000  0.4660180000000  0.5914790000000 1.0
C      1  0.4664200000000  0.5719980000000  0.4318200000000 1.0
C      1  0.4761780000000  0.5905740000000  0.4728520000000 1.0
C      1  0.5024680000000  0.3947140000000  0.5312520000000 1.0
C      1  0.4473790000000  0.5623890000000  0.5826870000000 1.0
C      1  0.5227420000000  0.5461240000000  0.4090800000000 1.0
C      1  0.4879120000000  0.5579720000000  0.5179860000000 1.0
C      1  0.4353450000000  0.4241170000000  0.5405320000000 1.0
C      1  0.5945960000000  0.4451440000000  0.5509250000000 1.0
C      1  0.5130090000000  0.5722620000000  0.4132750000000 1.0
C      1  0.5309870000000  0.5129430000000  0.5922330000000 1.0
C      1  0.4632210000000  0.5255320000000  0.5469770000000 1.0
C      1  0.5161240000000  0.3976890000000  0.4811080000000 1.0
C      1  0.5613900000000  0.5116010000000  0.4103600000000 1.0
C      1  0.6077510000000  0.5344360000000  0.5279870000000 1.0
C      1  0.5157560000000  0.4854130000000  0.5477660000000 1.0
C      1  0.5095410000000  0.4186970000000  0.4582630000000 1.0
C      1  0.4467570000000  0.4948090000000  0.4989040000000 1.0
C      1  0.4530940000000  0.5183430000000  0.5879850000000 1.0
C      1  0.5489420000000  0.5493990000000  0.5083740000000 1.0
C      1  0.4875070000000  0.4284920000000  0.4166420000000 1.0
C      1  0.4273450000000  0.5092520000000  0.5171440000000 1.0
C      1  0.5716090000000  0.5133310000000  0.5040250000000 1.0
C      1  0.3892000000000  0.5046680000000  0.5225340000000 1.0
C      1  0.5275650000000  0.4094790000000  0.5272500000000 1.0
C      1  0.5318910000000  0.5620830000000  0.5819700000000 1.0
C      1  0.5424880000000  0.5580700000000  0.5363690000000 1.0
C      1  0.4388730000000  0.5278870000000  0.4192310000000 1.0
C      1  0.4239700000000  0.5561530000000  0.5535840000000 1.0
C      1  0.5702510000000  0.5538270000000  0.5526470000000 1.0
C      1  0.4344300000000  0.5804990000000  0.4989830000000 1.0
C      1  0.5120190000000  0.5736610000000  0.4920870000000 1.0
C      1  0.5118420000000  0.4945950000000  0.4461030000000 1.0
C      1  0.5749920000000  0.5794340000000  0.4534490000000 1.0
C      1  0.4760430000000  0.4596010000000  0.4679120000000 1.0
C      1  0.5414040000000  0.4861500000000  0.5837090000000 1.0
C      1  0.5455790000000  0.5866170000000  0.5701000000000 1.0
C      1  0.4269310000000  0.5603860000000  0.4599890000000 1.0
C      1  0.4790970000000  0.5477370000000  0.4824570000000 1.0
C      1  0.5157460000000  0.5246250000000  0.5486620000000 1.0
C      1  0.4346580000000  0.4768290000000  0.4254460000000 1.0
C      1  0.5012290000000  0.4544030000000  0.4176710000000 1.0
C      1  0.5931090000000  0.4486520000000  0.5219680000000 1.0
C      1  0.5075190000000  0.5542490000000  0.5416970000000 1.0
C      1  0.4695930000000  0.4901310000000  0.3977020000000 1.0
C      1  0.3966590000000  0.4965210000000  0.4421220000000 1.0
END
