TITL C-951343-2256-2 -0.00637150106630582 125000 -51.4165995886408 0 0 10 (C1) n - 1
REM
REM in /home/bkarasulu/work/CARBON/AIRSS/Generating-Clusters/EDIP-Nigel-Params/with-SteepDescent/Only-C1/SD-CG/HFTN-CG
REM
REM
REM
REM
REM
REM ./C.cell (11c1c37f851c82e70ff6c80c92926a4b)
REM
REM compiler GCC version 9.2.1 20190827 (Red Hat 9.2.1-1)
REM options -cpp -mtune=generic -march=x86-64 -g -O0 -fpre-include=/usr/include/finclude/math-vector-fortran.h
REM seed -1683868277 -632458374 716211149 1792511108 -1898673136 324527733 1241700713 844268476 -1239086209 -1054287575 284808425 -648769382 -1452173614 882970176 -488768104 1873293000 -456760107 1758785476 1196216636 -1139396793 -25592336 1597285579 -1173780155 -1392635354 -1763052036 1974747694 -1066571791 1445525910 531114039 1133524561 -789273966 -970498187 1567669934
REM
CELL 1.54180   50.00000   50.00000   50.00000   90.00000   90.00000   90.00000
LATT -1
SFAC C  
C      1  0.4791100000000  0.4707050000000  0.5238110000000 1.0
C      1  0.5002320000000  0.4505510000000  0.4743290000000 1.0
C      1  0.4937560000000  0.4793100000000  0.4791730000000 1.0
C      1  0.4956620000000  0.5601710000000  0.5114580000000 1.0
C      1  0.5068830000000  0.5367540000000  0.5228280000000 1.0
C      1  0.4938970000000  0.4857520000000  0.5078900000000 1.0
C      1  0.4982410000000  0.5119040000000  0.5150070000000 1.0
C      1  0.5184010000000  0.4892890000000  0.4655580000000 1.0
C      1  0.5241630000000  0.4613620000000  0.4628940000000 1.0
C      1  0.4896570000000  0.5542040000000  0.5370520000000 1.0
END
