TITL C-951339-9237-155 1.68112250510023e-06 125000 -1172.53820245259 0 0 189 (C1) n - 1
REM
REM in /home/bkarasulu/work/CARBON/AIRSS/Generating-Clusters/EDIP-Nigel-Params/with-SteepDescent/Only-C1/SD-CG/HFTN-CG
REM
REM
REM
REM
REM
REM ./C.cell (11c1c37f851c82e70ff6c80c92926a4b)
REM
REM compiler GCC version 9.2.1 20190827 (Red Hat 9.2.1-1)
REM options -cpp -mtune=generic -march=x86-64 -g -O0 -fpre-include=/usr/include/finclude/math-vector-fortran.h
REM seed -1605058423 -1959724840 1223693344 -2124415996 1784207273 449464082 -1833498469 252779251 -1357473364 95976832 -41547441 -230191958 -1878693587 -1711925474 1956200465 -1395574252 -2065465693 404390236 416734413 -1724278496 -573739870 1447247795 732316478 -693042030 577485719 1913435294 -533033505 -1361973228 -229108613 -1645659899 -711528801 382130852 481379593
REM
CELL 1.54180   50.00000   50.00000   50.00000   90.00000   90.00000   90.00000
LATT -1
SFAC C  
C      1  0.5027510000000  0.4350910000000  0.5456490000000 1.0
C      1  0.4868580000000  0.4962650000000  0.5687110000000 1.0
C      1  0.4212080000000  0.4628800000000  0.4202120000000 1.0
C      1  0.5591860000000  0.4782490000000  0.5439040000000 1.0
C      1  0.4243170000000  0.4012740000000  0.5213570000000 1.0
C      1  0.5377530000000  0.4680670000000  0.6070700000000 1.0
C      1  0.5244160000000  0.5219840000000  0.4902920000000 1.0
C      1  0.5408900000000  0.5523500000000  0.5801990000000 1.0
C      1  0.6241820000000  0.5101280000000  0.5033280000000 1.0
C      1  0.5001530000000  0.5638860000000  0.4515800000000 1.0
C      1  0.5685700000000  0.5398300000000  0.5750610000000 1.0
C      1  0.4138230000000  0.5758010000000  0.4693850000000 1.0
C      1  0.4429970000000  0.4980660000000  0.3994480000000 1.0
C      1  0.5405050000000  0.5533340000000  0.5250630000000 1.0
C      1  0.5807420000000  0.4921220000000  0.5259260000000 1.0
C      1  0.4690650000000  0.3687210000000  0.5190080000000 1.0
C      1  0.5164780000000  0.4786260000000  0.4803350000000 1.0
C      1  0.5814850000000  0.4355140000000  0.5187330000000 1.0
C      1  0.4473380000000  0.4513860000000  0.4146370000000 1.0
C      1  0.5448700000000  0.5523150000000  0.4546780000000 1.0
C      1  0.4571280000000  0.5032690000000  0.4349320000000 1.0
C      1  0.5796910000000  0.4066860000000  0.5214240000000 1.0
C      1  0.5202420000000  0.5357670000000  0.4156140000000 1.0
C      1  0.4829720000000  0.5333070000000  0.4999140000000 1.0
C      1  0.5730760000000  0.5354480000000  0.4931200000000 1.0
C      1  0.6040250000000  0.4736390000000  0.5180080000000 1.0
C      1  0.4531470000000  0.5382360000000  0.5775550000000 1.0
C      1  0.4736890000000  0.4762930000000  0.5510300000000 1.0
C      1  0.5522480000000  0.3998540000000  0.5212810000000 1.0
C      1  0.5030420000000  0.5447990000000  0.5759320000000 1.0
C      1  0.4791380000000  0.4836260000000  0.5245610000000 1.0
C      1  0.4821520000000  0.5595910000000  0.3980750000000 1.0
C      1  0.4493650000000  0.4038640000000  0.4740880000000 1.0
C      1  0.4438530000000  0.5605570000000  0.5591130000000 1.0
C      1  0.5285080000000  0.4876720000000  0.5458980000000 1.0
C      1  0.4517090000000  0.5115940000000  0.5642370000000 1.0
C      1  0.5089270000000  0.4784650000000  0.5239440000000 1.0
C      1  0.4809350000000  0.5671400000000  0.5286500000000 1.0
C      1  0.4583990000000  0.6048790000000  0.5351230000000 1.0
C      1  0.4390460000000  0.5934800000000  0.4674190000000 1.0
C      1  0.5651160000000  0.5319080000000  0.4624330000000 1.0
C      1  0.5041380000000  0.5745700000000  0.5714880000000 1.0
C      1  0.5529550000000  0.5710640000000  0.5477950000000 1.0
C      1  0.4325560000000  0.4683860000000  0.5160930000000 1.0
C      1  0.6057980000000  0.5158040000000  0.4589680000000 1.0
C      1  0.4688640000000  0.6220360000000  0.4904100000000 1.0
C      1  0.4227080000000  0.5547500000000  0.5389360000000 1.0
C      1  0.4591690000000  0.4386750000000  0.4388220000000 1.0
C      1  0.5478840000000  0.5211320000000  0.4080250000000 1.0
C      1  0.4481500000000  0.5170640000000  0.5337040000000 1.0
C      1  0.6115770000000  0.4978190000000  0.4815350000000 1.0
C      1  0.4864800000000  0.4309570000000  0.4271360000000 1.0
C      1  0.5844240000000  0.4457550000000  0.4897200000000 1.0
C      1  0.4772490000000  0.3981240000000  0.4732920000000 1.0
C      1  0.5604990000000  0.4859080000000  0.4776930000000 1.0
C      1  0.4064000000000  0.4893930000000  0.4950070000000 1.0
C      1  0.5378310000000  0.4439640000000  0.5076620000000 1.0
C      1  0.5991620000000  0.4953400000000  0.5683420000000 1.0
C      1  0.4928650000000  0.4340010000000  0.4988350000000 1.0
C      1  0.4212750000000  0.5478280000000  0.4624830000000 1.0
C      1  0.5011600000000  0.4956320000000  0.4631660000000 1.0
C      1  0.4391490000000  0.4194370000000  0.4513890000000 1.0
C      1  0.5099800000000  0.4610780000000  0.6110700000000 1.0
C      1  0.5748940000000  0.5570410000000  0.4311540000000 1.0
C      1  0.3889220000000  0.4716570000000  0.5137900000000 1.0
C      1  0.4971010000000  0.5162210000000  0.4083270000000 1.0
C      1  0.4822370000000  0.6135710000000  0.4661540000000 1.0
C      1  0.3932660000000  0.4781500000000  0.5437990000000 1.0
C      1  0.5949030000000  0.5716050000000  0.5212830000000 1.0
C      1  0.4496460000000  0.4431710000000  0.5083070000000 1.0
C      1  0.5027960000000  0.4692010000000  0.3941240000000 1.0
C      1  0.5108210000000  0.4482920000000  0.5188380000000 1.0
C      1  0.4601010000000  0.4635060000000  0.5969770000000 1.0
C      1  0.5787510000000  0.4509650000000  0.4402170000000 1.0
C      1  0.4801010000000  0.4113400000000  0.5153310000000 1.0
C      1  0.5617970000000  0.4635970000000  0.5921760000000 1.0
C      1  0.4808980000000  0.6119290000000  0.5149890000000 1.0
C      1  0.4523290000000  0.4921450000000  0.5141810000000 1.0
C      1  0.4713870000000  0.4515550000000  0.4883220000000 1.0
C      1  0.4675440000000  0.4610100000000  0.4586480000000 1.0
C      1  0.5998160000000  0.5472010000000  0.5074790000000 1.0
C      1  0.5742800000000  0.4812660000000  0.4440790000000 1.0
C      1  0.5643680000000  0.4380380000000  0.5805430000000 1.0
C      1  0.4279480000000  0.4958870000000  0.5722680000000 1.0
C      1  0.5083530000000  0.5457900000000  0.4966910000000 1.0
C      1  0.4463300000000  0.3830900000000  0.5327120000000 1.0
C      1  0.4780160000000  0.5315590000000  0.3922150000000 1.0
C      1  0.4911780000000  0.4760740000000  0.4441770000000 1.0
C      1  0.6142140000000  0.5264400000000  0.5237100000000 1.0
C      1  0.4516740000000  0.5009730000000  0.4837150000000 1.0
C      1  0.5638980000000  0.5067680000000  0.5039810000000 1.0
C      1  0.4186570000000  0.5353380000000  0.4361440000000 1.0
C      1  0.5784550000000  0.5829440000000  0.4731390000000 1.0
C      1  0.5567910000000  0.4481520000000  0.5329550000000 1.0
C      1  0.4199490000000  0.4909950000000  0.4144180000000 1.0
C      1  0.5374160000000  0.4144970000000  0.4990380000000 1.0
C      1  0.4336980000000  0.4304300000000  0.5680030000000 1.0
C      1  0.4349000000000  0.6011020000000  0.5181310000000 1.0
C      1  0.5608390000000  0.5138750000000  0.5884180000000 1.0
C      1  0.5490060000000  0.5267370000000  0.5314690000000 1.0
C      1  0.4792000000000  0.5398190000000  0.5935870000000 1.0
C      1  0.5503840000000  0.4149930000000  0.4704220000000 1.0
C      1  0.3969160000000  0.4419930000000  0.5124450000000 1.0
C      1  0.6043180000000  0.4481020000000  0.5313350000000 1.0
C      1  0.5193250000000  0.4463580000000  0.5688360000000 1.0
C      1  0.4982580000000  0.5241840000000  0.5528160000000 1.0
C      1  0.5469170000000  0.4940720000000  0.3972380000000 1.0
C      1  0.4531590000000  0.4337510000000  0.5431400000000 1.0
C      1  0.5223310000000  0.4120590000000  0.4581720000000 1.0
C      1  0.5050870000000  0.5713940000000  0.4813590000000 1.0
C      1  0.5090140000000  0.4357320000000  0.4465860000000 1.0
C      1  0.5464280000000  0.4326780000000  0.5584570000000 1.0
C      1  0.4630330000000  0.6105530000000  0.4444110000000 1.0
C      1  0.5051730000000  0.4024050000000  0.4801840000000 1.0
C      1  0.5385540000000  0.4041880000000  0.5475960000000 1.0
C      1  0.5434570000000  0.5083510000000  0.4609000000000 1.0
C      1  0.5296800000000  0.4579080000000  0.4422370000000 1.0
C      1  0.5585540000000  0.5844060000000  0.4947550000000 1.0
C      1  0.4943460000000  0.3844230000000  0.5189790000000 1.0
C      1  0.4116430000000  0.4321740000000  0.4884800000000 1.0
C      1  0.5418240000000  0.4478280000000  0.4157450000000 1.0
C      1  0.5260410000000  0.5157130000000  0.5450220000000 1.0
C      1  0.5896130000000  0.5066650000000  0.4364230000000 1.0
C      1  0.5159120000000  0.4795920000000  0.5713210000000 1.0
C      1  0.4840710000000  0.4497820000000  0.4036890000000 1.0
C      1  0.5513040000000  0.5560350000000  0.4980140000000 1.0
C      1  0.5140140000000  0.5040890000000  0.6015130000000 1.0
C      1  0.4039360000000  0.5739390000000  0.4957730000000 1.0
C      1  0.4405160000000  0.6129950000000  0.4910150000000 1.0
C      1  0.4871310000000  0.5156870000000  0.6079210000000 1.0
C      1  0.5209290000000  0.6060000000000  0.4379930000000 1.0
C      1  0.4763160000000  0.4476050000000  0.5556510000000 1.0
C      1  0.5041180000000  0.4381060000000  0.5940440000000 1.0
C      1  0.4467820000000  0.4830210000000  0.4581630000000 1.0
C      1  0.4634270000000  0.4062470000000  0.5420230000000 1.0
C      1  0.4821200000000  0.4905300000000  0.4183280000000 1.0
C      1  0.4102240000000  0.4257560000000  0.5366870000000 1.0
C      1  0.4782890000000  0.5138300000000  0.4763410000000 1.0
C      1  0.4039230000000  0.4876490000000  0.4631960000000 1.0
C      1  0.4706510000000  0.5562250000000  0.4493710000000 1.0
C      1  0.5106880000000  0.5776430000000  0.5276440000000 1.0
C      1  0.4250620000000  0.5283390000000  0.4840290000000 1.0
C      1  0.5915980000000  0.5662010000000  0.4539350000000 1.0
C      1  0.5343310000000  0.5246720000000  0.5980950000000 1.0
C      1  0.4180750000000  0.5245180000000  0.5321280000000 1.0
C      1  0.6004640000000  0.4709170000000  0.4889130000000 1.0
C      1  0.4348390000000  0.4173110000000  0.4979280000000 1.0
C      1  0.4784370000000  0.5795020000000  0.4944100000000 1.0
C      1  0.5706470000000  0.5856170000000  0.5245360000000 1.0
C      1  0.5073070000000  0.3989780000000  0.5469500000000 1.0
C      1  0.4767620000000  0.5353790000000  0.5295670000000 1.0
C      1  0.4365680000000  0.5461760000000  0.4142340000000 1.0
C      1  0.4495660000000  0.5255510000000  0.3972470000000 1.0
C      1  0.4062430000000  0.5039490000000  0.5531300000000 1.0
C      1  0.5946050000000  0.5121640000000  0.5434310000000 1.0
C      1  0.5108100000000  0.6033290000000  0.5131460000000 1.0
C      1  0.4084720000000  0.5178400000000  0.5042830000000 1.0
C      1  0.5732220000000  0.5317390000000  0.5480210000000 1.0
C      1  0.4756440000000  0.3988700000000  0.5686500000000 1.0
C      1  0.4194070000000  0.4624370000000  0.5444330000000 1.0
C      1  0.4748770000000  0.4407970000000  0.5852520000000 1.0
C      1  0.4147270000000  0.4623070000000  0.4491130000000 1.0
C      1  0.5241570000000  0.5964740000000  0.4869670000000 1.0
C      1  0.4576800000000  0.5705660000000  0.4736730000000 1.0
C      1  0.4342570000000  0.4673710000000  0.5802030000000 1.0
C      1  0.4576900000000  0.4159080000000  0.5851160000000 1.0
C      1  0.6056440000000  0.5437290000000  0.4637580000000 1.0
C      1  0.4649790000000  0.5809590000000  0.5512080000000 1.0
C      1  0.5214320000000  0.4951110000000  0.5023540000000 1.0
C      1  0.5708220000000  0.4872760000000  0.5746380000000 1.0
C      1  0.4609480000000  0.5665550000000  0.4205830000000 1.0
C      1  0.4205900000000  0.5754570000000  0.5180250000000 1.0
C      1  0.4151720000000  0.4350180000000  0.4599770000000 1.0
C      1  0.4143450000000  0.5057890000000  0.4392660000000 1.0
C      1  0.4739560000000  0.5951260000000  0.4230950000000 1.0
C      1  0.5250690000000  0.5838750000000  0.5532890000000 1.0
C      1  0.4841030000000  0.4778860000000  0.6084470000000 1.0
C      1  0.5109260000000  0.5646050000000  0.4056250000000 1.0
C      1  0.5448410000000  0.4873370000000  0.4353260000000 1.0
C      1  0.4689820000000  0.5266220000000  0.4515860000000 1.0
C      1  0.5404350000000  0.4624070000000  0.4791140000000 1.0
C      1  0.5746290000000  0.5286320000000  0.4202680000000 1.0
C      1  0.5317980000000  0.4687780000000  0.3971930000000 1.0
C      1  0.4807570000000  0.5893680000000  0.5737090000000 1.0
C      1  0.5720270000000  0.4357870000000  0.4653190000000 1.0
C      1  0.5119920000000  0.6128420000000  0.4637680000000 1.0
C      1  0.5029430000000  0.5849300000000  0.4291430000000 1.0
C      1  0.5199460000000  0.5423160000000  0.4448650000000 1.0
C      1  0.5690670000000  0.4414180000000  0.4158380000000 1.0
END
