TITL C-951336-9012-465 1.16406988970131e-06 125000 -361.96490147208 0 0 60 (C1) n - 1
REM
REM in /home/bkarasulu/work/CARBON/AIRSS/Generating-Clusters/EDIP-Nigel-Params/with-SteepDescent/Only-C1/SD-CG/HFTN-CG
REM
REM
REM
REM
REM
REM ./C.cell (11c1c37f851c82e70ff6c80c92926a4b)
REM
REM compiler GCC version 9.2.1 20190827 (Red Hat 9.2.1-1)
REM options -cpp -mtune=generic -march=x86-64 -g -O0 -fpre-include=/usr/include/finclude/math-vector-fortran.h
REM seed -1484086067 -798780987 -776529071 1076059661 -548893732 2097112001 -460379389 557194574 -7868783 1511645828 -1305968673 920603769 -896669705 922482410 91900802 -690197095 -1130287299 270653583 685956946 -1712699859 -1786301068 3781591 -756414924 2110391267 877559268 849106056 973479695 249392419 1913182800 1718550968 -396165710 -824410312 1259567019
REM
CELL 1.54180   50.00000   50.00000   50.00000   90.00000   90.00000   90.00000
LATT -1
SFAC C  
C      1  0.5477850000000  0.5731020000000  0.4799980000000 1.0
C      1  0.4368780000000  0.5307990000000  0.5113480000000 1.0
C      1  0.5024960000000  0.4315960000000  0.4875520000000 1.0
C      1  0.4697750000000  0.4962020000000  0.4297130000000 1.0
C      1  0.5531440000000  0.4466030000000  0.5198470000000 1.0
C      1  0.5576560000000  0.5133540000000  0.5345690000000 1.0
C      1  0.5426370000000  0.4991780000000  0.5553190000000 1.0
C      1  0.4603180000000  0.4603760000000  0.5081540000000 1.0
C      1  0.4399040000000  0.4844560000000  0.5250030000000 1.0
C      1  0.5141480000000  0.4799860000000  0.4217150000000 1.0
C      1  0.4980670000000  0.5668530000000  0.4693320000000 1.0
C      1  0.5359730000000  0.5319090000000  0.4531640000000 1.0
C      1  0.5003970000000  0.4810500000000  0.5631600000000 1.0
C      1  0.4760020000000  0.4680960000000  0.5574890000000 1.0
C      1  0.4292620000000  0.5031000000000  0.5014970000000 1.0
C      1  0.5031630000000  0.5695960000000  0.4965400000000 1.0
C      1  0.4787850000000  0.5081950000000  0.5111560000000 1.0
C      1  0.4968310000000  0.4373680000000  0.5176960000000 1.0
C      1  0.5539900000000  0.4488140000000  0.4920170000000 1.0
C      1  0.5255740000000  0.4756800000000  0.5492670000000 1.0
C      1  0.4399880000000  0.4978640000000  0.4745670000000 1.0
C      1  0.5426630000000  0.5622740000000  0.5262990000000 1.0
C      1  0.4551510000000  0.4598260000000  0.5404770000000 1.0
C      1  0.5074240000000  0.5133750000000  0.5105270000000 1.0
C      1  0.5042620000000  0.4532340000000  0.4248720000000 1.0
C      1  0.5336540000000  0.4492240000000  0.5395720000000 1.0
C      1  0.4435460000000  0.4705540000000  0.4633830000000 1.0
C      1  0.4842540000000  0.5301590000000  0.5747710000000 1.0
C      1  0.4933040000000  0.5550260000000  0.5637880000000 1.0
C      1  0.5565830000000  0.5412160000000  0.5353850000000 1.0
C      1  0.4637130000000  0.5349140000000  0.4692470000000 1.0
C      1  0.4833300000000  0.4528050000000  0.4449910000000 1.0
C      1  0.5073520000000  0.5266950000000  0.4451240000000 1.0
C      1  0.4776190000000  0.5645590000000  0.5406410000000 1.0
C      1  0.4648780000000  0.5345970000000  0.4996120000000 1.0
C      1  0.5287590000000  0.4442270000000  0.4769550000000 1.0
C      1  0.5042370000000  0.4662190000000  0.5051540000000 1.0
C      1  0.4614350000000  0.4710150000000  0.4398650000000 1.0
C      1  0.5222850000000  0.4915470000000  0.4978780000000 1.0
C      1  0.4870380000000  0.5458660000000  0.4546430000000 1.0
C      1  0.5140040000000  0.4294140000000  0.5381940000000 1.0
C      1  0.4976010000000  0.5014950000000  0.4322480000000 1.0
C      1  0.5685490000000  0.4963510000000  0.4821070000000 1.0
C      1  0.5304560000000  0.5164400000000  0.5740820000000 1.0
C      1  0.4523460000000  0.4474460000000  0.4814350000000 1.0
C      1  0.5034090000000  0.5084430000000  0.5739530000000 1.0
C      1  0.4558700000000  0.5483790000000  0.5558890000000 1.0
C      1  0.5247470000000  0.4641580000000  0.4554790000000 1.0
C      1  0.5482250000000  0.5564240000000  0.4588920000000 1.0
C      1  0.5716100000000  0.4680590000000  0.4809870000000 1.0
C      1  0.4780320000000  0.4359000000000  0.4687820000000 1.0
C      1  0.4431910000000  0.5197470000000  0.4567990000000 1.0
C      1  0.5580220000000  0.4999750000000  0.5092020000000 1.0
C      1  0.4833670000000  0.5556670000000  0.5131850000000 1.0
C      1  0.4608720000000  0.5036950000000  0.5369010000000 1.0
C      1  0.4793320000000  0.4806540000000  0.4991510000000 1.0
C      1  0.4423680000000  0.5267570000000  0.5406360000000 1.0
C      1  0.5233880000000  0.4917750000000  0.4670680000000 1.0
C      1  0.5316410000000  0.5717820000000  0.5026650000000 1.0
C      1  0.5487080000000  0.5059320000000  0.4600580000000 1.0
END
