TITL C-950523-3027-642 -2.74939603845875e-06 125000 -903.376152221694 0 0 146 (C1) n - 1
REM
REM in /home/bkarasulu/work/CARBON/AIRSS/Generating-Clusters/EDIP-Nigel-Params/with-SteepDescent/Only-C1/SD-CG/HFTN-CG
REM
REM
REM
REM
REM
REM ./C.cell (11c1c37f851c82e70ff6c80c92926a4b)
REM
REM compiler GCC version 9.2.1 20190827 (Red Hat 9.2.1-1)
REM options -cpp -mtune=generic -march=x86-64 -g -O0 -fpre-include=/usr/include/finclude/math-vector-fortran.h
REM seed 1944794662 -640989289 -438245033 -2096747093 277667208 345992410 -1567588813 1691098212 831018110 1677514413 -910887549 649103069 -1790255512 2130275801 -1489850161 1091687253 -799018677 -786871325 -698572325 -1533695632 1247060103 -239210807 1841687383 281827731 -470554840 1025733409 -279346691 -1259274431 652176505 -1229843878 -2100818036 746543318 1116637164
REM
CELL 1.54180   50.00000   50.00000   50.00000   90.00000   90.00000   90.00000
LATT -1
SFAC C  
C      1  0.4791290000000  0.4582840000000  0.6011020000000 1.0
C      1  0.5981430000000  0.5009200000000  0.5199650000000 1.0
C      1  0.4396670000000  0.4155400000000  0.4856160000000 1.0
C      1  0.4797770000000  0.5374910000000  0.4128130000000 1.0
C      1  0.4749450000000  0.5710270000000  0.4716420000000 1.0
C      1  0.4784450000000  0.5227470000000  0.5527230000000 1.0
C      1  0.5309500000000  0.5399030000000  0.5530600000000 1.0
C      1  0.4344260000000  0.5168160000000  0.4197240000000 1.0
C      1  0.4107030000000  0.5352260000000  0.4783150000000 1.0
C      1  0.5117660000000  0.4919700000000  0.6097220000000 1.0
C      1  0.5209460000000  0.4284590000000  0.5376880000000 1.0
C      1  0.5102140000000  0.4144150000000  0.5644880000000 1.0
C      1  0.5527380000000  0.5536500000000  0.4217610000000 1.0
C      1  0.4457140000000  0.5346580000000  0.5064620000000 1.0
C      1  0.4973180000000  0.4703360000000  0.4421600000000 1.0
C      1  0.4946340000000  0.4089140000000  0.4539440000000 1.0
C      1  0.4647180000000  0.4938030000000  0.4685500000000 1.0
C      1  0.4723430000000  0.5637210000000  0.4240830000000 1.0
C      1  0.5149720000000  0.4931460000000  0.5709970000000 1.0
C      1  0.4835500000000  0.4285930000000  0.5334200000000 1.0
C      1  0.5457410000000  0.4955240000000  0.5687320000000 1.0
C      1  0.5265760000000  0.4084940000000  0.4900470000000 1.0
C      1  0.5803940000000  0.5165270000000  0.4418170000000 1.0
C      1  0.4901030000000  0.4975330000000  0.4293000000000 1.0
C      1  0.4739340000000  0.5565810000000  0.5704720000000 1.0
C      1  0.5558750000000  0.4883620000000  0.5412910000000 1.0
C      1  0.4555700000000  0.5401040000000  0.5857020000000 1.0
C      1  0.4522730000000  0.5377880000000  0.4542030000000 1.0
C      1  0.4697280000000  0.4216490000000  0.4445890000000 1.0
C      1  0.5572690000000  0.4793390000000  0.5899380000000 1.0
C      1  0.5894240000000  0.5651400000000  0.4984330000000 1.0
C      1  0.4817400000000  0.4807820000000  0.4881530000000 1.0
C      1  0.5419050000000  0.4702440000000  0.4232190000000 1.0
C      1  0.5717220000000  0.4895850000000  0.4541840000000 1.0
C      1  0.4302700000000  0.4512230000000  0.5392420000000 1.0
C      1  0.5323350000000  0.5141760000000  0.4377270000000 1.0
C      1  0.4985380000000  0.4051310000000  0.4830870000000 1.0
C      1  0.5761350000000  0.4661020000000  0.5423520000000 1.0
C      1  0.4659660000000  0.4439500000000  0.5141870000000 1.0
C      1  0.4323010000000  0.5496420000000  0.5583220000000 1.0
C      1  0.4754690000000  0.4390380000000  0.4208520000000 1.0
C      1  0.4230680000000  0.5294460000000  0.5376400000000 1.0
C      1  0.5596710000000  0.4425290000000  0.4946860000000 1.0
C      1  0.4896140000000  0.5616820000000  0.5000680000000 1.0
C      1  0.4677380000000  0.5164670000000  0.6003640000000 1.0
C      1  0.5394680000000  0.4573130000000  0.5904460000000 1.0
C      1  0.4796110000000  0.5973410000000  0.4904050000000 1.0
C      1  0.4376800000000  0.4716130000000  0.4345930000000 1.0
C      1  0.4477360000000  0.5617710000000  0.4380170000000 1.0
C      1  0.5080490000000  0.5360340000000  0.4038710000000 1.0
C      1  0.4897940000000  0.5741160000000  0.4457770000000 1.0
C      1  0.4342700000000  0.5770370000000  0.5505250000000 1.0
C      1  0.4203810000000  0.4671230000000  0.4895050000000 1.0
C      1  0.4305310000000  0.4489850000000  0.4509160000000 1.0
C      1  0.5394440000000  0.4910690000000  0.3992840000000 1.0
C      1  0.5581610000000  0.5241090000000  0.4224890000000 1.0
C      1  0.4772050000000  0.5172460000000  0.4524670000000 1.0
C      1  0.5139980000000  0.4612910000000  0.4200830000000 1.0
C      1  0.5188180000000  0.5275090000000  0.4826240000000 1.0
C      1  0.5110260000000  0.5308150000000  0.4552750000000 1.0
C      1  0.4541340000000  0.4526280000000  0.5557130000000 1.0
C      1  0.5372580000000  0.4327160000000  0.4759260000000 1.0
C      1  0.4130780000000  0.5062420000000  0.4672150000000 1.0
C      1  0.4434670000000  0.5030510000000  0.5091360000000 1.0
C      1  0.5164320000000  0.5610050000000  0.4462630000000 1.0
C      1  0.4585530000000  0.4899000000000  0.5902680000000 1.0
C      1  0.5500920000000  0.5856660000000  0.5185370000000 1.0
C      1  0.5335380000000  0.4864300000000  0.4957040000000 1.0
C      1  0.5187810000000  0.5798290000000  0.5639800000000 1.0
C      1  0.4295120000000  0.5027550000000  0.5498160000000 1.0
C      1  0.5782170000000  0.5397180000000  0.4601200000000 1.0
C      1  0.4587980000000  0.5170320000000  0.4052750000000 1.0
C      1  0.5746300000000  0.5334250000000  0.5541970000000 1.0
C      1  0.5500200000000  0.5780910000000  0.4697810000000 1.0
C      1  0.5115750000000  0.5401410000000  0.5953860000000 1.0
C      1  0.4992560000000  0.4682810000000  0.5552190000000 1.0
C      1  0.4084200000000  0.4537310000000  0.4676520000000 1.0
C      1  0.4935810000000  0.4400070000000  0.5696900000000 1.0
C      1  0.5609650000000  0.5604240000000  0.4496730000000 1.0
C      1  0.4774830000000  0.3921260000000  0.4992670000000 1.0
C      1  0.5421960000000  0.4881190000000  0.4478530000000 1.0
C      1  0.5357870000000  0.4092310000000  0.5182090000000 1.0
C      1  0.5453700000000  0.4256210000000  0.4474720000000 1.0
C      1  0.5940380000000  0.4707970000000  0.5183870000000 1.0
C      1  0.5429330000000  0.5124010000000  0.4879680000000 1.0
C      1  0.5720720000000  0.5130030000000  0.5311750000000 1.0
C      1  0.5104950000000  0.4500890000000  0.4723520000000 1.0
C      1  0.4971320000000  0.5165940000000  0.6044220000000 1.0
C      1  0.4798800000000  0.5996620000000  0.5425070000000 1.0
C      1  0.5670790000000  0.5612530000000  0.5512050000000 1.0
C      1  0.4709030000000  0.4756450000000  0.5449570000000 1.0
C      1  0.4013360000000  0.4773770000000  0.5096210000000 1.0
C      1  0.5177540000000  0.4162440000000  0.4351410000000 1.0
C      1  0.5106440000000  0.6016220000000  0.4909960000000 1.0
C      1  0.4741750000000  0.4503680000000  0.4864580000000 1.0
C      1  0.5755340000000  0.4915510000000  0.4832410000000 1.0
C      1  0.5650110000000  0.5793850000000  0.4949840000000 1.0
C      1  0.5480390000000  0.4354170000000  0.5720510000000 1.0
C      1  0.5054050000000  0.4343280000000  0.4140130000000 1.0
C      1  0.5233540000000  0.5967390000000  0.5173620000000 1.0
C      1  0.5601510000000  0.5099010000000  0.3969110000000 1.0
C      1  0.4544330000000  0.4520070000000  0.5849390000000 1.0
C      1  0.5072100000000  0.5946720000000  0.5417400000000 1.0
C      1  0.5520850000000  0.5245110000000  0.5703670000000 1.0
C      1  0.5157940000000  0.5083390000000  0.4138300000000 1.0
C      1  0.4022210000000  0.5277960000000  0.5064780000000 1.0
C      1  0.5630780000000  0.4397670000000  0.5455820000000 1.0
C      1  0.5613590000000  0.4474860000000  0.4333000000000 1.0
C      1  0.5830060000000  0.5379730000000  0.4897710000000 1.0
C      1  0.5812890000000  0.4611160000000  0.4505720000000 1.0
C      1  0.4216720000000  0.4793170000000  0.5320000000000 1.0
C      1  0.4583680000000  0.4988640000000  0.5606150000000 1.0
C      1  0.4845860000000  0.5192990000000  0.5241260000000 1.0
C      1  0.4448750000000  0.4031490000000  0.5317180000000 1.0
C      1  0.5247250000000  0.5913020000000  0.4672580000000 1.0
C      1  0.5170840000000  0.5500740000000  0.4993210000000 1.0
C      1  0.4366510000000  0.5776870000000  0.4720290000000 1.0
C      1  0.4229680000000  0.4978410000000  0.4372230000000 1.0
C      1  0.5584660000000  0.5286830000000  0.5082590000000 1.0
C      1  0.4730640000000  0.4008030000000  0.5278140000000 1.0
C      1  0.5012310000000  0.5610520000000  0.5787410000000 1.0
C      1  0.5144020000000  0.4600350000000  0.5316330000000 1.0
C      1  0.5605680000000  0.4256880000000  0.5190150000000 1.0
C      1  0.5473610000000  0.5763270000000  0.5643170000000 1.0
C      1  0.4475330000000  0.5992710000000  0.4907370000000 1.0
C      1  0.5323020000000  0.4816200000000  0.5237240000000 1.0
C      1  0.4528030000000  0.4346190000000  0.4658960000000 1.0
C      1  0.4722250000000  0.5427540000000  0.5139360000000 1.0
C      1  0.4363650000000  0.4921430000000  0.4819470000000 1.0
C      1  0.5241320000000  0.5588990000000  0.4168610000000 1.0
C      1  0.4717660000000  0.4935280000000  0.5158200000000 1.0
C      1  0.5981330000000  0.5110920000000  0.4924180000000 1.0
C      1  0.4674720000000  0.4893510000000  0.3997170000000 1.0
C      1  0.4523600000000  0.3903320000000  0.4859720000000 1.0
C      1  0.4610350000000  0.4667730000000  0.4176640000000 1.0
C      1  0.4372220000000  0.5467380000000  0.4790650000000 1.0
C      1  0.5347180000000  0.4111850000000  0.5773040000000 1.0
C      1  0.4399550000000  0.4273300000000  0.5149810000000 1.0
C      1  0.5385810000000  0.5491950000000  0.5210470000000 1.0
C      1  0.5823440000000  0.4617480000000  0.4895310000000 1.0
C      1  0.4372800000000  0.5975350000000  0.5174020000000 1.0
C      1  0.5109500000000  0.4797540000000  0.4770730000000 1.0
C      1  0.5107790000000  0.4636810000000  0.6023500000000 1.0
C      1  0.4558800000000  0.5874900000000  0.5356730000000 1.0
C      1  0.3911810000000  0.5019960000000  0.4989190000000 1.0
C      1  0.5067820000000  0.5206060000000  0.5620900000000 1.0
END
