TITL C-950527-2551-568 -2.65141804445086e-06 125000 -714.576076474249 0 0 116 (C1) n - 1
REM
REM in /home/bkarasulu/work/CARBON/AIRSS/Generating-Clusters/EDIP-Nigel-Params/with-SteepDescent/Only-C1/SD-CG/HFTN-CG
REM
REM
REM
REM
REM
REM ./C.cell (11c1c37f851c82e70ff6c80c92926a4b)
REM
REM compiler GCC version 9.2.1 20190827 (Red Hat 9.2.1-1)
REM options -cpp -mtune=generic -march=x86-64 -g -O0 -fpre-include=/usr/include/finclude/math-vector-fortran.h
REM seed -1339238955 763015833 -1670008761 991730673 -1490750818 100157201 -1082625822 771815210 -1423177317 611453548 1080716060 -497215902 -1531632120 1371365952 636899982 53683910 -2025989730 -1445338872 1595336003 645277596 -1679428285 -1705626021 2091362581 -1752969273 -1349592514 -1921363440 -719306390 1126389801 -1597196748 1738055718 1390584452 769901770 -1470123766
REM
CELL 1.54180   50.00000   50.00000   50.00000   90.00000   90.00000   90.00000
LATT -1
SFAC C  
C      1  0.4156100000000  0.4749650000000  0.4453110000000 1.0
C      1  0.5396050000000  0.4314780000000  0.5628240000000 1.0
C      1  0.5381350000000  0.4362880000000  0.4423460000000 1.0
C      1  0.5840260000000  0.5225760000000  0.4741570000000 1.0
C      1  0.5848570000000  0.5190590000000  0.5030460000000 1.0
C      1  0.4718210000000  0.5220920000000  0.4289670000000 1.0
C      1  0.4590740000000  0.4591510000000  0.4285230000000 1.0
C      1  0.4982400000000  0.5219890000000  0.5359540000000 1.0
C      1  0.5554860000000  0.4397550000000  0.5414540000000 1.0
C      1  0.4581450000000  0.4372760000000  0.4484790000000 1.0
C      1  0.4669020000000  0.5505890000000  0.5122900000000 1.0
C      1  0.5171780000000  0.5974560000000  0.4949050000000 1.0
C      1  0.4299940000000  0.5254600000000  0.4693360000000 1.0
C      1  0.6009780000000  0.4784750000000  0.4863910000000 1.0
C      1  0.4415390000000  0.5835540000000  0.5367430000000 1.0
C      1  0.4341650000000  0.4375830000000  0.5211570000000 1.0
C      1  0.4654370000000  0.5488580000000  0.4411920000000 1.0
C      1  0.4724230000000  0.5221570000000  0.5213930000000 1.0
C      1  0.4655910000000  0.5653940000000  0.5748450000000 1.0
C      1  0.4456220000000  0.5489370000000  0.4626820000000 1.0
C      1  0.4626530000000  0.4939050000000  0.5643630000000 1.0
C      1  0.5212650000000  0.4764050000000  0.4612760000000 1.0
C      1  0.4617860000000  0.4937790000000  0.5130370000000 1.0
C      1  0.4201700000000  0.4618010000000  0.4703370000000 1.0
C      1  0.4186950000000  0.4616160000000  0.5197390000000 1.0
C      1  0.4761410000000  0.5556350000000  0.4832600000000 1.0
C      1  0.4943190000000  0.4312630000000  0.5455690000000 1.0
C      1  0.4217150000000  0.4746420000000  0.5457510000000 1.0
C      1  0.4476690000000  0.4288840000000  0.4973130000000 1.0
C      1  0.5806590000000  0.5441860000000  0.5174300000000 1.0
C      1  0.5803150000000  0.5662360000000  0.4996680000000 1.0
C      1  0.4000010000000  0.4999840000000  0.4937260000000 1.0
C      1  0.5542410000000  0.5067830000000  0.5746490000000 1.0
C      1  0.4870620000000  0.5493870000000  0.5833830000000 1.0
C      1  0.5249160000000  0.4116520000000  0.5096870000000 1.0
C      1  0.5449940000000  0.4835420000000  0.5628480000000 1.0
C      1  0.4909980000000  0.4699730000000  0.4571750000000 1.0
C      1  0.5382550000000  0.5780340000000  0.5054090000000 1.0
C      1  0.4837510000000  0.4656770000000  0.4165600000000 1.0
C      1  0.5965010000000  0.4931620000000  0.5117340000000 1.0
C      1  0.4339170000000  0.4541220000000  0.5648830000000 1.0
C      1  0.5080320000000  0.5513120000000  0.4204330000000 1.0
C      1  0.5577480000000  0.5522660000000  0.5617490000000 1.0
C      1  0.5313050000000  0.5658000000000  0.4767260000000 1.0
C      1  0.4466780000000  0.5059480000000  0.4238280000000 1.0
C      1  0.5148530000000  0.4074240000000  0.4735860000000 1.0
C      1  0.4413820000000  0.4977180000000  0.5420030000000 1.0
C      1  0.5385170000000  0.5457440000000  0.4198080000000 1.0
C      1  0.4873700000000  0.4375500000000  0.4558440000000 1.0
C      1  0.5570970000000  0.5529750000000  0.4430900000000 1.0
C      1  0.5072790000000  0.5458040000000  0.4759710000000 1.0
C      1  0.5779420000000  0.4884980000000  0.4374220000000 1.0
C      1  0.5613070000000  0.4688010000000  0.5429060000000 1.0
C      1  0.4920910000000  0.5289450000000  0.4066510000000 1.0
C      1  0.4902310000000  0.5662460000000  0.4406950000000 1.0
C      1  0.5402380000000  0.5171710000000  0.4099060000000 1.0
C      1  0.5122320000000  0.5072270000000  0.4024080000000 1.0
C      1  0.4457210000000  0.5113850000000  0.5931610000000 1.0
C      1  0.4775100000000  0.5856020000000  0.4824990000000 1.0
C      1  0.5590610000000  0.5793630000000  0.4538950000000 1.0
C      1  0.4709020000000  0.4495180000000  0.5424530000000 1.0
C      1  0.4366980000000  0.4779170000000  0.4249240000000 1.0
C      1  0.5468780000000  0.4266510000000  0.5182560000000 1.0
C      1  0.4640410000000  0.4882600000000  0.4790800000000 1.0
C      1  0.5372100000000  0.4527950000000  0.4690460000000 1.0
C      1  0.4409870000000  0.4994520000000  0.4610180000000 1.0
C      1  0.5066400000000  0.4820400000000  0.4173550000000 1.0
C      1  0.5351050000000  0.5631590000000  0.5323560000000 1.0
C      1  0.6009390000000  0.4488550000000  0.4844990000000 1.0
C      1  0.4775290000000  0.4820190000000  0.6108590000000 1.0
C      1  0.5730270000000  0.5807740000000  0.4779140000000 1.0
C      1  0.4907230000000  0.5084800000000  0.4487660000000 1.0
C      1  0.4625090000000  0.4643120000000  0.5692700000000 1.0
C      1  0.4851280000000  0.5696280000000  0.5277840000000 1.0
C      1  0.4068600000000  0.5245740000000  0.4848980000000 1.0
C      1  0.4395010000000  0.5593640000000  0.5839610000000 1.0
C      1  0.4279310000000  0.5234280000000  0.5492550000000 1.0
C      1  0.5309540000000  0.4737940000000  0.4314210000000 1.0
C      1  0.5661430000000  0.4228870000000  0.4438010000000 1.0
C      1  0.4905510000000  0.5927740000000  0.5081160000000 1.0
C      1  0.4717780000000  0.4134060000000  0.4995470000000 1.0
C      1  0.5153470000000  0.4179160000000  0.4452600000000 1.0
C      1  0.5579070000000  0.5327940000000  0.4644030000000 1.0
C      1  0.5154640000000  0.5042210000000  0.5186630000000 1.0
C      1  0.5054870000000  0.4541220000000  0.5875770000000 1.0
C      1  0.5148760000000  0.4790950000000  0.5610230000000 1.0
C      1  0.5133490000000  0.5283240000000  0.4512650000000 1.0
C      1  0.5385210000000  0.5112840000000  0.4570810000000 1.0
C      1  0.4360350000000  0.5324020000000  0.5759160000000 1.0
C      1  0.5556820000000  0.5327300000000  0.5807620000000 1.0
C      1  0.5857920000000  0.4793030000000  0.5336820000000 1.0
C      1  0.4785010000000  0.4595830000000  0.5942950000000 1.0
C      1  0.4997790000000  0.4122970000000  0.5242630000000 1.0
C      1  0.4393530000000  0.5612480000000  0.5193430000000 1.0
C      1  0.5573240000000  0.5421830000000  0.5350630000000 1.0
C      1  0.5071620000000  0.5049440000000  0.4920690000000 1.0
C      1  0.4930940000000  0.5222900000000  0.5879490000000 1.0
C      1  0.4666340000000  0.5792280000000  0.5491740000000 1.0
C      1  0.5493180000000  0.4982560000000  0.4319810000000 1.0
C      1  0.4922970000000  0.4237910000000  0.4823440000000 1.0
C      1  0.5125940000000  0.4353550000000  0.5675540000000 1.0
C      1  0.5083470000000  0.4782980000000  0.5307260000000 1.0
C      1  0.5821810000000  0.4300720000000  0.4698030000000 1.0
C      1  0.5075210000000  0.5518960000000  0.5371060000000 1.0
C      1  0.4385210000000  0.4300730000000  0.5483000000000 1.0
C      1  0.4413930000000  0.4420920000000  0.4720500000000 1.0
C      1  0.4223670000000  0.5418800000000  0.5293570000000 1.0
C      1  0.4929970000000  0.5052230000000  0.5628900000000 1.0
C      1  0.5752330000000  0.4599370000000  0.4378430000000 1.0
C      1  0.4121430000000  0.4750060000000  0.4947900000000 1.0
C      1  0.4838440000000  0.5084300000000  0.4770240000000 1.0
C      1  0.4801870000000  0.4720960000000  0.5246180000000 1.0
C      1  0.4722820000000  0.5089810000000  0.6049140000000 1.0
C      1  0.5667000000000  0.4585310000000  0.4677800000000 1.0
C      1  0.5895860000000  0.4959740000000  0.4641530000000 1.0
C      1  0.4987090000000  0.5865200000000  0.4620310000000 1.0
END
