TITL C-950534-5965-217 -7.12246452431348e-08 125000 -1206.01885224948 0 0 194 (C1) n - 1
REM
REM in /home/bkarasulu/work/CARBON/AIRSS/Generating-Clusters/EDIP-Nigel-Params/with-SteepDescent/Only-C1/SD-CG/HFTN-CG
REM
REM
REM
REM
REM
REM ./C.cell (11c1c37f851c82e70ff6c80c92926a4b)
REM
REM compiler GCC version 9.2.1 20190827 (Red Hat 9.2.1-1)
REM options -cpp -mtune=generic -march=x86-64 -g -O0 -fpre-include=/usr/include/finclude/math-vector-fortran.h
REM seed -1448647586 -884427122 734839577 -218081799 -947012471 369338826 1432756625 860879575 532364421 -1742576870 -171925991 644344434 -1704805102 1747729799 2048598928 1858481583 -796328810 953226421 -1290192832 1725708802 85761657 -75810212 1822482309 -2102632297 1715171333 -708517735 -562419655 881310041 -2066429356 -471898687 -1514909348 -320401464 1007630056
REM
CELL 1.54180   50.00000   50.00000   50.00000   90.00000   90.00000   90.00000
LATT -1
SFAC C  
C      1  0.4562850000000  0.3988680000000  0.5427220000000 1.0
C      1  0.5776470000000  0.4426510000000  0.4352340000000 1.0
C      1  0.5797550000000  0.4300810000000  0.4805950000000 1.0
C      1  0.5399470000000  0.4551850000000  0.4051620000000 1.0
C      1  0.5236800000000  0.3952410000000  0.4944920000000 1.0
C      1  0.4672190000000  0.5499220000000  0.5595810000000 1.0
C      1  0.4352170000000  0.5285420000000  0.5811950000000 1.0
C      1  0.5019850000000  0.5372850000000  0.4409070000000 1.0
C      1  0.4640620000000  0.5268650000000  0.4083890000000 1.0
C      1  0.4305010000000  0.4956330000000  0.4213140000000 1.0
C      1  0.5253720000000  0.4953710000000  0.5137740000000 1.0
C      1  0.5250750000000  0.5774420000000  0.5937560000000 1.0
C      1  0.5499100000000  0.5126160000000  0.5945870000000 1.0
C      1  0.4902280000000  0.4270290000000  0.5514540000000 1.0
C      1  0.4765480000000  0.6103950000000  0.4845310000000 1.0
C      1  0.5943690000000  0.4218130000000  0.5052700000000 1.0
C      1  0.4546600000000  0.4108040000000  0.4404270000000 1.0
C      1  0.5188180000000  0.4906040000000  0.5722750000000 1.0
C      1  0.4972470000000  0.5766650000000  0.5915970000000 1.0
C      1  0.5481110000000  0.6048400000000  0.4913880000000 1.0
C      1  0.5979120000000  0.4515710000000  0.5482430000000 1.0
C      1  0.4720960000000  0.5740030000000  0.5154590000000 1.0
C      1  0.4071050000000  0.5627600000000  0.5226150000000 1.0
C      1  0.6039030000000  0.4782950000000  0.4610870000000 1.0
C      1  0.5626300000000  0.4182580000000  0.4396310000000 1.0
C      1  0.3922790000000  0.5384270000000  0.5293960000000 1.0
C      1  0.5503240000000  0.5005850000000  0.4010510000000 1.0
C      1  0.3981160000000  0.5231280000000  0.5522220000000 1.0
C      1  0.4917900000000  0.4354910000000  0.5007250000000 1.0
C      1  0.5161350000000  0.4197060000000  0.5110930000000 1.0
C      1  0.4531990000000  0.6123030000000  0.5033920000000 1.0
C      1  0.4832130000000  0.5853910000000  0.4362270000000 1.0
C      1  0.4047930000000  0.4924670000000  0.4630870000000 1.0
C      1  0.4429120000000  0.5780610000000  0.4732830000000 1.0
C      1  0.4446240000000  0.4430620000000  0.5282670000000 1.0
C      1  0.6061860000000  0.4851320000000  0.4901290000000 1.0
C      1  0.4532240000000  0.4576050000000  0.4534790000000 1.0
C      1  0.4420370000000  0.5296340000000  0.4787180000000 1.0
C      1  0.5633760000000  0.4762340000000  0.5920110000000 1.0
C      1  0.5380100000000  0.5651190000000  0.5495380000000 1.0
C      1  0.4260630000000  0.4291380000000  0.4909400000000 1.0
C      1  0.5340540000000  0.5169870000000  0.5368510000000 1.0
C      1  0.4399970000000  0.5389320000000  0.4212220000000 1.0
C      1  0.5882810000000  0.5326350000000  0.4893660000000 1.0
C      1  0.4664860000000  0.4297670000000  0.4604690000000 1.0
C      1  0.4526440000000  0.4998340000000  0.3995290000000 1.0
C      1  0.4738950000000  0.4059150000000  0.5641180000000 1.0
C      1  0.5411840000000  0.5806550000000  0.4286010000000 1.0
C      1  0.5676450000000  0.4072020000000  0.4660320000000 1.0
C      1  0.5958190000000  0.5567610000000  0.5083500000000 1.0
C      1  0.4656340000000  0.3855410000000  0.4501480000000 1.0
C      1  0.4539790000000  0.4169690000000  0.4868050000000 1.0
C      1  0.4625340000000  0.5771000000000  0.4170010000000 1.0
C      1  0.4745770000000  0.5842600000000  0.4673690000000 1.0
C      1  0.4945220000000  0.4719860000000  0.4654310000000 1.0
C      1  0.4908140000000  0.4727160000000  0.6346470000000 1.0
C      1  0.5542940000000  0.4741800000000  0.5420570000000 1.0
C      1  0.4640040000000  0.4802910000000  0.4721430000000 1.0
C      1  0.4691730000000  0.4013740000000  0.5166380000000 1.0
C      1  0.4037790000000  0.5584260000000  0.4638460000000 1.0
C      1  0.5220560000000  0.5269430000000  0.5973600000000 1.0
C      1  0.5281460000000  0.4307780000000  0.4144360000000 1.0
C      1  0.5941770000000  0.4661080000000  0.5066460000000 1.0
C      1  0.4785610000000  0.4429030000000  0.5947600000000 1.0
C      1  0.4711760000000  0.4825670000000  0.3863710000000 1.0
C      1  0.4396500000000  0.5564200000000  0.5692440000000 1.0
C      1  0.4753400000000  0.5140090000000  0.5689280000000 1.0
C      1  0.4513700000000  0.5549300000000  0.5183300000000 1.0
C      1  0.4113500000000  0.4436220000000  0.4702770000000 1.0
C      1  0.4767820000000  0.4465960000000  0.5249230000000 1.0
C      1  0.4039580000000  0.5736180000000  0.4933100000000 1.0
C      1  0.4335060000000  0.5694760000000  0.5390830000000 1.0
C      1  0.4773430000000  0.4684840000000  0.6103620000000 1.0
C      1  0.5532730000000  0.4463050000000  0.4867740000000 1.0
C      1  0.4818930000000  0.4388060000000  0.3984180000000 1.0
C      1  0.5410470000000  0.6072790000000  0.5198000000000 1.0
C      1  0.5204990000000  0.4770160000000  0.3968180000000 1.0
C      1  0.4749580000000  0.4787250000000  0.5236670000000 1.0
C      1  0.5177750000000  0.5343990000000  0.3945770000000 1.0
C      1  0.4629290000000  0.5294500000000  0.5294110000000 1.0
C      1  0.4246370000000  0.4809940000000  0.5613540000000 1.0
C      1  0.5951660000000  0.4481890000000  0.4583810000000 1.0
C      1  0.5009300000000  0.3807490000000  0.4819650000000 1.0
C      1  0.5777960000000  0.5205290000000  0.5769450000000 1.0
C      1  0.4823170000000  0.5595220000000  0.6076760000000 1.0
C      1  0.4499910000000  0.4799960000000  0.5043390000000 1.0
C      1  0.5099370000000  0.6035670000000  0.5235580000000 1.0
C      1  0.4113480000000  0.4273820000000  0.5150850000000 1.0
C      1  0.5008550000000  0.4442810000000  0.5738420000000 1.0
C      1  0.5888730000000  0.5818430000000  0.4983100000000 1.0
C      1  0.4854970000000  0.5148340000000  0.4296960000000 1.0
C      1  0.5319280000000  0.6145940000000  0.4703390000000 1.0
C      1  0.4978240000000  0.4229400000000  0.4534130000000 1.0
C      1  0.5426550000000  0.5493810000000  0.5030010000000 1.0
C      1  0.5013380000000  0.5696990000000  0.5198630000000 1.0
C      1  0.5288140000000  0.4443420000000  0.4650670000000 1.0
C      1  0.5288760000000  0.5917130000000  0.4534750000000 1.0
C      1  0.5576340000000  0.4496420000000  0.5813000000000 1.0
C      1  0.4385200000000  0.5116000000000  0.5326400000000 1.0
C      1  0.5032520000000  0.5581020000000  0.3978710000000 1.0
C      1  0.4255980000000  0.4691310000000  0.5330580000000 1.0
C      1  0.6051160000000  0.4438390000000  0.5194360000000 1.0
C      1  0.4745910000000  0.3794740000000  0.4977000000000 1.0
C      1  0.4950290000000  0.3917520000000  0.4545220000000 1.0
C      1  0.5795990000000  0.5811420000000  0.5512280000000 1.0
C      1  0.4205840000000  0.5215190000000  0.4312960000000 1.0
C      1  0.5042330000000  0.5218850000000  0.6212430000000 1.0
C      1  0.4852630000000  0.6015430000000  0.5471560000000 1.0
C      1  0.4950900000000  0.5599420000000  0.4766810000000 1.0
C      1  0.5738780000000  0.4902090000000  0.4144820000000 1.0
C      1  0.4501910000000  0.4728060000000  0.5739790000000 1.0
C      1  0.5967550000000  0.4829730000000  0.5522730000000 1.0
C      1  0.5053790000000  0.5169290000000  0.5733580000000 1.0
C      1  0.5662820000000  0.4618050000000  0.4159460000000 1.0
C      1  0.5836500000000  0.5562120000000  0.4439020000000 1.0
C      1  0.5250240000000  0.4970460000000  0.4621010000000 1.0
C      1  0.5420170000000  0.5002740000000  0.4880130000000 1.0
C      1  0.4598830000000  0.5154210000000  0.5948730000000 1.0
C      1  0.5242400000000  0.5657910000000  0.4665190000000 1.0
C      1  0.4166240000000  0.5057930000000  0.5118700000000 1.0
C      1  0.4425360000000  0.4256550000000  0.5531090000000 1.0
C      1  0.5351590000000  0.5215790000000  0.4126100000000 1.0
C      1  0.5649990000000  0.4794260000000  0.4561760000000 1.0
C      1  0.5998650000000  0.5097090000000  0.5041030000000 1.0
C      1  0.5970070000000  0.5069170000000  0.5336380000000 1.0
C      1  0.4531270000000  0.4475120000000  0.4066390000000 1.0
C      1  0.5122300000000  0.4120270000000  0.5394730000000 1.0
C      1  0.5616260000000  0.5789400000000  0.4863990000000 1.0
C      1  0.5723530000000  0.5783660000000  0.5788040000000 1.0
C      1  0.5039250000000  0.4961330000000  0.6324370000000 1.0
C      1  0.4307930000000  0.6003410000000  0.4889420000000 1.0
C      1  0.5559730000000  0.4272400000000  0.5370120000000 1.0
C      1  0.3792520000000  0.4956200000000  0.5172480000000 1.0
C      1  0.4248730000000  0.4515190000000  0.4450690000000 1.0
C      1  0.5460360000000  0.5687540000000  0.5772950000000 1.0
C      1  0.4309820000000  0.4325130000000  0.4210710000000 1.0
C      1  0.5671820000000  0.4497440000000  0.5529930000000 1.0
C      1  0.5431520000000  0.5433870000000  0.4569770000000 1.0
C      1  0.5105150000000  0.5300190000000  0.5478490000000 1.0
C      1  0.5630070000000  0.4765190000000  0.4861750000000 1.0
C      1  0.4847560000000  0.5230640000000  0.5057590000000 1.0
C      1  0.5847820000000  0.4914790000000  0.5783790000000 1.0
C      1  0.4957570000000  0.4958800000000  0.5094320000000 1.0
C      1  0.4532040000000  0.4429710000000  0.5774690000000 1.0
C      1  0.5563680000000  0.5550770000000  0.4322080000000 1.0
C      1  0.4722570000000  0.5076510000000  0.4558440000000 1.0
C      1  0.4046130000000  0.5292190000000  0.4551810000000 1.0
C      1  0.5365140000000  0.4147390000000  0.5552940000000 1.0
C      1  0.4988530000000  0.6156300000000  0.5001990000000 1.0
C      1  0.5273930000000  0.5226850000000  0.4427520000000 1.0
C      1  0.4772930000000  0.5328380000000  0.6146640000000 1.0
C      1  0.5797240000000  0.5792900000000  0.4612960000000 1.0
C      1  0.5333950000000  0.4677770000000  0.5240100000000 1.0
C      1  0.5060290000000  0.5656300000000  0.4267920000000 1.0
C      1  0.4535830000000  0.3863070000000  0.4776900000000 1.0
C      1  0.5871980000000  0.5291910000000  0.5494310000000 1.0
C      1  0.4177180000000  0.5755280000000  0.4445520000000 1.0
C      1  0.4884750000000  0.5743110000000  0.5635280000000 1.0
C      1  0.4553960000000  0.4858580000000  0.6007960000000 1.0
C      1  0.5455200000000  0.4974390000000  0.5589830000000 1.0
C      1  0.5471780000000  0.3944400000000  0.4794890000000 1.0
C      1  0.5495170000000  0.5428220000000  0.5312340000000 1.0
C      1  0.5556930000000  0.5292990000000  0.4849600000000 1.0
C      1  0.5320740000000  0.4319770000000  0.5802810000000 1.0
C      1  0.5627610000000  0.5990150000000  0.5363830000000 1.0
C      1  0.5906880000000  0.5562390000000  0.5377290000000 1.0
C      1  0.4235530000000  0.5113840000000  0.5585920000000 1.0
C      1  0.3960250000000  0.4674820000000  0.4787210000000 1.0
C      1  0.5094240000000  0.5593850000000  0.5467780000000 1.0
C      1  0.4373260000000  0.5540040000000  0.4921680000000 1.0
C      1  0.5438000000000  0.4086300000000  0.4215920000000 1.0
C      1  0.4638820000000  0.4671090000000  0.4271120000000 1.0
C      1  0.4144970000000  0.4781430000000  0.4380630000000 1.0
C      1  0.5912070000000  0.5307700000000  0.4581650000000 1.0
C      1  0.5353230000000  0.4707690000000  0.4460320000000 1.0
C      1  0.4593310000000  0.5969560000000  0.5300500000000 1.0
C      1  0.5085430000000  0.5466320000000  0.5029440000000 1.0
C      1  0.4738850000000  0.5557800000000  0.3976580000000 1.0
C      1  0.5311250000000  0.4160720000000  0.6023760000000 1.0
C      1  0.4407670000000  0.5647010000000  0.4313720000000 1.0
C      1  0.4734760000000  0.4848600000000  0.5566850000000 1.0
C      1  0.5067800000000  0.4534120000000  0.4834610000000 1.0
C      1  0.4283520000000  0.5033310000000  0.4840390000000 1.0
C      1  0.3820220000000  0.5222730000000  0.5086360000000 1.0
C      1  0.5003450000000  0.4345920000000  0.4238160000000 1.0
C      1  0.4011130000000  0.4521030000000  0.5266420000000 1.0
C      1  0.4715260000000  0.5286590000000  0.4767050000000 1.0
C      1  0.5401410000000  0.4398120000000  0.5139710000000 1.0
C      1  0.3897880000000  0.4709930000000  0.5070690000000 1.0
C      1  0.5086030000000  0.4875370000000  0.4227640000000 1.0
C      1  0.5885270000000  0.5024820000000  0.4429000000000 1.0
C      1  0.4930820000000  0.4643410000000  0.4341470000000 1.0
C      1  0.4931550000000  0.4643670000000  0.3856370000000 1.0
C      1  0.5001940000000  0.4715760000000  0.5624340000000 1.0
END
