TITL C-951337-3020-168 -3.10322898094125e-06 125000 -1109.20211988869 0 0 178 (C1) n - 1
REM
REM in /home/bkarasulu/work/CARBON/AIRSS/Generating-Clusters/EDIP-Nigel-Params/with-SteepDescent/Only-C1/SD-CG/HFTN-CG
REM
REM
REM
REM
REM
REM ./C.cell (11c1c37f851c82e70ff6c80c92926a4b)
REM
REM compiler GCC version 9.2.1 20190827 (Red Hat 9.2.1-1)
REM options -cpp -mtune=generic -march=x86-64 -g -O0 -fpre-include=/usr/include/finclude/math-vector-fortran.h
REM seed -1220113582 -373526480 457790250 2049908672 -1939419755 873735006 107653307 327097548 -1553473315 -965464375 -183443305 -225441040 -41325713 -1652030237 -1281082087 135501438 -812436104 1034312524 1029827405 55559801 -363287199 -364242426 -1425435350 1118563675 -811866533 -2047353466 352962411 -2066631159 1399081648 1478256700 1190676692 -130201488 1653835623
REM
CELL 1.54180   50.00000   50.00000   50.00000   90.00000   90.00000   90.00000
LATT -1
SFAC C  
C      1  0.4531860000000  0.4691810000000  0.5992730000000 1.0
C      1  0.4490990000000  0.5453450000000  0.5808100000000 1.0
C      1  0.4238100000000  0.5278520000000  0.4764560000000 1.0
C      1  0.4255240000000  0.4884660000000  0.4527310000000 1.0
C      1  0.4528190000000  0.6014970000000  0.4876340000000 1.0
C      1  0.4437820000000  0.4392930000000  0.4467270000000 1.0
C      1  0.4853590000000  0.4624560000000  0.4340340000000 1.0
C      1  0.4587140000000  0.5921770000000  0.5417650000000 1.0
C      1  0.4648910000000  0.4297960000000  0.5831440000000 1.0
C      1  0.4082400000000  0.4573990000000  0.5468580000000 1.0
C      1  0.5363490000000  0.6061580000000  0.4508020000000 1.0
C      1  0.5366750000000  0.5139990000000  0.3881170000000 1.0
C      1  0.4248050000000  0.5681590000000  0.5076490000000 1.0
C      1  0.4612240000000  0.4330760000000  0.5519480000000 1.0
C      1  0.4750000000000  0.4826990000000  0.4541610000000 1.0
C      1  0.3742930000000  0.4751960000000  0.4825050000000 1.0
C      1  0.4540910000000  0.4201450000000  0.4647490000000 1.0
C      1  0.5522400000000  0.4467920000000  0.4987730000000 1.0
C      1  0.5306610000000  0.4100820000000  0.4858470000000 1.0
C      1  0.5482280000000  0.4081490000000  0.5540690000000 1.0
C      1  0.5845210000000  0.5730950000000  0.5141600000000 1.0
C      1  0.6143860000000  0.4959030000000  0.5367620000000 1.0
C      1  0.4736150000000  0.6142350000000  0.5292980000000 1.0
C      1  0.5182060000000  0.5598500000000  0.4000970000000 1.0
C      1  0.4986900000000  0.4004780000000  0.5561800000000 1.0
C      1  0.5462190000000  0.4702870000000  0.5407240000000 1.0
C      1  0.4991650000000  0.5809150000000  0.4664980000000 1.0
C      1  0.4490520000000  0.4727790000000  0.4645300000000 1.0
C      1  0.5579050000000  0.5322550000000  0.5847010000000 1.0
C      1  0.4239140000000  0.4807200000000  0.4032000000000 1.0
C      1  0.5843960000000  0.4284370000000  0.5391150000000 1.0
C      1  0.5023630000000  0.4800750000000  0.4789680000000 1.0
C      1  0.4333490000000  0.5106670000000  0.4337840000000 1.0
C      1  0.5006910000000  0.3780460000000  0.5366520000000 1.0
C      1  0.3837480000000  0.5183340000000  0.5056850000000 1.0
C      1  0.5601870000000  0.5824590000000  0.5281940000000 1.0
C      1  0.4381510000000  0.5566920000000  0.4395300000000 1.0
C      1  0.5289860000000  0.5281880000000  0.5310150000000 1.0
C      1  0.5104170000000  0.4283770000000  0.4733690000000 1.0
C      1  0.5179280000000  0.4984620000000  0.4390670000000 1.0
C      1  0.4515490000000  0.5204680000000  0.4870750000000 1.0
C      1  0.5572440000000  0.4898520000000  0.4734200000000 1.0
C      1  0.4562200000000  0.4612220000000  0.5410240000000 1.0
C      1  0.5036730000000  0.5949320000000  0.5612290000000 1.0
C      1  0.5188870000000  0.6129230000000  0.5144230000000 1.0
C      1  0.3840000000000  0.5018180000000  0.4805590000000 1.0
C      1  0.4063420000000  0.5437220000000  0.5136430000000 1.0
C      1  0.4735240000000  0.4787310000000  0.3908460000000 1.0
C      1  0.4832620000000  0.4704040000000  0.5967840000000 1.0
C      1  0.5717000000000  0.4232240000000  0.4967100000000 1.0
C      1  0.3940230000000  0.4698140000000  0.5236050000000 1.0
C      1  0.5315150000000  0.4800410000000  0.6028660000000 1.0
C      1  0.5578750000000  0.4256810000000  0.4489610000000 1.0
C      1  0.5585370000000  0.4940980000000  0.5516610000000 1.0
C      1  0.6054560000000  0.4833800000000  0.4795830000000 1.0
C      1  0.6026330000000  0.4714350000000  0.5477300000000 1.0
C      1  0.4926160000000  0.3912450000000  0.5080130000000 1.0
C      1  0.4368960000000  0.4818080000000  0.5805320000000 1.0
C      1  0.5451970000000  0.6015160000000  0.5131940000000 1.0
C      1  0.5800000000000  0.4792500000000  0.5681790000000 1.0
C      1  0.5277830000000  0.5793980000000  0.5703230000000 1.0
C      1  0.5914450000000  0.5249640000000  0.4542150000000 1.0
C      1  0.5040710000000  0.4795810000000  0.5119120000000 1.0
C      1  0.6001680000000  0.5502170000000  0.5250120000000 1.0
C      1  0.4968920000000  0.5135190000000  0.4237440000000 1.0
C      1  0.4544470000000  0.4854090000000  0.4932720000000 1.0
C      1  0.6081970000000  0.5172960000000  0.5543510000000 1.0
C      1  0.4019580000000  0.5117750000000  0.5482880000000 1.0
C      1  0.5020660000000  0.6139610000000  0.5384700000000 1.0
C      1  0.5016760000000  0.6173300000000  0.4904390000000 1.0
C      1  0.5181100000000  0.5596920000000  0.5899070000000 1.0
C      1  0.5200590000000  0.5551970000000  0.5343900000000 1.0
C      1  0.5193930000000  0.4575090000000  0.4656440000000 1.0
C      1  0.5540520000000  0.5733580000000  0.5557470000000 1.0
C      1  0.4135500000000  0.5056900000000  0.4120610000000 1.0
C      1  0.4382750000000  0.5450240000000  0.5526950000000 1.0
C      1  0.5676980000000  0.5234910000000  0.5024730000000 1.0
C      1  0.5975090000000  0.5282140000000  0.5038350000000 1.0
C      1  0.4526160000000  0.5569990000000  0.4142200000000 1.0
C      1  0.4727440000000  0.4545940000000  0.4074580000000 1.0
C      1  0.6100820000000  0.5004310000000  0.5069390000000 1.0
C      1  0.5806030000000  0.4780860000000  0.4345620000000 1.0
C      1  0.5945090000000  0.5416320000000  0.5520700000000 1.0
C      1  0.4225210000000  0.5341360000000  0.4471140000000 1.0
C      1  0.4577800000000  0.4610300000000  0.5116030000000 1.0
C      1  0.5382110000000  0.4557550000000  0.5901560000000 1.0
C      1  0.4985030000000  0.4958270000000  0.3976980000000 1.0
C      1  0.4121990000000  0.5016310000000  0.4758660000000 1.0
C      1  0.5159480000000  0.4741040000000  0.5401280000000 1.0
C      1  0.5033430000000  0.4117370000000  0.4394440000000 1.0
C      1  0.5309950000000  0.4248840000000  0.4345850000000 1.0
C      1  0.4905690000000  0.4212790000000  0.5122510000000 1.0
C      1  0.4564660000000  0.5604100000000  0.4617970000000 1.0
C      1  0.4707350000000  0.5112120000000  0.4418670000000 1.0
C      1  0.5160950000000  0.4383020000000  0.5776530000000 1.0
C      1  0.5197120000000  0.3849210000000  0.4945150000000 1.0
C      1  0.4267250000000  0.5002710000000  0.5381160000000 1.0
C      1  0.5568990000000  0.5159010000000  0.4089610000000 1.0
C      1  0.5122340000000  0.4388750000000  0.3946220000000 1.0
C      1  0.5370010000000  0.5147470000000  0.5573950000000 1.0
C      1  0.5591370000000  0.4873950000000  0.4160210000000 1.0
C      1  0.5127240000000  0.5320150000000  0.3928810000000 1.0
C      1  0.5287530000000  0.5527620000000  0.4835830000000 1.0
C      1  0.5514190000000  0.5378120000000  0.4278550000000 1.0
C      1  0.5228990000000  0.5702510000000  0.5078060000000 1.0
C      1  0.4468850000000  0.5182920000000  0.3814010000000 1.0
C      1  0.5994300000000  0.4369300000000  0.4947560000000 1.0
C      1  0.4079710000000  0.5409110000000  0.5436020000000 1.0
C      1  0.4810140000000  0.5501780000000  0.5139680000000 1.0
C      1  0.4160230000000  0.4450550000000  0.4514680000000 1.0
C      1  0.5001530000000  0.5264780000000  0.5078190000000 1.0
C      1  0.4891500000000  0.4255450000000  0.5415100000000 1.0
C      1  0.4123270000000  0.4422760000000  0.4810480000000 1.0
C      1  0.4381540000000  0.4168590000000  0.5402880000000 1.0
C      1  0.4718560000000  0.5316030000000  0.4665580000000 1.0
C      1  0.4967920000000  0.5775070000000  0.4021830000000 1.0
C      1  0.5240300000000  0.4087570000000  0.5706020000000 1.0
C      1  0.3834800000000  0.4988280000000  0.5285970000000 1.0
C      1  0.4904780000000  0.4419170000000  0.5936470000000 1.0
C      1  0.4908460000000  0.5520190000000  0.5438330000000 1.0
C      1  0.5646530000000  0.4535310000000  0.5774880000000 1.0
C      1  0.5582760000000  0.5452480000000  0.4813510000000 1.0
C      1  0.4911710000000  0.5588620000000  0.6022720000000 1.0
C      1  0.4090420000000  0.4694010000000  0.4368080000000 1.0
C      1  0.6022760000000  0.4543440000000  0.4715930000000 1.0
C      1  0.4480380000000  0.5206690000000  0.5368790000000 1.0
C      1  0.4344870000000  0.5826510000000  0.5302220000000 1.0
C      1  0.4727080000000  0.5056900000000  0.5406830000000 1.0
C      1  0.4809760000000  0.4088290000000  0.4590110000000 1.0
C      1  0.4419250000000  0.5760910000000  0.4842020000000 1.0
C      1  0.5633240000000  0.4669670000000  0.5165870000000 1.0
C      1  0.5283030000000  0.4857310000000  0.3936380000000 1.0
C      1  0.6031630000000  0.5419070000000  0.4771960000000 1.0
C      1  0.4543630000000  0.5357800000000  0.5120450000000 1.0
C      1  0.5148200000000  0.4664750000000  0.4357160000000 1.0
C      1  0.5420990000000  0.5861650000000  0.4337620000000 1.0
C      1  0.5384060000000  0.5622730000000  0.4199380000000 1.0
C      1  0.5696110000000  0.5502200000000  0.5654820000000 1.0
C      1  0.4863740000000  0.5300630000000  0.6094850000000 1.0
C      1  0.4451550000000  0.4418530000000  0.5996780000000 1.0
C      1  0.4766600000000  0.5768860000000  0.4491580000000 1.0
C      1  0.4395410000000  0.4117880000000  0.5127330000000 1.0
C      1  0.5108300000000  0.4995640000000  0.5627930000000 1.0
C      1  0.4950690000000  0.5796670000000  0.4972860000000 1.0
C      1  0.5819780000000  0.5661830000000  0.4848660000000 1.0
C      1  0.5317560000000  0.5354190000000  0.5955650000000 1.0
C      1  0.5162090000000  0.5047050000000  0.4682230000000 1.0
C      1  0.5710970000000  0.4072230000000  0.5227420000000 1.0
C      1  0.5479600000000  0.4610530000000  0.4730770000000 1.0
C      1  0.5848050000000  0.4953400000000  0.4598760000000 1.0
C      1  0.4876790000000  0.5215390000000  0.5593320000000 1.0
C      1  0.3901580000000  0.4564840000000  0.4966840000000 1.0
C      1  0.5075620000000  0.4905310000000  0.5922510000000 1.0
C      1  0.4473010000000  0.4910540000000  0.3877770000000 1.0
C      1  0.5059200000000  0.5311010000000  0.4784350000000 1.0
C      1  0.5288520000000  0.4472300000000  0.4155720000000 1.0
C      1  0.4681240000000  0.5683310000000  0.5855650000000 1.0
C      1  0.5631550000000  0.4327910000000  0.5574170000000 1.0
C      1  0.4790350000000  0.5773330000000  0.5589420000000 1.0
C      1  0.4454380000000  0.5432140000000  0.3912080000000 1.0
C      1  0.5665820000000  0.5398940000000  0.4523350000000 1.0
C      1  0.5615550000000  0.4944000000000  0.5009930000000 1.0
C      1  0.4719260000000  0.4388790000000  0.5007620000000 1.0
C      1  0.5254640000000  0.3746740000000  0.5212160000000 1.0
C      1  0.4724850000000  0.6170990000000  0.4999330000000 1.0
C      1  0.5072290000000  0.4477590000000  0.5507570000000 1.0
C      1  0.4142830000000  0.4300720000000  0.5459330000000 1.0
C      1  0.5110850000000  0.6069440000000  0.4623770000000 1.0
C      1  0.4768750000000  0.5711050000000  0.4205810000000 1.0
C      1  0.5825580000000  0.4506150000000  0.4480320000000 1.0
C      1  0.5580320000000  0.4088900000000  0.4732140000000 1.0
C      1  0.4323020000000  0.4751070000000  0.5527010000000 1.0
C      1  0.5913250000000  0.4538610000000  0.5248350000000 1.0
C      1  0.4857690000000  0.4330860000000  0.3940900000000 1.0
C      1  0.5132110000000  0.5153660000000  0.6090270000000 1.0
C      1  0.4838330000000  0.5010400000000  0.5131000000000 1.0
C      1  0.4337060000000  0.4216010000000  0.4869730000000 1.0
C      1  0.4700920000000  0.5239090000000  0.5847650000000 1.0
END
