TITL C-951347-9520-703 -6.43583386075851e-07 125000 -233.183319555525 0 0 39 (C1) n - 1
REM
REM in /home/bkarasulu/work/CARBON/AIRSS/Generating-Clusters/EDIP-Nigel-Params/with-SteepDescent/Only-C1/SD-CG/HFTN-CG
REM
REM
REM
REM
REM
REM ./C.cell (11c1c37f851c82e70ff6c80c92926a4b)
REM
REM compiler GCC version 9.2.1 20190827 (Red Hat 9.2.1-1)
REM options -cpp -mtune=generic -march=x86-64 -g -O0 -fpre-include=/usr/include/finclude/math-vector-fortran.h
REM seed 889926006 2120946347 1248991915 -1581759031 -1413520612 -1466120379 -579426907 1190881209 -1413600723 2029392656 809442310 25550899 -1731280733 181977971 -436426318 -807002096 -1944105992 502549082 403359605 -514464650 1052716465 738070988 1285781252 2145623136 -53449132 -1835853967 -646526750 -967488303 244765351 -1897625629 1115985239 115121499 -380197580
REM
CELL 1.54180   50.00000   50.00000   50.00000   90.00000   90.00000   90.00000
LATT -1
SFAC C  
C      1  0.4855780000000  0.5121100000000  0.4314360000000 1.0
C      1  0.4784080000000  0.4810380000000  0.5414830000000 1.0
C      1  0.5600110000000  0.4826710000000  0.5347260000000 1.0
C      1  0.5060030000000  0.4830650000000  0.4683260000000 1.0
C      1  0.4537070000000  0.4671990000000  0.5431560000000 1.0
C      1  0.4974390000000  0.4902930000000  0.4425120000000 1.0
C      1  0.5252770000000  0.5268130000000  0.4975430000000 1.0
C      1  0.5053930000000  0.5486560000000  0.4587560000000 1.0
C      1  0.4980050000000  0.5383150000000  0.5539630000000 1.0
C      1  0.5304930000000  0.5075780000000  0.5673760000000 1.0
C      1  0.4458710000000  0.4949900000000  0.4872990000000 1.0
C      1  0.5175530000000  0.5087470000000  0.5203650000000 1.0
C      1  0.5097980000000  0.5504130000000  0.4883610000000 1.0
C      1  0.4789440000000  0.5222960000000  0.5664400000000 1.0
C      1  0.4604640000000  0.4697530000000  0.4813200000000 1.0
C      1  0.4695310000000  0.4967250000000  0.5634380000000 1.0
C      1  0.4885770000000  0.4740130000000  0.4912730000000 1.0
C      1  0.4391350000000  0.5113260000000  0.4649990000000 1.0
C      1  0.4781750000000  0.4285810000000  0.4974720000000 1.0
C      1  0.4575720000000  0.5329870000000  0.4675310000000 1.0
C      1  0.4454000000000  0.4514680000000  0.5223800000000 1.0
C      1  0.4898900000000  0.5543400000000  0.5327710000000 1.0
C      1  0.4624220000000  0.5109660000000  0.5062450000000 1.0
C      1  0.5296790000000  0.5414280000000  0.4464350000000 1.0
C      1  0.5487620000000  0.4862920000000  0.4893550000000 1.0
C      1  0.5766010000000  0.4774200000000  0.4914950000000 1.0
C      1  0.5496590000000  0.5252570000000  0.4547760000000 1.0
C      1  0.4852820000000  0.5560270000000  0.5051040000000 1.0
C      1  0.5458620000000  0.5151790000000  0.4805760000000 1.0
C      1  0.4615130000000  0.5392390000000  0.4965840000000 1.0
C      1  0.5381000000000  0.4867100000000  0.5174990000000 1.0
C      1  0.5240210000000  0.4438020000000  0.4864220000000 1.0
C      1  0.4828440000000  0.5307670000000  0.4525600000000 1.0
C      1  0.5211660000000  0.5222250000000  0.5471390000000 1.0
C      1  0.4872300000000  0.4948210000000  0.5157730000000 1.0
C      1  0.4990410000000  0.4473710000000  0.4986260000000 1.0
C      1  0.5810320000000  0.4763020000000  0.5184550000000 1.0
C      1  0.4547530000000  0.4448340000000  0.4969670000000 1.0
C      1  0.5308090000000  0.4679790000000  0.4730640000000 1.0
END
