TITL C-951345-2650-120 4.07890489994586e-07 125000 -419.103308700539 0 0 68 (C1) n - 1
REM
REM in /home/bkarasulu/work/CARBON/AIRSS/Generating-Clusters/EDIP-Nigel-Params/with-SteepDescent/Only-C1/SD-CG/HFTN-CG
REM
REM
REM
REM
REM
REM ./C.cell (11c1c37f851c82e70ff6c80c92926a4b)
REM
REM compiler GCC version 9.2.1 20190827 (Red Hat 9.2.1-1)
REM options -cpp -mtune=generic -march=x86-64 -g -O0 -fpre-include=/usr/include/finclude/math-vector-fortran.h
REM seed 866508722 1033058022 -652491925 -413369825 912800796 -2112803648 1627835099 -1722243058 -1986130242 1301199648 -1368615626 2020376969 253964404 -2087058063 1879921836 1431016801 -1134200979 -260308703 168589868 -1206264788 -168587040 1754976824 -202663732 -1770142716 -1136235939 1404674446 1835807665 -1638975602 1458922615 333344 744581307 1413593905 1983643774
REM
CELL 1.54180   50.00000   50.00000   50.00000   90.00000   90.00000   90.00000
LATT -1
SFAC C  
C      1  0.5522710000000  0.5397020000000  0.4826590000000 1.0
C      1  0.4732650000000  0.4762460000000  0.5691150000000 1.0
C      1  0.5777840000000  0.5334950000000  0.5256300000000 1.0
C      1  0.4382630000000  0.4794970000000  0.5244310000000 1.0
C      1  0.4632620000000  0.4390420000000  0.4662360000000 1.0
C      1  0.4257160000000  0.5058950000000  0.5209830000000 1.0
C      1  0.5204600000000  0.4317630000000  0.4842890000000 1.0
C      1  0.5011070000000  0.5694600000000  0.5497880000000 1.0
C      1  0.4785830000000  0.4950040000000  0.5155550000000 1.0
C      1  0.5662590000000  0.4929140000000  0.4783130000000 1.0
C      1  0.5179010000000  0.4922960000000  0.4934620000000 1.0
C      1  0.5250010000000  0.5767240000000  0.5106100000000 1.0
C      1  0.4821540000000  0.5702850000000  0.4901350000000 1.0
C      1  0.5080880000000  0.5079640000000  0.5710920000000 1.0
C      1  0.5661330000000  0.5083390000000  0.5625860000000 1.0
C      1  0.4430100000000  0.4502910000000  0.4511130000000 1.0
C      1  0.5341530000000  0.5131500000000  0.4365260000000 1.0
C      1  0.4783800000000  0.4313150000000  0.5152160000000 1.0
C      1  0.4380330000000  0.4609740000000  0.5025370000000 1.0
C      1  0.5246450000000  0.4836110000000  0.5581620000000 1.0
C      1  0.4361070000000  0.4737450000000  0.4407170000000 1.0
C      1  0.4647990000000  0.5240450000000  0.5622800000000 1.0
C      1  0.5599590000000  0.4777200000000  0.5246690000000 1.0
C      1  0.4916730000000  0.5212930000000  0.5219980000000 1.0
C      1  0.5495970000000  0.4515100000000  0.5151040000000 1.0
C      1  0.5095650000000  0.4641020000000  0.5403140000000 1.0
C      1  0.5257120000000  0.5670790000000  0.5368800000000 1.0
C      1  0.4856100000000  0.4554200000000  0.5554760000000 1.0
C      1  0.4731960000000  0.5794760000000  0.5150940000000 1.0
C      1  0.5261710000000  0.4404330000000  0.5309600000000 1.0
C      1  0.4673500000000  0.5368080000000  0.5365860000000 1.0
C      1  0.4711700000000  0.4359580000000  0.5420380000000 1.0
C      1  0.4892160000000  0.5282210000000  0.4411640000000 1.0
C      1  0.5543690000000  0.5264240000000  0.5090380000000 1.0
C      1  0.5146270000000  0.5181280000000  0.5429930000000 1.0
C      1  0.5091510000000  0.4217540000000  0.4608550000000 1.0
C      1  0.5116000000000  0.5682670000000  0.4873330000000 1.0
C      1  0.4424780000000  0.5211140000000  0.4485400000000 1.0
C      1  0.4781020000000  0.4983540000000  0.4622270000000 1.0
C      1  0.4403570000000  0.5419420000000  0.4920240000000 1.0
C      1  0.5649420000000  0.5335360000000  0.5511440000000 1.0
C      1  0.5209460000000  0.4663100000000  0.4246660000000 1.0
C      1  0.4793100000000  0.5032000000000  0.5743540000000 1.0
C      1  0.5220870000000  0.5414020000000  0.4773040000000 1.0
C      1  0.5162320000000  0.5341810000000  0.4478940000000 1.0
C      1  0.5515850000000  0.4713180000000  0.4645000000000 1.0
C      1  0.5365490000000  0.5393120000000  0.5397720000000 1.0
C      1  0.4655560000000  0.5398580000000  0.4521490000000 1.0
C      1  0.5540020000000  0.4849220000000  0.5530920000000 1.0
C      1  0.4670930000000  0.4968760000000  0.4894840000000 1.0
C      1  0.5425760000000  0.4508740000000  0.4858270000000 1.0
C      1  0.5016400000000  0.4779210000000  0.5146610000000 1.0
C      1  0.4897020000000  0.4406040000000  0.4538420000000 1.0
C      1  0.4408610000000  0.5324370000000  0.5202750000000 1.0
C      1  0.5501300000000  0.4965900000000  0.5029400000000 1.0
C      1  0.5083140000000  0.5208060000000  0.4949340000000 1.0
C      1  0.5083750000000  0.4261750000000  0.5107430000000 1.0
C      1  0.4229530000000  0.4954410000000  0.4920210000000 1.0
C      1  0.4608110000000  0.4442800000000  0.4948420000000 1.0
C      1  0.4756580000000  0.5656250000000  0.5391290000000 1.0
C      1  0.4660470000000  0.5485120000000  0.4798070000000 1.0
C      1  0.4952420000000  0.4588650000000  0.4327520000000 1.0
C      1  0.5672620000000  0.5201700000000  0.4650630000000 1.0
C      1  0.4544350000000  0.4946390000000  0.4411830000000 1.0
C      1  0.5045280000000  0.4807450000000  0.4640900000000 1.0
C      1  0.5610830000000  0.5209120000000  0.4374620000000 1.0
C      1  0.4273930000000  0.5209470000000  0.4752110000000 1.0
C      1  0.5294130000000  0.4837820000000  0.4461340000000 1.0
END
