TITL C-951340-9809-34 -6.83236682299249e-06 125000 -697.238660408849 0 0 115 (C1) n - 1
REM
REM in /home/bkarasulu/work/CARBON/AIRSS/Generating-Clusters/EDIP-Nigel-Params/with-SteepDescent/Only-C1/SD-CG/HFTN-CG
REM
REM
REM
REM
REM
REM ./C.cell (11c1c37f851c82e70ff6c80c92926a4b)
REM
REM compiler GCC version 9.2.1 20190827 (Red Hat 9.2.1-1)
REM options -cpp -mtune=generic -march=x86-64 -g -O0 -fpre-include=/usr/include/finclude/math-vector-fortran.h
REM seed -1292063108 57524853 -1782921582 1940823418 704515844 -34250015 -1249064393 1882474658 -906360214 2136005538 -1691942890 -356785163 1814283091 -2035726911 -1568330819 362046882 -802186533 -974336349 -351534573 2008875021 -489256198 587580085 -1290508064 814089886 1507894043 385066132 -1319477425 655263371 -1501458004 -737194158 2127825490 1704004436 685723458
REM
CELL 1.54180   50.00000   50.00000   50.00000   90.00000   90.00000   90.00000
LATT -1
SFAC C  
C      1  0.5957890000000  0.4994830000000  0.5123310000000 1.0
C      1  0.4562690000000  0.5634750000000  0.4455230000000 1.0
C      1  0.4260950000000  0.5154530000000  0.5434480000000 1.0
C      1  0.5327220000000  0.5220930000000  0.4222430000000 1.0
C      1  0.4060990000000  0.5142950000000  0.4913990000000 1.0
C      1  0.4550960000000  0.4822600000000  0.4140220000000 1.0
C      1  0.5657550000000  0.4449940000000  0.4840180000000 1.0
C      1  0.4451650000000  0.5390190000000  0.4314880000000 1.0
C      1  0.5476620000000  0.5320280000000  0.4468130000000 1.0
C      1  0.4593040000000  0.4468730000000  0.5122410000000 1.0
C      1  0.4989240000000  0.5760470000000  0.5642920000000 1.0
C      1  0.4255680000000  0.5246410000000  0.5134410000000 1.0
C      1  0.5005120000000  0.3818930000000  0.5050780000000 1.0
C      1  0.5273280000000  0.5750860000000  0.4694120000000 1.0
C      1  0.4579550000000  0.4868600000000  0.5935730000000 1.0
C      1  0.4714310000000  0.5638140000000  0.5654780000000 1.0
C      1  0.5134270000000  0.5193880000000  0.4857830000000 1.0
C      1  0.5823430000000  0.4755290000000  0.4496270000000 1.0
C      1  0.5111930000000  0.4995860000000  0.5818230000000 1.0
C      1  0.5193640000000  0.5697760000000  0.5443360000000 1.0
C      1  0.5021960000000  0.5865300000000  0.4582370000000 1.0
C      1  0.5733310000000  0.5705850000000  0.5084150000000 1.0
C      1  0.4188180000000  0.5537020000000  0.5218490000000 1.0
C      1  0.5757570000000  0.4981090000000  0.4305800000000 1.0
C      1  0.4865150000000  0.5628700000000  0.4443850000000 1.0
C      1  0.5585550000000  0.4677670000000  0.4668510000000 1.0
C      1  0.5184200000000  0.5823080000000  0.5166500000000 1.0
C      1  0.5123820000000  0.4447420000000  0.4770610000000 1.0
C      1  0.4878900000000  0.5511690000000  0.4907270000000 1.0
C      1  0.4602140000000  0.4607180000000  0.5828120000000 1.0
C      1  0.4541280000000  0.5272880000000  0.5058560000000 1.0
C      1  0.4443440000000  0.5344730000000  0.5945790000000 1.0
C      1  0.5434270000000  0.4103180000000  0.5079570000000 1.0
C      1  0.5631970000000  0.4463820000000  0.5361670000000 1.0
C      1  0.4847480000000  0.4633380000000  0.4726610000000 1.0
C      1  0.5322790000000  0.4882260000000  0.5307390000000 1.0
C      1  0.4790230000000  0.4369450000000  0.4171930000000 1.0
C      1  0.4274170000000  0.4957480000000  0.4534830000000 1.0
C      1  0.5253270000000  0.3907810000000  0.5109880000000 1.0
C      1  0.4863410000000  0.4858020000000  0.4944540000000 1.0
C      1  0.4574970000000  0.4303850000000  0.4340270000000 1.0
C      1  0.4763250000000  0.6055420000000  0.5267760000000 1.0
C      1  0.5240340000000  0.4528380000000  0.5036480000000 1.0
C      1  0.4844090000000  0.3951130000000  0.4580290000000 1.0
C      1  0.5325660000000  0.4883220000000  0.5981910000000 1.0
C      1  0.4710170000000  0.4833740000000  0.5463290000000 1.0
C      1  0.5774770000000  0.5256950000000  0.4442410000000 1.0
C      1  0.4218380000000  0.5454310000000  0.5522850000000 1.0
C      1  0.5801660000000  0.5006550000000  0.5357800000000 1.0
C      1  0.4411060000000  0.4755010000000  0.4387340000000 1.0
C      1  0.5998680000000  0.5032370000000  0.4847830000000 1.0
C      1  0.4104800000000  0.5361500000000  0.4711840000000 1.0
C      1  0.4146310000000  0.4587250000000  0.5180650000000 1.0
C      1  0.5181130000000  0.5616730000000  0.4948840000000 1.0
C      1  0.4771150000000  0.5596670000000  0.5364520000000 1.0
C      1  0.5293000000000  0.4816190000000  0.5027800000000 1.0
C      1  0.4697220000000  0.5293550000000  0.5305630000000 1.0
C      1  0.4986940000000  0.6044360000000  0.5086700000000 1.0
C      1  0.5750880000000  0.5440180000000  0.5171900000000 1.0
C      1  0.5447170000000  0.5571460000000  0.5547580000000 1.0
C      1  0.5336220000000  0.5167430000000  0.5383550000000 1.0
C      1  0.5637570000000  0.5283120000000  0.5405230000000 1.0
C      1  0.5880930000000  0.5268700000000  0.4722350000000 1.0
C      1  0.5425320000000  0.4505310000000  0.5779380000000 1.0
C      1  0.4849500000000  0.4752100000000  0.4464760000000 1.0
C      1  0.5264620000000  0.4636120000000  0.6109510000000 1.0
C      1  0.4889890000000  0.3997390000000  0.4870970000000 1.0
C      1  0.4711290000000  0.5129980000000  0.4858940000000 1.0
C      1  0.5367210000000  0.4477080000000  0.4580900000000 1.0
C      1  0.5051060000000  0.4329950000000  0.4303600000000 1.0
C      1  0.5081880000000  0.4079410000000  0.4451970000000 1.0
C      1  0.4213080000000  0.5596340000000  0.4845820000000 1.0
C      1  0.5593440000000  0.4749290000000  0.5750470000000 1.0
C      1  0.4967230000000  0.4787610000000  0.5644220000000 1.0
C      1  0.4437670000000  0.4589320000000  0.5583180000000 1.0
C      1  0.5038360000000  0.5153470000000  0.4278960000000 1.0
C      1  0.4434420000000  0.5534410000000  0.5731720000000 1.0
C      1  0.4552980000000  0.5111450000000  0.5519290000000 1.0
C      1  0.4491380000000  0.4508770000000  0.4815820000000 1.0
C      1  0.5380580000000  0.5152350000000  0.4707990000000 1.0
C      1  0.5289200000000  0.4750660000000  0.4249670000000 1.0
C      1  0.4148290000000  0.4891970000000  0.4782100000000 1.0
C      1  0.5290180000000  0.4465240000000  0.4205660000000 1.0
C      1  0.4436210000000  0.4486800000000  0.4504770000000 1.0
C      1  0.5470950000000  0.4904630000000  0.4823650000000 1.0
C      1  0.4796660000000  0.4673540000000  0.5197860000000 1.0
C      1  0.4855560000000  0.5982530000000  0.4810660000000 1.0
C      1  0.5510900000000  0.4319320000000  0.5575680000000 1.0
C      1  0.4893770000000  0.4538840000000  0.5786440000000 1.0
C      1  0.5027800000000  0.4865650000000  0.4278070000000 1.0
C      1  0.6036940000000  0.4820070000000  0.4669380000000 1.0
C      1  0.5801820000000  0.5506650000000  0.4879600000000 1.0
C      1  0.4923860000000  0.5127980000000  0.5215340000000 1.0
C      1  0.5704900000000  0.4743600000000  0.5478560000000 1.0
C      1  0.5170430000000  0.4679070000000  0.5465120000000 1.0
C      1  0.4633870000000  0.5808360000000  0.5204130000000 1.0
C      1  0.4461150000000  0.5699760000000  0.4730800000000 1.0
C      1  0.4736680000000  0.4621930000000  0.4051890000000 1.0
C      1  0.5093880000000  0.4454400000000  0.5980610000000 1.0
C      1  0.4689800000000  0.5753510000000  0.4913830000000 1.0
C      1  0.5044850000000  0.4511380000000  0.5259710000000 1.0
C      1  0.5210730000000  0.5219220000000  0.5656390000000 1.0
C      1  0.5377540000000  0.5417230000000  0.5776440000000 1.0
C      1  0.4372400000000  0.4487060000000  0.5315830000000 1.0
C      1  0.4794480000000  0.5279630000000  0.4177860000000 1.0
C      1  0.4569180000000  0.5123810000000  0.5822360000000 1.0
C      1  0.4885300000000  0.5378930000000  0.4624150000000 1.0
C      1  0.5478690000000  0.4962390000000  0.4175100000000 1.0
C      1  0.5504810000000  0.4380950000000  0.5084510000000 1.0
C      1  0.4247370000000  0.4662710000000  0.4928360000000 1.0
C      1  0.5165790000000  0.5292750000000  0.5164630000000 1.0
C      1  0.4264940000000  0.5240940000000  0.4493140000000 1.0
C      1  0.4583470000000  0.5110180000000  0.4085500000000 1.0
C      1  0.5420960000000  0.5596720000000  0.4515100000000 1.0
C      1  0.5137250000000  0.4139180000000  0.4754670000000 1.0
END
