TITL C-951345-2650-282 -3.54010245613002e-06 125000 -1091.69776477746 0 0 176 (C1) n - 1
REM
REM in /home/bkarasulu/work/CARBON/AIRSS/Generating-Clusters/EDIP-Nigel-Params/with-SteepDescent/Only-C1/SD-CG/HFTN-CG
REM
REM
REM
REM
REM
REM ./C.cell (11c1c37f851c82e70ff6c80c92926a4b)
REM
REM compiler GCC version 9.2.1 20190827 (Red Hat 9.2.1-1)
REM options -cpp -mtune=generic -march=x86-64 -g -O0 -fpre-include=/usr/include/finclude/math-vector-fortran.h
REM seed 617260702 -591124679 -164601308 2053292796 835581947 -1002836689 851604876 435527028 1216578601 1030623397 -88373662 -2113677104 38734898 -1160307858 -1014693520 -1397637784 2135862814 1770899373 -285641686 -358659810 801898791 -241030237 -83064433 -179370150 1848956915 -1781020848 -989951597 274685682 1374095825 -1595410919 -796100038 -869756859 -1150370179
REM
CELL 1.54180   50.00000   50.00000   50.00000   90.00000   90.00000   90.00000
LATT -1
SFAC C  
C      1  0.4737650000000  0.4502160000000  0.5033840000000 1.0
C      1  0.4139810000000  0.4543890000000  0.5576860000000 1.0
C      1  0.5215770000000  0.4612490000000  0.5682860000000 1.0
C      1  0.4971450000000  0.5118500000000  0.4743560000000 1.0
C      1  0.5957290000000  0.4836950000000  0.4456650000000 1.0
C      1  0.4603700000000  0.5330410000000  0.4610780000000 1.0
C      1  0.4759580000000  0.4752830000000  0.5667730000000 1.0
C      1  0.5856760000000  0.4920070000000  0.5755570000000 1.0
C      1  0.4684210000000  0.5621510000000  0.4974170000000 1.0
C      1  0.4072360000000  0.4618980000000  0.4769390000000 1.0
C      1  0.5294150000000  0.5098410000000  0.4443250000000 1.0
C      1  0.5329460000000  0.5155700000000  0.4996690000000 1.0
C      1  0.4836040000000  0.4042930000000  0.5139180000000 1.0
C      1  0.6063370000000  0.5562460000000  0.5002650000000 1.0
C      1  0.5590800000000  0.5225580000000  0.3971480000000 1.0
C      1  0.5704360000000  0.5198200000000  0.4688580000000 1.0
C      1  0.5784470000000  0.4970690000000  0.4897170000000 1.0
C      1  0.4840120000000  0.4450930000000  0.4199000000000 1.0
C      1  0.4637990000000  0.5226360000000  0.4299590000000 1.0
C      1  0.6239210000000  0.4782010000000  0.4839370000000 1.0
C      1  0.4792070000000  0.4000130000000  0.5601480000000 1.0
C      1  0.5741420000000  0.4493810000000  0.5095530000000 1.0
C      1  0.4941360000000  0.4688390000000  0.4938020000000 1.0
C      1  0.5107910000000  0.5434560000000  0.4392270000000 1.0
C      1  0.4197950000000  0.4372520000000  0.4858850000000 1.0
C      1  0.4393240000000  0.4293730000000  0.4389620000000 1.0
C      1  0.4928600000000  0.5506920000000  0.6267180000000 1.0
C      1  0.4914860000000  0.5400650000000  0.4666130000000 1.0
C      1  0.4142690000000  0.5155430000000  0.4272480000000 1.0
C      1  0.5191860000000  0.5440210000000  0.3795660000000 1.0
C      1  0.5055430000000  0.3895450000000  0.5542170000000 1.0
C      1  0.5265190000000  0.5874910000000  0.4525130000000 1.0
C      1  0.5829150000000  0.4687090000000  0.5327510000000 1.0
C      1  0.3888450000000  0.5053630000000  0.4691160000000 1.0
C      1  0.4132300000000  0.4694590000000  0.4498070000000 1.0
C      1  0.4890810000000  0.5072580000000  0.4262450000000 1.0
C      1  0.5008380000000  0.5731720000000  0.4918330000000 1.0
C      1  0.4629540000000  0.5656810000000  0.5923600000000 1.0
C      1  0.5815380000000  0.4486070000000  0.4812690000000 1.0
C      1  0.4437850000000  0.4933530000000  0.5964790000000 1.0
C      1  0.4511330000000  0.4656470000000  0.5225500000000 1.0
C      1  0.5745830000000  0.5238050000000  0.4207720000000 1.0
C      1  0.4137260000000  0.4567760000000  0.5288420000000 1.0
C      1  0.5445520000000  0.4159000000000  0.5590860000000 1.0
C      1  0.3790570000000  0.5316480000000  0.4718250000000 1.0
C      1  0.5676040000000  0.4548630000000  0.6004890000000 1.0
C      1  0.4914640000000  0.4629910000000  0.4462200000000 1.0
C      1  0.3950920000000  0.4856430000000  0.4892210000000 1.0
C      1  0.5864740000000  0.4521720000000  0.4156610000000 1.0
C      1  0.5289260000000  0.4115870000000  0.5331320000000 1.0
C      1  0.5032960000000  0.4965040000000  0.4495240000000 1.0
C      1  0.4339500000000  0.4333640000000  0.5615180000000 1.0
C      1  0.4505560000000  0.4560230000000  0.6045640000000 1.0
C      1  0.4517410000000  0.4318980000000  0.5860610000000 1.0
C      1  0.4919840000000  0.4905950000000  0.5892840000000 1.0
C      1  0.5297860000000  0.3904000000000  0.4669110000000 1.0
C      1  0.5187730000000  0.3948650000000  0.4424080000000 1.0
C      1  0.4834040000000  0.5596850000000  0.4178000000000 1.0
C      1  0.5414040000000  0.5312060000000  0.5487890000000 1.0
C      1  0.5881200000000  0.4624790000000  0.5809960000000 1.0
C      1  0.4814650000000  0.6001010000000  0.5267670000000 1.0
C      1  0.4618290000000  0.6079940000000  0.4846700000000 1.0
C      1  0.5211860000000  0.4463780000000  0.5086900000000 1.0
C      1  0.4803640000000  0.5727340000000  0.4448880000000 1.0
C      1  0.4456320000000  0.4769190000000  0.4132690000000 1.0
C      1  0.5475620000000  0.4880630000000  0.4986080000000 1.0
C      1  0.5300560000000  0.4785110000000  0.6175960000000 1.0
C      1  0.4659620000000  0.4853640000000  0.5391930000000 1.0
C      1  0.5071790000000  0.4383590000000  0.4583460000000 1.0
C      1  0.4489880000000  0.4705890000000  0.5791790000000 1.0
C      1  0.4196180000000  0.5562650000000  0.4817270000000 1.0
C      1  0.4073380000000  0.4788190000000  0.5698110000000 1.0
C      1  0.4898530000000  0.6074010000000  0.4775730000000 1.0
C      1  0.3997260000000  0.5479200000000  0.4621520000000 1.0
C      1  0.6239190000000  0.5079230000000  0.4889230000000 1.0
C      1  0.5219770000000  0.5273150000000  0.5276800000000 1.0
C      1  0.5261430000000  0.4834950000000  0.5469450000000 1.0
C      1  0.5209030000000  0.5774660000000  0.5409480000000 1.0
C      1  0.5507460000000  0.4295810000000  0.4373280000000 1.0
C      1  0.4593450000000  0.5895500000000  0.5089720000000 1.0
C      1  0.4519990000000  0.5794030000000  0.4520370000000 1.0
C      1  0.4715880000000  0.5440850000000  0.5475790000000 1.0
C      1  0.5462900000000  0.4071580000000  0.4820070000000 1.0
C      1  0.5291830000000  0.4472510000000  0.4781670000000 1.0
C      1  0.4483440000000  0.5588800000000  0.4725990000000 1.0
C      1  0.5368280000000  0.4700930000000  0.5215770000000 1.0
C      1  0.4476780000000  0.5201880000000  0.5830370000000 1.0
C      1  0.4800420000000  0.4256370000000  0.5766190000000 1.0
C      1  0.5178670000000  0.4756350000000  0.4047450000000 1.0
C      1  0.4828430000000  0.5059370000000  0.6110980000000 1.0
C      1  0.5215240000000  0.4231310000000  0.4358340000000 1.0
C      1  0.5085280000000  0.5905080000000  0.5168260000000 1.0
C      1  0.5501940000000  0.5776010000000  0.5374700000000 1.0
C      1  0.6187460000000  0.5249000000000  0.4671890000000 1.0
C      1  0.5616560000000  0.4288200000000  0.4664790000000 1.0
C      1  0.5475480000000  0.4868750000000  0.4440510000000 1.0
C      1  0.4928770000000  0.5440360000000  0.3743170000000 1.0
C      1  0.5267850000000  0.5648990000000  0.4736150000000 1.0
C      1  0.4925820000000  0.4881940000000  0.4034710000000 1.0
C      1  0.5300420000000  0.6083450000000  0.5069860000000 1.0
C      1  0.5475750000000  0.5033800000000  0.5579720000000 1.0
C      1  0.4232140000000  0.4326210000000  0.5146550000000 1.0
C      1  0.5402760000000  0.4743660000000  0.4722540000000 1.0
C      1  0.5382560000000  0.5280820000000  0.4698660000000 1.0
C      1  0.4637390000000  0.5372150000000  0.5184170000000 1.0
C      1  0.4623390000000  0.4388540000000  0.4768230000000 1.0
C      1  0.5745880000000  0.4953900000000  0.5475220000000 1.0
C      1  0.4036320000000  0.4964940000000  0.4460150000000 1.0
C      1  0.6098030000000  0.4809150000000  0.5254460000000 1.0
C      1  0.4326470000000  0.5835700000000  0.5227480000000 1.0
C      1  0.5908330000000  0.5368570000000  0.5146070000000 1.0
C      1  0.4887190000000  0.5690360000000  0.6057770000000 1.0
C      1  0.4620050000000  0.5694720000000  0.5616620000000 1.0
C      1  0.4227140000000  0.5262710000000  0.5675570000000 1.0
C      1  0.5588700000000  0.5411480000000  0.5068830000000 1.0
C      1  0.4122900000000  0.5664360000000  0.5087290000000 1.0
C      1  0.5520030000000  0.5666290000000  0.4914480000000 1.0
C      1  0.4737090000000  0.5304150000000  0.6216900000000 1.0
C      1  0.4573290000000  0.4859820000000  0.4744060000000 1.0
C      1  0.5803950000000  0.4496850000000  0.5560750000000 1.0
C      1  0.6040330000000  0.5477780000000  0.4736990000000 1.0
C      1  0.5804620000000  0.5559870000000  0.4593990000000 1.0
C      1  0.4430160000000  0.4242160000000  0.5354900000000 1.0
C      1  0.6006310000000  0.5069560000000  0.5089440000000 1.0
C      1  0.3933560000000  0.5114420000000  0.5339290000000 1.0
C      1  0.4481530000000  0.5115980000000  0.4785300000000 1.0
C      1  0.5406940000000  0.5438070000000  0.3969490000000 1.0
C      1  0.4732330000000  0.5461690000000  0.3939200000000 1.0
C      1  0.5426440000000  0.4726090000000  0.4178640000000 1.0
C      1  0.5502390000000  0.4433830000000  0.5693360000000 1.0
C      1  0.4983400000000  0.5951280000000  0.4531930000000 1.0
C      1  0.4808940000000  0.5059800000000  0.5234130000000 1.0
C      1  0.4459130000000  0.6047000000000  0.4619670000000 1.0
C      1  0.4091530000000  0.5413920000000  0.4364470000000 1.0
C      1  0.4165780000000  0.5505070000000  0.5521270000000 1.0
C      1  0.4307510000000  0.4198130000000  0.4657220000000 1.0
C      1  0.6056820000000  0.4678160000000  0.4252860000000 1.0
C      1  0.4389760000000  0.4600730000000  0.4381440000000 1.0
C      1  0.4085620000000  0.5039310000000  0.5571700000000 1.0
C      1  0.5523580000000  0.5899260000000  0.5102290000000 1.0
C      1  0.4932000000000  0.4964440000000  0.4983920000000 1.0
C      1  0.4270110000000  0.4917480000000  0.5190570000000 1.0
C      1  0.5028810000000  0.5099090000000  0.5430980000000 1.0
C      1  0.4505400000000  0.5276390000000  0.3935180000000 1.0
C      1  0.6271410000000  0.4656080000000  0.5090860000000 1.0
C      1  0.4342610000000  0.5738790000000  0.5507560000000 1.0
C      1  0.4523460000000  0.5407880000000  0.6040490000000 1.0
C      1  0.5613320000000  0.5496090000000  0.5373920000000 1.0
C      1  0.4713300000000  0.4673750000000  0.4025150000000 1.0
C      1  0.5668270000000  0.5480340000000  0.4348830000000 1.0
C      1  0.5737120000000  0.5030340000000  0.4429000000000 1.0
C      1  0.4414220000000  0.5168830000000  0.5066140000000 1.0
C      1  0.5093700000000  0.5787090000000  0.5900520000000 1.0
C      1  0.3997810000000  0.5481440000000  0.5283840000000 1.0
C      1  0.5589370000000  0.4479090000000  0.4158460000000 1.0
C      1  0.4800700000000  0.5932460000000  0.5551620000000 1.0
C      1  0.4720510000000  0.5211430000000  0.5645790000000 1.0
C      1  0.4623630000000  0.4633850000000  0.4587240000000 1.0
C      1  0.5077910000000  0.5890170000000  0.5643290000000 1.0
C      1  0.5568310000000  0.4796270000000  0.6105890000000 1.0
C      1  0.4639220000000  0.4035590000000  0.5346460000000 1.0
C      1  0.5950520000000  0.4751640000000  0.4740510000000 1.0
C      1  0.4931720000000  0.4310370000000  0.5162160000000 1.0
C      1  0.3881110000000  0.4896260000000  0.5162160000000 1.0
C      1  0.5635050000000  0.5009780000000  0.5924950000000 1.0
C      1  0.5159660000000  0.4761770000000  0.5935810000000 1.0
C      1  0.4680310000000  0.4227590000000  0.4349800000000 1.0
C      1  0.5689870000000  0.4235660000000  0.5182890000000 1.0
C      1  0.4926500000000  0.4493980000000  0.5627520000000 1.0
C      1  0.5390780000000  0.5553740000000  0.4245700000000 1.0
C      1  0.4819180000000  0.4214400000000  0.4626520000000 1.0
C      1  0.5367240000000  0.5839490000000  0.4263210000000 1.0
C      1  0.4403700000000  0.5080850000000  0.4146160000000 1.0
C      1  0.5488770000000  0.4059470000000  0.5112790000000 1.0
C      1  0.5262680000000  0.3981940000000  0.5708490000000 1.0
C      1  0.5087050000000  0.4318340000000  0.4104770000000 1.0
END
