TITL C-950525-1983-118 1.66611930882944e-06 125000 -751.176840380862 0 0 121 (C1) n - 1
REM
REM in /home/bkarasulu/work/CARBON/AIRSS/Generating-Clusters/EDIP-Nigel-Params/with-SteepDescent/Only-C1/SD-CG/HFTN-CG
REM
REM
REM
REM
REM
REM ./C.cell (11c1c37f851c82e70ff6c80c92926a4b)
REM
REM compiler GCC version 9.2.1 20190827 (Red Hat 9.2.1-1)
REM options -cpp -mtune=generic -march=x86-64 -g -O0 -fpre-include=/usr/include/finclude/math-vector-fortran.h
REM seed -1327012640 -329215090 -941799123 -1405860676 1750581640 -361166910 -1301702576 -141894171 -1632555643 788828744 -639080260 612563935 -2053478835 1954996794 -372462883 -1986677186 570752832 971071952 -374027261 -923952156 833056070 990652946 -2131805936 -1591697411 -1461605019 -1871849029 1327073168 -1609443282 -325968727 -1657957647 -898051359 1496870954 925648664
REM
CELL 1.54180   50.00000   50.00000   50.00000   90.00000   90.00000   90.00000
LATT -1
SFAC C  
C      1  0.4140010000000  0.5462890000000  0.4711210000000 1.0
C      1  0.5264000000000  0.4461720000000  0.4942970000000 1.0
C      1  0.4647110000000  0.5850980000000  0.4750020000000 1.0
C      1  0.5610290000000  0.5312570000000  0.5213660000000 1.0
C      1  0.4599220000000  0.5358670000000  0.5844810000000 1.0
C      1  0.5264200000000  0.4845010000000  0.5994470000000 1.0
C      1  0.5771600000000  0.4499500000000  0.5059300000000 1.0
C      1  0.5226680000000  0.5374730000000  0.4106650000000 1.0
C      1  0.4420190000000  0.4486920000000  0.5714120000000 1.0
C      1  0.5699390000000  0.5668090000000  0.4565200000000 1.0
C      1  0.5119700000000  0.4865530000000  0.5565170000000 1.0
C      1  0.4523120000000  0.5167680000000  0.5048560000000 1.0
C      1  0.4075090000000  0.4953260000000  0.4731970000000 1.0
C      1  0.5788630000000  0.5373480000000  0.4798940000000 1.0
C      1  0.5479900000000  0.5100490000000  0.5648010000000 1.0
C      1  0.5751910000000  0.4971340000000  0.5658240000000 1.0
C      1  0.5558260000000  0.4890700000000  0.4613640000000 1.0
C      1  0.5134220000000  0.4649870000000  0.4228100000000 1.0
C      1  0.4965220000000  0.4125750000000  0.5385550000000 1.0
C      1  0.4224680000000  0.5247310000000  0.5245300000000 1.0
C      1  0.4334170000000  0.4939240000000  0.4592180000000 1.0
C      1  0.4935390000000  0.5191180000000  0.5870920000000 1.0
C      1  0.4692830000000  0.4683250000000  0.5342710000000 1.0
C      1  0.4698290000000  0.5223690000000  0.5286110000000 1.0
C      1  0.5312290000000  0.5510320000000  0.5660690000000 1.0
C      1  0.4946790000000  0.5463390000000  0.4199250000000 1.0
C      1  0.4570870000000  0.5706520000000  0.5197960000000 1.0
C      1  0.4698630000000  0.5560290000000  0.5657790000000 1.0
C      1  0.5682060000000  0.5326810000000  0.4234430000000 1.0
C      1  0.4689970000000  0.5187160000000  0.4306200000000 1.0
C      1  0.5177010000000  0.5081930000000  0.5242980000000 1.0
C      1  0.5325170000000  0.5092120000000  0.4101780000000 1.0
C      1  0.5641550000000  0.4461190000000  0.4642110000000 1.0
C      1  0.4389140000000  0.4416390000000  0.5008230000000 1.0
C      1  0.3976190000000  0.4890240000000  0.5162000000000 1.0
C      1  0.4969340000000  0.5655820000000  0.5631490000000 1.0
C      1  0.4203160000000  0.5686470000000  0.4868510000000 1.0
C      1  0.4729500000000  0.4768370000000  0.5901680000000 1.0
C      1  0.5068720000000  0.4045770000000  0.5124500000000 1.0
C      1  0.4555150000000  0.4885430000000  0.4970740000000 1.0
C      1  0.5284860000000  0.3979660000000  0.4718980000000 1.0
C      1  0.4528100000000  0.4163780000000  0.5116950000000 1.0
C      1  0.5848210000000  0.5456610000000  0.4435120000000 1.0
C      1  0.5406910000000  0.5051770000000  0.4866520000000 1.0
C      1  0.5028490000000  0.4736070000000  0.5305250000000 1.0
C      1  0.5644630000000  0.4693370000000  0.5692690000000 1.0
C      1  0.5388650000000  0.5237520000000  0.5394750000000 1.0
C      1  0.5240960000000  0.4416060000000  0.5710150000000 1.0
C      1  0.4458260000000  0.4744340000000  0.5819080000000 1.0
C      1  0.5029350000000  0.4849260000000  0.4756940000000 1.0
C      1  0.5533600000000  0.4336870000000  0.4905490000000 1.0
C      1  0.4884280000000  0.5910680000000  0.4908110000000 1.0
C      1  0.5372040000000  0.5808890000000  0.5006420000000 1.0
C      1  0.4481730000000  0.4429270000000  0.4703600000000 1.0
C      1  0.5236300000000  0.4304810000000  0.5436850000000 1.0
C      1  0.4938910000000  0.5688750000000  0.4389610000000 1.0
C      1  0.5429220000000  0.5653430000000  0.4466730000000 1.0
C      1  0.4288370000000  0.5403410000000  0.5481920000000 1.0
C      1  0.5180010000000  0.5791080000000  0.4522210000000 1.0
C      1  0.5088380000000  0.4931500000000  0.4160240000000 1.0
C      1  0.4871610000000  0.4937750000000  0.3959480000000 1.0
C      1  0.5379130000000  0.4583930000000  0.4366630000000 1.0
C      1  0.4214400000000  0.4816830000000  0.5335630000000 1.0
C      1  0.5348730000000  0.4024240000000  0.5187680000000 1.0
C      1  0.5858640000000  0.4901820000000  0.4695950000000 1.0
C      1  0.4666510000000  0.4971080000000  0.5483940000000 1.0
C      1  0.4638810000000  0.4457390000000  0.5535350000000 1.0
C      1  0.4827990000000  0.5837190000000  0.5182830000000 1.0
C      1  0.4696770000000  0.4059600000000  0.4893520000000 1.0
C      1  0.4964290000000  0.5262650000000  0.5160610000000 1.0
C      1  0.5070180000000  0.5127150000000  0.4685800000000 1.0
C      1  0.4777160000000  0.4477070000000  0.4958650000000 1.0
C      1  0.4441220000000  0.5648840000000  0.4378310000000 1.0
C      1  0.5022000000000  0.4268400000000  0.4912140000000 1.0
C      1  0.4948600000000  0.5346080000000  0.4870810000000 1.0
C      1  0.4919580000000  0.4285740000000  0.4488840000000 1.0
C      1  0.4487920000000  0.5209550000000  0.4540470000000 1.0
C      1  0.4986570000000  0.5130020000000  0.4384500000000 1.0
C      1  0.5408790000000  0.5289120000000  0.5859120000000 1.0
C      1  0.5455450000000  0.5516620000000  0.4215130000000 1.0
C      1  0.4351380000000  0.5237380000000  0.5722750000000 1.0
C      1  0.4815600000000  0.4764830000000  0.4921470000000 1.0
C      1  0.5507380000000  0.5339080000000  0.4920760000000 1.0
C      1  0.5722380000000  0.5551950000000  0.5332190000000 1.0
C      1  0.3978690000000  0.4755540000000  0.4908480000000 1.0
C      1  0.4646560000000  0.4941000000000  0.4137590000000 1.0
C      1  0.4865180000000  0.4950160000000  0.5718040000000 1.0
C      1  0.5405620000000  0.4294830000000  0.4391750000000 1.0
C      1  0.5187710000000  0.4156550000000  0.4519420000000 1.0
C      1  0.4452320000000  0.4675000000000  0.4517740000000 1.0
C      1  0.5245410000000  0.4545010000000  0.5236900000000 1.0
C      1  0.4891810000000  0.4520070000000  0.4315080000000 1.0
C      1  0.5557000000000  0.5062420000000  0.4281600000000 1.0
C      1  0.5906730000000  0.4987210000000  0.5419190000000 1.0
C      1  0.5794920000000  0.5064280000000  0.5163620000000 1.0
C      1  0.5865200000000  0.4621470000000  0.4784370000000 1.0
C      1  0.4675040000000  0.4201540000000  0.5388430000000 1.0
C      1  0.5160190000000  0.5913780000000  0.4798790000000 1.0
C      1  0.5678790000000  0.4572970000000  0.5429580000000 1.0
C      1  0.5276020000000  0.5545780000000  0.4866950000000 1.0
C      1  0.5468810000000  0.4043720000000  0.4926550000000 1.0
C      1  0.5936510000000  0.5121060000000  0.4894010000000 1.0
C      1  0.4005980000000  0.5221330000000  0.4826590000000 1.0
C      1  0.5603320000000  0.4851530000000  0.5055000000000 1.0
C      1  0.5496740000000  0.5660260000000  0.5468110000000 1.0
C      1  0.4387380000000  0.4952730000000  0.5607770000000 1.0
C      1  0.5033550000000  0.5766030000000  0.5371230000000 1.0
C      1  0.4491130000000  0.5650540000000  0.4909570000000 1.0
C      1  0.3965980000000  0.5191080000000  0.5122980000000 1.0
C      1  0.5474230000000  0.4716170000000  0.5287060000000 1.0
C      1  0.4616180000000  0.5352460000000  0.4823540000000 1.0
C      1  0.4673600000000  0.5777470000000  0.4470650000000 1.0
C      1  0.4676680000000  0.4202640000000  0.4636690000000 1.0
C      1  0.4654130000000  0.4697520000000  0.4310720000000 1.0
C      1  0.5326510000000  0.4694740000000  0.5746680000000 1.0
C      1  0.4433800000000  0.4692270000000  0.5161300000000 1.0
C      1  0.4297360000000  0.5424480000000  0.4466520000000 1.0
C      1  0.5198430000000  0.5129040000000  0.5995450000000 1.0
C      1  0.4568230000000  0.5488390000000  0.5402700000000 1.0
C      1  0.5260570000000  0.4671990000000  0.4722310000000 1.0
C      1  0.5311720000000  0.5813410000000  0.5298690000000 1.0
END
