TITL C-950523-3027-202 -1.52164124717397e-06 125000 -1230.95745842656 0 0 199 (C1) n - 1
REM
REM in /home/bkarasulu/work/CARBON/AIRSS/Generating-Clusters/EDIP-Nigel-Params/with-SteepDescent/Only-C1/SD-CG/HFTN-CG
REM
REM
REM
REM
REM
REM ./C.cell (11c1c37f851c82e70ff6c80c92926a4b)
REM
REM compiler GCC version 9.2.1 20190827 (Red Hat 9.2.1-1)
REM options -cpp -mtune=generic -march=x86-64 -g -O0 -fpre-include=/usr/include/finclude/math-vector-fortran.h
REM seed -1267212353 -1247675848 522387669 -1277251724 -1847627414 -1328557371 -93461185 842986622 -62651330 -320979332 -1290241986 219390592 1793310665 -1470057 952892240 880623145 609511962 407442268 -158336445 -1162768495 1504246503 1045409403 1791545589 1106233971 -486704831 2111625882 581115806 109697160 -1140574177 1667745031 -2094214630 -1358889950 -1167931075
REM
CELL 1.54180   50.00000   50.00000   50.00000   90.00000   90.00000   90.00000
LATT -1
SFAC C  
C      1  0.5169010000000  0.5555720000000  0.5541980000000 1.0
C      1  0.4649420000000  0.4255460000000  0.5624220000000 1.0
C      1  0.5113960000000  0.3944220000000  0.4502700000000 1.0
C      1  0.5378990000000  0.3879280000000  0.4617370000000 1.0
C      1  0.5262870000000  0.5248490000000  0.4552020000000 1.0
C      1  0.3999000000000  0.5104270000000  0.5003990000000 1.0
C      1  0.5054030000000  0.5474270000000  0.3981720000000 1.0
C      1  0.5551850000000  0.5502940000000  0.4029720000000 1.0
C      1  0.5586090000000  0.5388030000000  0.5254050000000 1.0
C      1  0.4819630000000  0.6059750000000  0.4659020000000 1.0
C      1  0.4800840000000  0.6043400000000  0.4948560000000 1.0
C      1  0.5141530000000  0.4784530000000  0.4679960000000 1.0
C      1  0.4934830000000  0.5358980000000  0.5691200000000 1.0
C      1  0.5279580000000  0.4245230000000  0.4847280000000 1.0
C      1  0.5705700000000  0.5295760000000  0.4163720000000 1.0
C      1  0.4305900000000  0.4046590000000  0.4857820000000 1.0
C      1  0.4033460000000  0.5476050000000  0.5328060000000 1.0
C      1  0.6026640000000  0.4847310000000  0.5450460000000 1.0
C      1  0.4782680000000  0.5505660000000  0.4924770000000 1.0
C      1  0.4861860000000  0.4721270000000  0.4666810000000 1.0
C      1  0.4309180000000  0.4583190000000  0.4410720000000 1.0
C      1  0.6195850000000  0.5152800000000  0.5078330000000 1.0
C      1  0.6002390000000  0.4500250000000  0.5028470000000 1.0
C      1  0.5329550000000  0.5113430000000  0.5951510000000 1.0
C      1  0.4767800000000  0.4775750000000  0.4382540000000 1.0
C      1  0.5570500000000  0.5502010000000  0.4728390000000 1.0
C      1  0.4806130000000  0.4451480000000  0.4783140000000 1.0
C      1  0.5296780000000  0.4642310000000  0.6086160000000 1.0
C      1  0.5323390000000  0.5975600000000  0.4467190000000 1.0
C      1  0.4465210000000  0.5121640000000  0.5771610000000 1.0
C      1  0.5442180000000  0.4916630000000  0.3808460000000 1.0
C      1  0.4423390000000  0.3998010000000  0.5292190000000 1.0
C      1  0.4880240000000  0.4504120000000  0.3948660000000 1.0
C      1  0.4312330000000  0.4597900000000  0.4726220000000 1.0
C      1  0.5909800000000  0.5134590000000  0.4637230000000 1.0
C      1  0.4579040000000  0.4549460000000  0.4273630000000 1.0
C      1  0.4477020000000  0.5149910000000  0.5247610000000 1.0
C      1  0.4384960000000  0.4825920000000  0.5532940000000 1.0
C      1  0.4643940000000  0.4010530000000  0.5482960000000 1.0
C      1  0.4384730000000  0.4158220000000  0.4613500000000 1.0
C      1  0.3995000000000  0.5550220000000  0.4828430000000 1.0
C      1  0.4268530000000  0.4657430000000  0.5281790000000 1.0
C      1  0.5585850000000  0.4668280000000  0.4578720000000 1.0
C      1  0.5312060000000  0.5348670000000  0.3966400000000 1.0
C      1  0.3763100000000  0.4910410000000  0.5390180000000 1.0
C      1  0.5080940000000  0.5729920000000  0.4092820000000 1.0
C      1  0.5877870000000  0.5788580000000  0.4998830000000 1.0
C      1  0.4061650000000  0.4485160000000  0.4883070000000 1.0
C      1  0.5155500000000  0.5601260000000  0.6026830000000 1.0
C      1  0.5017640000000  0.4333170000000  0.5250560000000 1.0
C      1  0.5222160000000  0.4797980000000  0.5244110000000 1.0
C      1  0.4391560000000  0.5018500000000  0.4169100000000 1.0
C      1  0.5058820000000  0.5001060000000  0.6300670000000 1.0
C      1  0.3851740000000  0.4816430000000  0.5631580000000 1.0
C      1  0.5191010000000  0.6047870000000  0.4734200000000 1.0
C      1  0.5548380000000  0.5838530000000  0.5339830000000 1.0
C      1  0.4542740000000  0.5456090000000  0.4020430000000 1.0
C      1  0.5561960000000  0.5547830000000  0.5858490000000 1.0
C      1  0.4644900000000  0.5846570000000  0.4525360000000 1.0
C      1  0.5814590000000  0.5756860000000  0.5292400000000 1.0
C      1  0.4627280000000  0.5353270000000  0.6107640000000 1.0
C      1  0.4856730000000  0.4860840000000  0.5656070000000 1.0
C      1  0.5852760000000  0.4848430000000  0.5691680000000 1.0
C      1  0.4965070000000  0.6190940000000  0.5120630000000 1.0
C      1  0.5812890000000  0.4395640000000  0.5468660000000 1.0
C      1  0.5727520000000  0.4564960000000  0.5715610000000 1.0
C      1  0.5903370000000  0.4617660000000  0.5290540000000 1.0
C      1  0.4879090000000  0.4915390000000  0.6095900000000 1.0
C      1  0.5194470000000  0.4138940000000  0.4300540000000 1.0
C      1  0.4524370000000  0.4416590000000  0.4868620000000 1.0
C      1  0.5183070000000  0.5089490000000  0.5401060000000 1.0
C      1  0.4053170000000  0.4668730000000  0.5927880000000 1.0
C      1  0.3903580000000  0.4653270000000  0.5037310000000 1.0
C      1  0.5483740000000  0.4627440000000  0.4067220000000 1.0
C      1  0.4269520000000  0.4976640000000  0.5090670000000 1.0
C      1  0.5789160000000  0.5118880000000  0.5761260000000 1.0
C      1  0.5345720000000  0.5062460000000  0.4045770000000 1.0
C      1  0.4315440000000  0.4774890000000  0.5991530000000 1.0
C      1  0.4838600000000  0.3969910000000  0.4955360000000 1.0
C      1  0.4868760000000  0.5513690000000  0.5948490000000 1.0
C      1  0.4797090000000  0.5030630000000  0.3854080000000 1.0
C      1  0.5025390000000  0.4760930000000  0.3926520000000 1.0
C      1  0.4381480000000  0.5795380000000  0.4676810000000 1.0
C      1  0.5425620000000  0.3797840000000  0.4888740000000 1.0
C      1  0.4583900000000  0.5315040000000  0.4855920000000 1.0
C      1  0.4975930000000  0.5645490000000  0.4559320000000 1.0
C      1  0.5602350000000  0.5889440000000  0.4521480000000 1.0
C      1  0.3799590000000  0.4963170000000  0.4557380000000 1.0
C      1  0.4152420000000  0.5484050000000  0.4326810000000 1.0
C      1  0.5271830000000  0.4560070000000  0.5610550000000 1.0
C      1  0.5957060000000  0.5566620000000  0.4406870000000 1.0
C      1  0.4167650000000  0.4169580000000  0.5311500000000 1.0
C      1  0.4454720000000  0.5920720000000  0.5432110000000 1.0
C      1  0.4301740000000  0.5321240000000  0.4128820000000 1.0
C      1  0.4985520000000  0.5343940000000  0.4567830000000 1.0
C      1  0.4608180000000  0.5025440000000  0.4389000000000 1.0
C      1  0.5802180000000  0.4287120000000  0.4951650000000 1.0
C      1  0.5648880000000  0.4734770000000  0.5208350000000 1.0
C      1  0.5127060000000  0.4111020000000  0.5756820000000 1.0
C      1  0.5663660000000  0.5917190000000  0.4816370000000 1.0
C      1  0.6226490000000  0.5426510000000  0.5020260000000 1.0
C      1  0.5729410000000  0.4181280000000  0.5242280000000 1.0
C      1  0.4652330000000  0.4125630000000  0.4523720000000 1.0
C      1  0.5882860000000  0.5519060000000  0.5458440000000 1.0
C      1  0.4900070000000  0.3974360000000  0.5338150000000 1.0
C      1  0.4671870000000  0.5029660000000  0.4821190000000 1.0
C      1  0.3994610000000  0.5102170000000  0.4702490000000 1.0
C      1  0.4335150000000  0.5917370000000  0.5175790000000 1.0
C      1  0.4414980000000  0.5751900000000  0.4965370000000 1.0
C      1  0.4277220000000  0.5789790000000  0.5631060000000 1.0
C      1  0.5473940000000  0.4517550000000  0.5140190000000 1.0
C      1  0.4536460000000  0.4002730000000  0.5025720000000 1.0
C      1  0.5489810000000  0.5590450000000  0.5044690000000 1.0
C      1  0.5766560000000  0.4219730000000  0.4642190000000 1.0
C      1  0.4714760000000  0.4285330000000  0.4296780000000 1.0
C      1  0.4992080000000  0.4263520000000  0.4949460000000 1.0
C      1  0.4182950000000  0.4808870000000  0.4265410000000 1.0
C      1  0.5312980000000  0.4930890000000  0.6178140000000 1.0
C      1  0.4102220000000  0.4209390000000  0.5009080000000 1.0
C      1  0.5053760000000  0.5371620000000  0.5005490000000 1.0
C      1  0.5231150000000  0.4880120000000  0.4417240000000 1.0
C      1  0.5313850000000  0.4358580000000  0.5364410000000 1.0
C      1  0.4650620000000  0.5310100000000  0.5618980000000 1.0
C      1  0.5385910000000  0.5384550000000  0.6055390000000 1.0
C      1  0.5610870000000  0.5030560000000  0.4257450000000 1.0
C      1  0.4239630000000  0.5503090000000  0.5530640000000 1.0
C      1  0.4183160000000  0.4427490000000  0.5490830000000 1.0
C      1  0.4696910000000  0.5777210000000  0.5059180000000 1.0
C      1  0.4693680000000  0.5728850000000  0.5479640000000 1.0
C      1  0.5305240000000  0.5706720000000  0.5769710000000 1.0
C      1  0.3956990000000  0.4548070000000  0.5669940000000 1.0
C      1  0.4132890000000  0.5644820000000  0.4585550000000 1.0
C      1  0.5120650000000  0.6047430000000  0.5304660000000 1.0
C      1  0.5142000000000  0.3943760000000  0.5511830000000 1.0
C      1  0.3967910000000  0.5394570000000  0.5068270000000 1.0
C      1  0.5044290000000  0.5753640000000  0.5319550000000 1.0
C      1  0.4424290000000  0.5358910000000  0.4615330000000 1.0
C      1  0.5719930000000  0.5381330000000  0.5668320000000 1.0
C      1  0.5305170000000  0.5228930000000  0.4853200000000 1.0
C      1  0.5436710000000  0.4052260000000  0.5018890000000 1.0
C      1  0.4545020000000  0.4895490000000  0.3927560000000 1.0
C      1  0.6088160000000  0.5002150000000  0.4841280000000 1.0
C      1  0.4410970000000  0.4403090000000  0.5688900000000 1.0
C      1  0.4970600000000  0.5178640000000  0.5212250000000 1.0
C      1  0.5114530000000  0.5768720000000  0.4802690000000 1.0
C      1  0.5257440000000  0.4922400000000  0.4924070000000 1.0
C      1  0.5391860000000  0.4061900000000  0.5398650000000 1.0
C      1  0.4797640000000  0.5254810000000  0.4370610000000 1.0
C      1  0.4736430000000  0.4746820000000  0.5199180000000 1.0
C      1  0.4798320000000  0.5322710000000  0.3933960000000 1.0
C      1  0.5722880000000  0.5712710000000  0.4309380000000 1.0
C      1  0.6010620000000  0.5122250000000  0.5310760000000 1.0
C      1  0.4967980000000  0.4624510000000  0.5297930000000 1.0
C      1  0.6045010000000  0.5581150000000  0.4875410000000 1.0
C      1  0.4369580000000  0.5486390000000  0.6009830000000 1.0
C      1  0.4388530000000  0.4897410000000  0.4817920000000 1.0
C      1  0.4976500000000  0.4301520000000  0.4175050000000 1.0
C      1  0.4515680000000  0.4554630000000  0.5138840000000 1.0
C      1  0.4850600000000  0.3946840000000  0.4646640000000 1.0
C      1  0.4506990000000  0.5430410000000  0.5394290000000 1.0
C      1  0.5754530000000  0.5161640000000  0.5145960000000 1.0
C      1  0.4991360000000  0.4588810000000  0.5739480000000 1.0
C      1  0.5997300000000  0.4733160000000  0.4866920000000 1.0
C      1  0.5599960000000  0.4986800000000  0.4645620000000 1.0
C      1  0.4589910000000  0.4601810000000  0.3977590000000 1.0
C      1  0.4473460000000  0.4675510000000  0.5773960000000 1.0
C      1  0.6037640000000  0.5079620000000  0.4368550000000 1.0
C      1  0.5877790000000  0.5444890000000  0.4669400000000 1.0
C      1  0.5185970000000  0.5633240000000  0.5062490000000 1.0
C      1  0.5416260000000  0.5494820000000  0.4431150000000 1.0
C      1  0.4437160000000  0.5755030000000  0.5884490000000 1.0
C      1  0.3919240000000  0.4867370000000  0.4336110000000 1.0
C      1  0.4611280000000  0.5485980000000  0.4387940000000 1.0
C      1  0.5380420000000  0.4210150000000  0.5855930000000 1.0
C      1  0.5935300000000  0.4349000000000  0.4455130000000 1.0
C      1  0.5005680000000  0.4655250000000  0.6020450000000 1.0
C      1  0.5351840000000  0.5333650000000  0.5427670000000 1.0
C      1  0.5400760000000  0.6049710000000  0.5220320000000 1.0
C      1  0.5012310000000  0.4901810000000  0.4210800000000 1.0
C      1  0.4894640000000  0.4307900000000  0.5764920000000 1.0
C      1  0.5437920000000  0.6074910000000  0.4927480000000 1.0
C      1  0.4274160000000  0.5078780000000  0.4597090000000 1.0
C      1  0.5195230000000  0.5720240000000  0.4362970000000 1.0
C      1  0.5524380000000  0.4108370000000  0.4506350000000 1.0
C      1  0.5399850000000  0.4651200000000  0.4342510000000 1.0
C      1  0.5445680000000  0.4495340000000  0.5839000000000 1.0
C      1  0.5303990000000  0.4674670000000  0.3841930000000 1.0
C      1  0.4868590000000  0.4959380000000  0.5032670000000 1.0
C      1  0.4723750000000  0.5745540000000  0.5798510000000 1.0
C      1  0.5066220000000  0.5078980000000  0.5689440000000 1.0
C      1  0.4236890000000  0.5323530000000  0.5786240000000 1.0
C      1  0.5429380000000  0.4498070000000  0.4844860000000 1.0
C      1  0.5879230000000  0.4843680000000  0.4263030000000 1.0
C      1  0.4643770000000  0.4916970000000  0.5417940000000 1.0
C      1  0.4594390000000  0.5040250000000  0.6062820000000 1.0
C      1  0.5675790000000  0.4925700000000  0.4982370000000 1.0
C      1  0.5856760000000  0.4618290000000  0.4464720000000 1.0
C      1  0.3813120000000  0.4901400000000  0.5119640000000 1.0
C      1  0.5985540000000  0.5335690000000  0.4225380000000 1.0
END
