TITL C-951345-2650-356 -1.61228760088549e-06 125000 -1192.38538034594 0 0 193 (C1) n - 1
REM
REM in /home/bkarasulu/work/CARBON/AIRSS/Generating-Clusters/EDIP-Nigel-Params/with-SteepDescent/Only-C1/SD-CG/HFTN-CG
REM
REM
REM
REM
REM
REM ./C.cell (11c1c37f851c82e70ff6c80c92926a4b)
REM
REM compiler GCC version 9.2.1 20190827 (Red Hat 9.2.1-1)
REM options -cpp -mtune=generic -march=x86-64 -g -O0 -fpre-include=/usr/include/finclude/math-vector-fortran.h
REM seed -855278616 940261779 698995737 -1460445629 100120330 -112673585 212609813 -1563305469 930439901 -418040942 -806071630 475191158 -126815588 -690685399 856973376 -1180651145 -834597307 367188474 -2007108533 -452348919 -2086156955 -77161573 2075247770 1138505549 2121610564 -2094117819 -1561620980 -1512595102 1702557584 -1073545277 -1113557243 -588560921 -402826521
REM
CELL 1.54180   50.00000   50.00000   50.00000   90.00000   90.00000   90.00000
LATT -1
SFAC C  
C      1  0.5306490000000  0.4778810000000  0.5983990000000 1.0
C      1  0.6074960000000  0.4458810000000  0.4935920000000 1.0
C      1  0.5596740000000  0.5330250000000  0.6010250000000 1.0
C      1  0.5209660000000  0.3871260000000  0.5488610000000 1.0
C      1  0.4902580000000  0.6160230000000  0.4930780000000 1.0
C      1  0.5535770000000  0.5138870000000  0.5214560000000 1.0
C      1  0.4864960000000  0.4982880000000  0.6033680000000 1.0
C      1  0.5366790000000  0.5137320000000  0.4583720000000 1.0
C      1  0.4219130000000  0.4624130000000  0.4986810000000 1.0
C      1  0.4611920000000  0.4522450000000  0.5985560000000 1.0
C      1  0.5001550000000  0.3767800000000  0.4798250000000 1.0
C      1  0.4843920000000  0.4785370000000  0.4986500000000 1.0
C      1  0.5230790000000  0.4406590000000  0.5223240000000 1.0
C      1  0.4890290000000  0.5564410000000  0.5912190000000 1.0
C      1  0.5214020000000  0.6004680000000  0.5205710000000 1.0
C      1  0.4389150000000  0.4110500000000  0.5057810000000 1.0
C      1  0.5408480000000  0.5299990000000  0.3783180000000 1.0
C      1  0.3959530000000  0.4629960000000  0.5420320000000 1.0
C      1  0.5530140000000  0.5307460000000  0.5477440000000 1.0
C      1  0.5849060000000  0.5131790000000  0.4586520000000 1.0
C      1  0.4796410000000  0.5707480000000  0.4182010000000 1.0
C      1  0.4430220000000  0.5831180000000  0.4945530000000 1.0
C      1  0.4429340000000  0.5061250000000  0.4887720000000 1.0
C      1  0.5276660000000  0.4212780000000  0.4292070000000 1.0
C      1  0.6114840000000  0.5340770000000  0.4906530000000 1.0
C      1  0.4132270000000  0.5329960000000  0.4555530000000 1.0
C      1  0.5951140000000  0.5405700000000  0.4667870000000 1.0
C      1  0.5130950000000  0.4743710000000  0.4067920000000 1.0
C      1  0.4117110000000  0.5580940000000  0.4675890000000 1.0
C      1  0.4872450000000  0.4189830000000  0.4549670000000 1.0
C      1  0.4540930000000  0.5480280000000  0.4618830000000 1.0
C      1  0.5366150000000  0.5899610000000  0.4698370000000 1.0
C      1  0.5367050000000  0.5277890000000  0.5003500000000 1.0
C      1  0.5109320000000  0.5152690000000  0.4999200000000 1.0
C      1  0.5165890000000  0.5044850000000  0.5924420000000 1.0
C      1  0.4910400000000  0.5290940000000  0.4819270000000 1.0
C      1  0.5350890000000  0.4643650000000  0.4938700000000 1.0
C      1  0.5119630000000  0.4679580000000  0.5311420000000 1.0
C      1  0.5537980000000  0.6071400000000  0.4912030000000 1.0
C      1  0.5749810000000  0.5523690000000  0.5486610000000 1.0
C      1  0.4787030000000  0.4338190000000  0.5381790000000 1.0
C      1  0.5726590000000  0.5439630000000  0.4182340000000 1.0
C      1  0.3963740000000  0.4897370000000  0.5847910000000 1.0
C      1  0.5090240000000  0.4575420000000  0.6003600000000 1.0
C      1  0.4905030000000  0.5222670000000  0.4324120000000 1.0
C      1  0.4280990000000  0.5329060000000  0.5096840000000 1.0
C      1  0.4748910000000  0.5373330000000  0.5681320000000 1.0
C      1  0.5631340000000  0.4168760000000  0.4933600000000 1.0
C      1  0.4692190000000  0.4584270000000  0.4022890000000 1.0
C      1  0.5754980000000  0.5596230000000  0.4752220000000 1.0
C      1  0.5432670000000  0.4299780000000  0.5420080000000 1.0
C      1  0.5074920000000  0.5795710000000  0.4268960000000 1.0
C      1  0.4462680000000  0.5310660000000  0.4141060000000 1.0
C      1  0.4267250000000  0.5813780000000  0.4697820000000 1.0
C      1  0.5281240000000  0.5551140000000  0.5086910000000 1.0
C      1  0.4018420000000  0.5207980000000  0.5171720000000 1.0
C      1  0.3772090000000  0.4822440000000  0.5009800000000 1.0
C      1  0.5160780000000  0.5096570000000  0.5607090000000 1.0
C      1  0.6201570000000  0.5038960000000  0.4888250000000 1.0
C      1  0.4727640000000  0.4535260000000  0.4892970000000 1.0
C      1  0.4812500000000  0.4326650000000  0.4070600000000 1.0
C      1  0.4863200000000  0.4096030000000  0.5237090000000 1.0
C      1  0.5589530000000  0.5119560000000  0.5702310000000 1.0
C      1  0.4530910000000  0.4799570000000  0.5302860000000 1.0
C      1  0.5336100000000  0.4020650000000  0.4934620000000 1.0
C      1  0.5654640000000  0.5564580000000  0.5829190000000 1.0
C      1  0.5838630000000  0.5756590000000  0.4988900000000 1.0
C      1  0.4814980000000  0.5104400000000  0.3974250000000 1.0
C      1  0.4992540000000  0.4328350000000  0.4301370000000 1.0
C      1  0.5658280000000  0.4723800000000  0.5244400000000 1.0
C      1  0.4890920000000  0.6090910000000  0.4642430000000 1.0
C      1  0.5613330000000  0.5065860000000  0.4787680000000 1.0
C      1  0.6002120000000  0.4958130000000  0.5094390000000 1.0
C      1  0.5968460000000  0.4749260000000  0.5301520000000 1.0
C      1  0.5257810000000  0.5555140000000  0.4224020000000 1.0
C      1  0.4984580000000  0.5522350000000  0.5214010000000 1.0
C      1  0.5170540000000  0.5346740000000  0.4438290000000 1.0
C      1  0.4795560000000  0.5604270000000  0.3916760000000 1.0
C      1  0.4096010000000  0.4835030000000  0.4568630000000 1.0
C      1  0.5692430000000  0.4481100000000  0.4303120000000 1.0
C      1  0.4875180000000  0.4814290000000  0.3930410000000 1.0
C      1  0.4768030000000  0.5975040000000  0.5370670000000 1.0
C      1  0.5094720000000  0.4193030000000  0.5051370000000 1.0
C      1  0.5987170000000  0.5347940000000  0.5413600000000 1.0
C      1  0.5665280000000  0.5713400000000  0.5235310000000 1.0
C      1  0.5371690000000  0.5643620000000  0.5791780000000 1.0
C      1  0.4760660000000  0.5224110000000  0.5256700000000 1.0
C      1  0.5539240000000  0.5615730000000  0.4291300000000 1.0
C      1  0.4000860000000  0.4339540000000  0.5248960000000 1.0
C      1  0.5061180000000  0.5492150000000  0.4667830000000 1.0
C      1  0.4592020000000  0.4197970000000  0.4517300000000 1.0
C      1  0.4806320000000  0.5738200000000  0.5002030000000 1.0
C      1  0.5451880000000  0.4392340000000  0.4139280000000 1.0
C      1  0.4347320000000  0.4354660000000  0.5601450000000 1.0
C      1  0.4682940000000  0.4834170000000  0.5565370000000 1.0
C      1  0.4379110000000  0.4937970000000  0.4073580000000 1.0
C      1  0.5719630000000  0.4110970000000  0.4658430000000 1.0
C      1  0.5378450000000  0.4415240000000  0.5690270000000 1.0
C      1  0.5024900000000  0.4632180000000  0.4340090000000 1.0
C      1  0.4459010000000  0.4973110000000  0.5760870000000 1.0
C      1  0.5766930000000  0.4373850000000  0.4564310000000 1.0
C      1  0.5128780000000  0.5981660000000  0.4506820000000 1.0
C      1  0.4472650000000  0.5633790000000  0.5586510000000 1.0
C      1  0.4249420000000  0.5647360000000  0.5111820000000 1.0
C      1  0.4649490000000  0.4975570000000  0.5095990000000 1.0
C      1  0.4479030000000  0.5336290000000  0.5331850000000 1.0
C      1  0.5642910000000  0.4766360000000  0.4911240000000 1.0
C      1  0.6096470000000  0.4480570000000  0.5214520000000 1.0
C      1  0.4019470000000  0.4772530000000  0.5154620000000 1.0
C      1  0.4830350000000  0.4692750000000  0.6042200000000 1.0
C      1  0.4688620000000  0.6133060000000  0.5132480000000 1.0
C      1  0.5362900000000  0.4200560000000  0.4589640000000 1.0
C      1  0.3864910000000  0.4891720000000  0.5580890000000 1.0
C      1  0.5498070000000  0.5960620000000  0.5191160000000 1.0
C      1  0.3967670000000  0.5743090000000  0.5137700000000 1.0
C      1  0.4183230000000  0.5330640000000  0.4266330000000 1.0
C      1  0.4931610000000  0.5361510000000  0.3867580000000 1.0
C      1  0.4686570000000  0.5443990000000  0.4317570000000 1.0
C      1  0.4144830000000  0.5073380000000  0.4146070000000 1.0
C      1  0.5576290000000  0.5727410000000  0.4560400000000 1.0
C      1  0.4577060000000  0.4617900000000  0.4634740000000 1.0
C      1  0.5297590000000  0.4980950000000  0.4137260000000 1.0
C      1  0.4969010000000  0.4349230000000  0.4803510000000 1.0
C      1  0.4654730000000  0.4000370000000  0.5047210000000 1.0
C      1  0.4835960000000  0.5828110000000  0.5807540000000 1.0
C      1  0.4549430000000  0.4316850000000  0.5804910000000 1.0
C      1  0.5346620000000  0.4898880000000  0.5402150000000 1.0
C      1  0.5254880000000  0.4474310000000  0.4709210000000 1.0
C      1  0.5186290000000  0.5542450000000  0.6001400000000 1.0
C      1  0.4203410000000  0.4603590000000  0.5599470000000 1.0
C      1  0.5494860000000  0.5092640000000  0.3949280000000 1.0
C      1  0.4775220000000  0.4765970000000  0.4463620000000 1.0
C      1  0.5817230000000  0.6027110000000  0.4889950000000 1.0
C      1  0.5091980000000  0.4427110000000  0.5752070000000 1.0
C      1  0.5149130000000  0.5709260000000  0.4855190000000 1.0
C      1  0.4794200000000  0.5048890000000  0.4540030000000 1.0
C      1  0.4322510000000  0.4790700000000  0.4757200000000 1.0
C      1  0.5015060000000  0.5627800000000  0.5494460000000 1.0
C      1  0.6048540000000  0.4716040000000  0.4532880000000 1.0
C      1  0.5868580000000  0.4720870000000  0.4290560000000 1.0
C      1  0.6053550000000  0.5131900000000  0.5578730000000 1.0
C      1  0.5049810000000  0.5929690000000  0.5430910000000 1.0
C      1  0.4469460000000  0.5822230000000  0.4502380000000 1.0
C      1  0.4647980000000  0.6030350000000  0.4525410000000 1.0
C      1  0.4916360000000  0.4561210000000  0.5522330000000 1.0
C      1  0.5905300000000  0.5239660000000  0.5147380000000 1.0
C      1  0.4127050000000  0.5770470000000  0.5355710000000 1.0
C      1  0.5306330000000  0.5281590000000  0.6069480000000 1.0
C      1  0.4599360000000  0.5102950000000  0.5996660000000 1.0
C      1  0.4225660000000  0.4199750000000  0.4819830000000 1.0
C      1  0.5118090000000  0.4864970000000  0.4963220000000 1.0
C      1  0.4855200000000  0.5108170000000  0.5530810000000 1.0
C      1  0.5517140000000  0.4653410000000  0.5812080000000 1.0
C      1  0.4566120000000  0.5395420000000  0.6034850000000 1.0
C      1  0.5250020000000  0.4683110000000  0.4506280000000 1.0
C      1  0.5211600000000  0.5433020000000  0.3936810000000 1.0
C      1  0.5732050000000  0.5170510000000  0.4103710000000 1.0
C      1  0.4466190000000  0.4540250000000  0.5151140000000 1.0
C      1  0.5841290000000  0.4044350000000  0.5137690000000 1.0
C      1  0.5575840000000  0.3885510000000  0.5197910000000 1.0
C      1  0.5890830000000  0.4575160000000  0.4747320000000 1.0
C      1  0.4731360000000  0.3811780000000  0.4848290000000 1.0
C      1  0.4941400000000  0.3888690000000  0.5437970000000 1.0
C      1  0.5442840000000  0.4000120000000  0.5427540000000 1.0
C      1  0.5665030000000  0.4421600000000  0.5296420000000 1.0
C      1  0.4963680000000  0.3908770000000  0.4561680000000 1.0
C      1  0.4429370000000  0.4662730000000  0.4141330000000 1.0
C      1  0.3931160000000  0.5160090000000  0.5459060000000 1.0
C      1  0.3867850000000  0.5082940000000  0.4941600000000 1.0
C      1  0.4279040000000  0.4547540000000  0.4389290000000 1.0
C      1  0.4636600000000  0.5876100000000  0.5611610000000 1.0
C      1  0.4329540000000  0.4277080000000  0.4541040000000 1.0
C      1  0.4223150000000  0.4786940000000  0.5821200000000 1.0
C      1  0.4360140000000  0.5509640000000  0.5841840000000 1.0
C      1  0.4303930000000  0.4282700000000  0.5298990000000 1.0
C      1  0.5266440000000  0.5469590000000  0.5572400000000 1.0
C      1  0.4535520000000  0.5164720000000  0.4632050000000 1.0
C      1  0.3986990000000  0.5093090000000  0.4659210000000 1.0
C      1  0.4077680000000  0.5313300000000  0.5658260000000 1.0
C      1  0.4665370000000  0.4066670000000  0.5821820000000 1.0
C      1  0.6109450000000  0.4989360000000  0.4611670000000 1.0
C      1  0.5912540000000  0.4272120000000  0.5319290000000 1.0
C      1  0.5974970000000  0.4861170000000  0.5581700000000 1.0
C      1  0.4423760000000  0.6103760000000  0.5042370000000 1.0
C      1  0.4032990000000  0.4382730000000  0.4942580000000 1.0
C      1  0.5727780000000  0.4982980000000  0.4333120000000 1.0
C      1  0.5422800000000  0.4921020000000  0.4397960000000 1.0
C      1  0.5689690000000  0.4851180000000  0.5664330000000 1.0
C      1  0.4348950000000  0.5211930000000  0.5591950000000 1.0
C      1  0.4684320000000  0.5478440000000  0.4898910000000 1.0
C      1  0.4781840000000  0.3887240000000  0.5662550000000 1.0
C      1  0.5306270000000  0.4543040000000  0.3945740000000 1.0
C      1  0.5145480000000  0.6227960000000  0.5050660000000 1.0
END
