TITL C-951340-9809-112 -4.82376435724989e-06 125000 -497.824221797254 0 0 82 (C1) n - 1
REM
REM in /home/bkarasulu/work/CARBON/AIRSS/Generating-Clusters/EDIP-Nigel-Params/with-SteepDescent/Only-C1/SD-CG/HFTN-CG
REM
REM
REM
REM
REM
REM ./C.cell (11c1c37f851c82e70ff6c80c92926a4b)
REM
REM compiler GCC version 9.2.1 20190827 (Red Hat 9.2.1-1)
REM options -cpp -mtune=generic -march=x86-64 -g -O0 -fpre-include=/usr/include/finclude/math-vector-fortran.h
REM seed 1975020015 -64622103 -1883403401 484343479 -1253305979 1728404457 -525092486 443497134 456954022 402864255 -1489912630 -3446941 449903706 489649977 293205119 -543024465 -1407472284 691665844 505127939 -492187197 209647172 -819297633 1040476800 -1622446383 194550247 -1594435669 1170445320 -1307843115 -717104755 254871612 -600789510 -167677423 -915880778
REM
CELL 1.54180   50.00000   50.00000   50.00000   90.00000   90.00000   90.00000
LATT -1
SFAC C  
C      1  0.5254890000000  0.5103600000000  0.4058670000000 1.0
C      1  0.4522560000000  0.4538960000000  0.4937250000000 1.0
C      1  0.4632010000000  0.4947400000000  0.4467190000000 1.0
C      1  0.5540580000000  0.4526800000000  0.5115590000000 1.0
C      1  0.4648070000000  0.5249330000000  0.5492100000000 1.0
C      1  0.5480400000000  0.4376530000000  0.4665900000000 1.0
C      1  0.4786020000000  0.5478440000000  0.5633750000000 1.0
C      1  0.5003590000000  0.4277670000000  0.5255500000000 1.0
C      1  0.5294170000000  0.4747190000000  0.5793820000000 1.0
C      1  0.5068850000000  0.4942530000000  0.5774820000000 1.0
C      1  0.4235130000000  0.4867120000000  0.4771790000000 1.0
C      1  0.4286240000000  0.4587230000000  0.4775830000000 1.0
C      1  0.4779520000000  0.5220770000000  0.4706160000000 1.0
C      1  0.5087360000000  0.5613980000000  0.4580550000000 1.0
C      1  0.4211050000000  0.5430660000000  0.5242670000000 1.0
C      1  0.5133580000000  0.5190100000000  0.5269370000000 1.0
C      1  0.5742300000000  0.4668120000000  0.4951090000000 1.0
C      1  0.4769270000000  0.4511840000000  0.5657120000000 1.0
C      1  0.5689570000000  0.5285800000000  0.5397080000000 1.0
C      1  0.4279300000000  0.5283720000000  0.5014250000000 1.0
C      1  0.4912450000000  0.5386610000000  0.5869110000000 1.0
C      1  0.5216030000000  0.4418200000000  0.4534590000000 1.0
C      1  0.5287050000000  0.4524480000000  0.5593230000000 1.0
C      1  0.5091980000000  0.5281530000000  0.4230030000000 1.0
C      1  0.5482320000000  0.5102770000000  0.4504640000000 1.0
C      1  0.5229490000000  0.5259640000000  0.4978710000000 1.0
C      1  0.5708980000000  0.5026050000000  0.5296870000000 1.0
C      1  0.5004480000000  0.5598650000000  0.5461610000000 1.0
C      1  0.4893300000000  0.4638460000000  0.4252450000000 1.0
C      1  0.4395300000000  0.4804150000000  0.5513420000000 1.0
C      1  0.4785120000000  0.4818020000000  0.5793720000000 1.0
C      1  0.4571120000000  0.5612390000000  0.4860060000000 1.0
C      1  0.5629710000000  0.5299150000000  0.4703050000000 1.0
C      1  0.5159020000000  0.4703190000000  0.4372310000000 1.0
C      1  0.4370200000000  0.5050670000000  0.4577960000000 1.0
C      1  0.5149400000000  0.5573600000000  0.4291050000000 1.0
C      1  0.5232790000000  0.4917260000000  0.5393980000000 1.0
C      1  0.5511310000000  0.4576000000000  0.5397640000000 1.0
C      1  0.5457040000000  0.5432750000000  0.4919980000000 1.0
C      1  0.5800050000000  0.4951170000000  0.5035370000000 1.0
C      1  0.4388220000000  0.5364750000000  0.4597810000000 1.0
C      1  0.4786850000000  0.5270080000000  0.4202300000000 1.0
C      1  0.4916390000000  0.4781880000000  0.5419780000000 1.0
C      1  0.4195960000000  0.5003790000000  0.5039900000000 1.0
C      1  0.5821540000000  0.5146640000000  0.4837810000000 1.0
C      1  0.5252420000000  0.5729250000000  0.5067170000000 1.0
C      1  0.5190480000000  0.4852500000000  0.4810190000000 1.0
C      1  0.5135970000000  0.4254560000000  0.4990300000000 1.0
C      1  0.5122840000000  0.4641410000000  0.5200390000000 1.0
C      1  0.5062120000000  0.4910450000000  0.4559420000000 1.0
C      1  0.4964820000000  0.4748950000000  0.4961110000000 1.0
C      1  0.5489190000000  0.5675830000000  0.5219990000000 1.0
C      1  0.5492590000000  0.4888120000000  0.4734810000000 1.0
C      1  0.4765080000000  0.4956220000000  0.5053040000000 1.0
C      1  0.5070250000000  0.5340280000000  0.4720980000000 1.0
C      1  0.4987010000000  0.5697780000000  0.5181340000000 1.0
C      1  0.4511330000000  0.4412310000000  0.5206220000000 1.0
C      1  0.5133610000000  0.5243120000000  0.5767940000000 1.0
C      1  0.4197670000000  0.4901970000000  0.5324110000000 1.0
C      1  0.5179690000000  0.5171470000000  0.4499710000000 1.0
C      1  0.4824120000000  0.5671500000000  0.4472960000000 1.0
C      1  0.4523420000000  0.4801330000000  0.5095510000000 1.0
C      1  0.4679500000000  0.5412790000000  0.4448150000000 1.0
C      1  0.4707430000000  0.4656210000000  0.4493460000000 1.0
C      1  0.4798410000000  0.4547500000000  0.4771620000000 1.0
C      1  0.4666010000000  0.5011290000000  0.4179950000000 1.0
C      1  0.5029210000000  0.4376810000000  0.5533010000000 1.0
C      1  0.5000890000000  0.4323620000000  0.4730830000000 1.0
C      1  0.4574290000000  0.5336630000000  0.4938460000000 1.0
C      1  0.5210870000000  0.5382890000000  0.5495610000000 1.0
C      1  0.5353620000000  0.4882730000000  0.4206900000000 1.0
C      1  0.4541420000000  0.4550700000000  0.5457550000000 1.0
C      1  0.4830660000000  0.5168330000000  0.5249210000000 1.0
C      1  0.5651540000000  0.4623980000000  0.4656210000000 1.0
C      1  0.5650500000000  0.4816490000000  0.5482700000000 1.0
C      1  0.4404050000000  0.5377660000000  0.5423480000000 1.0
C      1  0.5493250000000  0.5482520000000  0.5434070000000 1.0
C      1  0.4747730000000  0.5731390000000  0.5036080000000 1.0
C      1  0.5424200000000  0.4314320000000  0.4957790000000 1.0
C      1  0.4815130000000  0.4813800000000  0.4044000000000 1.0
C      1  0.4574280000000  0.4993120000000  0.5659310000000 1.0
C      1  0.5503830000000  0.4910520000000  0.5698500000000 1.0
END
