TITL C-950531-5884-685 -1.31479328256276e-06 125000 -279.049537218596 0 0 46 (C1) n - 1
REM
REM in /home/bkarasulu/work/CARBON/AIRSS/Generating-Clusters/EDIP-Nigel-Params/with-SteepDescent/Only-C1/SD-CG/HFTN-CG
REM
REM
REM
REM
REM
REM ./C.cell (11c1c37f851c82e70ff6c80c92926a4b)
REM
REM compiler GCC version 9.2.1 20190827 (Red Hat 9.2.1-1)
REM options -cpp -mtune=generic -march=x86-64 -g -O0 -fpre-include=/usr/include/finclude/math-vector-fortran.h
REM seed 1497529780 1931717135 2072816596 1029889242 646404135 -265120798 -491404855 -1288584088 1594693147 1770445293 -977882678 1218101935 1501090347 297287500 -1268304700 1626498876 -945611236 -880164191 1193628776 1879553155 -132900051 1087534045 910520190 -807091784 -2144155243 -1222837223 -431168820 582062286 -733589018 315328057 -1321206495 -2127079824 1733385116
REM
CELL 1.54180   50.00000   50.00000   50.00000   90.00000   90.00000   90.00000
LATT -1
SFAC C  
C      1  0.5004540000000  0.4838480000000  0.5651720000000 1.0
C      1  0.5154030000000  0.5045970000000  0.5535040000000 1.0
C      1  0.4624490000000  0.4708740000000  0.5402270000000 1.0
C      1  0.5300290000000  0.4484560000000  0.5464770000000 1.0
C      1  0.5433120000000  0.4968110000000  0.5469570000000 1.0
C      1  0.4939560000000  0.4315930000000  0.5187860000000 1.0
C      1  0.4435680000000  0.4808100000000  0.4784110000000 1.0
C      1  0.5310330000000  0.4943760000000  0.4893580000000 1.0
C      1  0.5563790000000  0.5139430000000  0.4530770000000 1.0
C      1  0.4799860000000  0.5162270000000  0.4736560000000 1.0
C      1  0.4820410000000  0.5526430000000  0.5231400000000 1.0
C      1  0.4717640000000  0.5597040000000  0.4742480000000 1.0
C      1  0.5023800000000  0.4528240000000  0.5008250000000 1.0
C      1  0.4738920000000  0.4856700000000  0.4774340000000 1.0
C      1  0.4357100000000  0.4654090000000  0.5004210000000 1.0
C      1  0.5369380000000  0.4961890000000  0.4399870000000 1.0
C      1  0.4906600000000  0.4710080000000  0.4581150000000 1.0
C      1  0.5228000000000  0.4809330000000  0.4620640000000 1.0
C      1  0.5578360000000  0.5165520000000  0.5329550000000 1.0
C      1  0.5078760000000  0.5615100000000  0.5152960000000 1.0
C      1  0.5261790000000  0.5509350000000  0.5343910000000 1.0
C      1  0.5525200000000  0.5145620000000  0.4818020000000 1.0
C      1  0.5449780000000  0.5408900000000  0.4930710000000 1.0
C      1  0.5421480000000  0.4711840000000  0.5051970000000 1.0
C      1  0.4434300000000  0.5126020000000  0.5274350000000 1.0
C      1  0.4864250000000  0.4810390000000  0.5047990000000 1.0
C      1  0.5284170000000  0.4493940000000  0.4656340000000 1.0
C      1  0.4466540000000  0.4552570000000  0.5229530000000 1.0
C      1  0.4471550000000  0.5240980000000  0.5023250000000 1.0
C      1  0.4984810000000  0.4450170000000  0.4705910000000 1.0
C      1  0.4530050000000  0.5235120000000  0.4571590000000 1.0
C      1  0.4649320000000  0.5473910000000  0.5007440000000 1.0
C      1  0.5047230000000  0.5060780000000  0.5020900000000 1.0
C      1  0.5027610000000  0.5209380000000  0.5304420000000 1.0
C      1  0.4859350000000  0.4619120000000  0.5553430000000 1.0
C      1  0.5239110000000  0.5214310000000  0.4332930000000 1.0
C      1  0.5029340000000  0.4412910000000  0.5435860000000 1.0
C      1  0.5440400000000  0.4699410000000  0.5343010000000 1.0
C      1  0.5161150000000  0.5474200000000  0.4911940000000 1.0
C      1  0.5007640000000  0.5530450000000  0.4666030000000 1.0
C      1  0.5504820000000  0.5413430000000  0.5223800000000 1.0
C      1  0.5004480000000  0.5300900000000  0.4472510000000 1.0
C      1  0.4521310000000  0.5517220000000  0.4548620000000 1.0
C      1  0.4669420000000  0.4982940000000  0.5323140000000 1.0
C      1  0.5394260000000  0.4463420000000  0.4919740000000 1.0
C      1  0.4365990000000  0.5102940000000  0.4781560000000 1.0
END
