TITL C-950521-2237-489 1.88530166813285e-08 125000 -120.787928357987 0 0 21 (C1) n - 1
REM
REM in /home/bkarasulu/work/CARBON/AIRSS/Generating-Clusters/EDIP-Nigel-Params/with-SteepDescent/Only-C1/SD-CG/HFTN-CG
REM
REM
REM
REM
REM
REM ./C.cell (11c1c37f851c82e70ff6c80c92926a4b)
REM
REM compiler GCC version 9.2.1 20190827 (Red Hat 9.2.1-1)
REM options -cpp -mtune=generic -march=x86-64 -g -O0 -fpre-include=/usr/include/finclude/math-vector-fortran.h
REM seed -973708778 -2114146317 429535489 -2006891844 148441830 -1906535059 1671588607 -1710085979 -69439021 -194763952 -1446422099 -1035821093 1964786954 1695485308 1602620989 -1025501130 2098902388 1981760999 -1234606218 1874124714 -1185420290 -1401354357 -695287349 1555186067 -1514854969 -1312440644 228677022 1910650242 -857233541 -1204999988 201678976 -1452958406 1043098635
REM
CELL 1.54180   50.00000   50.00000   50.00000   90.00000   90.00000   90.00000
LATT -1
SFAC C  
C      1  0.5245400000000  0.4961540000000  0.5352120000000 1.0
C      1  0.5372140000000  0.4743720000000  0.4689020000000 1.0
C      1  0.4890070000000  0.4753180000000  0.4480330000000 1.0
C      1  0.4982020000000  0.5438740000000  0.4830000000000 1.0
C      1  0.4749550000000  0.5112920000000  0.5123820000000 1.0
C      1  0.5139730000000  0.5427810000000  0.5418640000000 1.0
C      1  0.5079290000000  0.5650920000000  0.4978650000000 1.0
C      1  0.4979000000000  0.5533940000000  0.5206090000000 1.0
C      1  0.5023600000000  0.4971110000000  0.5531540000000 1.0
C      1  0.5333800000000  0.5232490000000  0.5344270000000 1.0
C      1  0.4675320000000  0.4583830000000  0.4646420000000 1.0
C      1  0.4951150000000  0.4512220000000  0.4783720000000 1.0
C      1  0.5153530000000  0.4620630000000  0.4572580000000 1.0
C      1  0.5006830000000  0.5244130000000  0.5590470000000 1.0
C      1  0.5441460000000  0.4765980000000  0.4947680000000 1.0
C      1  0.4963860000000  0.4676530000000  0.5040800000000 1.0
C      1  0.4793770000000  0.5227110000000  0.4869000000000 1.0
C      1  0.4580610000000  0.4827300000000  0.4785500000000 1.0
C      1  0.5212080000000  0.4828930000000  0.5094910000000 1.0
C      1  0.4718380000000  0.5051800000000  0.4655310000000 1.0
C      1  0.4708410000000  0.4835180000000  0.5059140000000 1.0
END
