TITL C-950529-3362-569 -4.20418623994584e-06 125000 -1053.68057268328 0 0 168 (C1) n - 1
REM
REM in /home/bkarasulu/work/CARBON/AIRSS/Generating-Clusters/EDIP-Nigel-Params/with-SteepDescent/Only-C1/SD-CG/HFTN-CG
REM
REM
REM
REM
REM
REM ./C.cell (11c1c37f851c82e70ff6c80c92926a4b)
REM
REM compiler GCC version 9.2.1 20190827 (Red Hat 9.2.1-1)
REM options -cpp -mtune=generic -march=x86-64 -g -O0 -fpre-include=/usr/include/finclude/math-vector-fortran.h
REM seed 2086922115 228015392 -156121288 -1022687984 983806372 -1108994358 1925860752 2101817747 587015464 489987087 538410172 31642721 329526039 -1980476118 1781170688 1546944773 76859486 1944749871 -1930238325 1061967605 -9403638 -177075013 1919703361 1289992307 518793433 -2044455849 723052508 -1304732421 806118923 1451148782 466141319 -1129426317 -539171949
REM
CELL 1.54180   50.00000   50.00000   50.00000   90.00000   90.00000   90.00000
LATT -1
SFAC C  
C      1  0.5466840000000  0.4672170000000  0.3968940000000 1.0
C      1  0.4882010000000  0.4795200000000  0.5894330000000 1.0
C      1  0.4992990000000  0.4817760000000  0.4555940000000 1.0
C      1  0.4878000000000  0.5942750000000  0.4437180000000 1.0
C      1  0.4802640000000  0.5037050000000  0.4446350000000 1.0
C      1  0.4445410000000  0.4609100000000  0.4960960000000 1.0
C      1  0.4102310000000  0.4427270000000  0.4690170000000 1.0
C      1  0.5654230000000  0.4654190000000  0.5678470000000 1.0
C      1  0.4511770000000  0.5806130000000  0.5281050000000 1.0
C      1  0.4785360000000  0.4130080000000  0.4811540000000 1.0
C      1  0.5157740000000  0.5429650000000  0.4930260000000 1.0
C      1  0.4735400000000  0.4590300000000  0.5430060000000 1.0
C      1  0.5432100000000  0.5280480000000  0.4223190000000 1.0
C      1  0.5796520000000  0.5755400000000  0.4961270000000 1.0
C      1  0.5264750000000  0.5146600000000  0.3981310000000 1.0
C      1  0.5161940000000  0.4941770000000  0.4773610000000 1.0
C      1  0.4527410000000  0.4487830000000  0.5857180000000 1.0
C      1  0.5484520000000  0.5576740000000  0.4175370000000 1.0
C      1  0.5559660000000  0.4299750000000  0.4270020000000 1.0
C      1  0.4491200000000  0.5141230000000  0.4741130000000 1.0
C      1  0.4613750000000  0.5908980000000  0.5756860000000 1.0
C      1  0.4079860000000  0.4477040000000  0.5217980000000 1.0
C      1  0.5203400000000  0.4169260000000  0.5872430000000 1.0
C      1  0.4570660000000  0.5055470000000  0.5660940000000 1.0
C      1  0.4573920000000  0.5328300000000  0.5217890000000 1.0
C      1  0.4170950000000  0.5382930000000  0.4434000000000 1.0
C      1  0.4885070000000  0.5191830000000  0.4207950000000 1.0
C      1  0.5406510000000  0.4573560000000  0.4815940000000 1.0
C      1  0.5439660000000  0.5835980000000  0.4596840000000 1.0
C      1  0.5951480000000  0.4982740000000  0.4611260000000 1.0
C      1  0.5311510000000  0.5255860000000  0.4498790000000 1.0
C      1  0.5268690000000  0.5785250000000  0.5253170000000 1.0
C      1  0.5684600000000  0.4282040000000  0.4541960000000 1.0
C      1  0.5967780000000  0.5139680000000  0.5447800000000 1.0
C      1  0.5207780000000  0.4130390000000  0.4674180000000 1.0
C      1  0.5873550000000  0.4517200000000  0.4554420000000 1.0
C      1  0.5025930000000  0.5627930000000  0.5103300000000 1.0
C      1  0.3892200000000  0.4886820000000  0.5371330000000 1.0
C      1  0.5465770000000  0.4275150000000  0.4759840000000 1.0
C      1  0.5554990000000  0.4914400000000  0.5118550000000 1.0
C      1  0.4132600000000  0.5010710000000  0.4199390000000 1.0
C      1  0.4420570000000  0.4749340000000  0.5978540000000 1.0
C      1  0.5619740000000  0.5672580000000  0.4421480000000 1.0
C      1  0.5751150000000  0.5145700000000  0.5650130000000 1.0
C      1  0.4485000000000  0.4670120000000  0.3953560000000 1.0
C      1  0.4904630000000  0.4464870000000  0.4943500000000 1.0
C      1  0.5236110000000  0.5732050000000  0.4153590000000 1.0
C      1  0.5899630000000  0.4390030000000  0.5344080000000 1.0
C      1  0.5315820000000  0.4165910000000  0.5229630000000 1.0
C      1  0.4312760000000  0.4564510000000  0.4163600000000 1.0
C      1  0.5622600000000  0.5400300000000  0.5732190000000 1.0
C      1  0.5169110000000  0.5819860000000  0.4425280000000 1.0
C      1  0.5032040000000  0.5694530000000  0.5715020000000 1.0
C      1  0.4007870000000  0.5133650000000  0.5406670000000 1.0
C      1  0.5016080000000  0.5068370000000  0.5387270000000 1.0
C      1  0.5682010000000  0.4413090000000  0.5166410000000 1.0
C      1  0.4460690000000  0.4346060000000  0.4278700000000 1.0
C      1  0.4734360000000  0.4658930000000  0.4236530000000 1.0
C      1  0.4963040000000  0.4260600000000  0.5736320000000 1.0
C      1  0.4659040000000  0.5173940000000  0.5938300000000 1.0
C      1  0.4348730000000  0.4873150000000  0.5725050000000 1.0
C      1  0.5881600000000  0.5516330000000  0.4805170000000 1.0
C      1  0.4648130000000  0.5969630000000  0.4849630000000 1.0
C      1  0.4945720000000  0.6093370000000  0.5225620000000 1.0
C      1  0.4597300000000  0.4938050000000  0.3995290000000 1.0
C      1  0.5891600000000  0.4633660000000  0.5486120000000 1.0
C      1  0.4896170000000  0.5317830000000  0.5977010000000 1.0
C      1  0.5400440000000  0.5360760000000  0.5068830000000 1.0
C      1  0.5742610000000  0.4991590000000  0.4220040000000 1.0
C      1  0.4661550000000  0.4910100000000  0.6072140000000 1.0
C      1  0.4981430000000  0.5017550000000  0.3997720000000 1.0
C      1  0.5508190000000  0.5847300000000  0.5664400000000 1.0
C      1  0.4249390000000  0.5334270000000  0.4721600000000 1.0
C      1  0.4774660000000  0.4886030000000  0.5068200000000 1.0
C      1  0.4119630000000  0.5550720000000  0.5220720000000 1.0
C      1  0.5087860000000  0.4216150000000  0.4418900000000 1.0
C      1  0.4389510000000  0.5577540000000  0.5129210000000 1.0
C      1  0.5507770000000  0.5608910000000  0.5177400000000 1.0
C      1  0.4383890000000  0.4134310000000  0.4987830000000 1.0
C      1  0.5103430000000  0.3916790000000  0.4839620000000 1.0
C      1  0.4717080000000  0.5938690000000  0.5129470000000 1.0
C      1  0.4222250000000  0.4782670000000  0.4367560000000 1.0
C      1  0.5010300000000  0.4763840000000  0.4154790000000 1.0
C      1  0.4878740000000  0.5517590000000  0.4545720000000 1.0
C      1  0.4142570000000  0.5003970000000  0.5858890000000 1.0
C      1  0.5524160000000  0.4972090000000  0.3993640000000 1.0
C      1  0.4360480000000  0.5589060000000  0.4832190000000 1.0
C      1  0.5085220000000  0.5946660000000  0.4889080000000 1.0
C      1  0.4988630000000  0.3891330000000  0.5356420000000 1.0
C      1  0.5280710000000  0.4377440000000  0.4279890000000 1.0
C      1  0.4588030000000  0.5807360000000  0.4395340000000 1.0
C      1  0.6064180000000  0.5067400000000  0.4870870000000 1.0
C      1  0.3956550000000  0.4736440000000  0.5146020000000 1.0
C      1  0.4388750000000  0.4355570000000  0.4563030000000 1.0
C      1  0.4027190000000  0.4875880000000  0.4885220000000 1.0
C      1  0.4536300000000  0.4608420000000  0.4678290000000 1.0
C      1  0.5770000000000  0.5455710000000  0.4547020000000 1.0
C      1  0.4503100000000  0.4414610000000  0.5566690000000 1.0
C      1  0.5031180000000  0.5612730000000  0.4012470000000 1.0
C      1  0.4987230000000  0.4493290000000  0.6114030000000 1.0
C      1  0.5179740000000  0.6171830000000  0.5064450000000 1.0
C      1  0.4360880000000  0.5497320000000  0.5636400000000 1.0
C      1  0.5211770000000  0.4566920000000  0.4074700000000 1.0
C      1  0.5941040000000  0.5359020000000  0.5254870000000 1.0
C      1  0.5634240000000  0.4914390000000  0.5815970000000 1.0
C      1  0.5247300000000  0.4590570000000  0.6000380000000 1.0
C      1  0.5827170000000  0.4697810000000  0.4292100000000 1.0
C      1  0.5275720000000  0.5027500000000  0.5528770000000 1.0
C      1  0.4570870000000  0.5701240000000  0.5558590000000 1.0
C      1  0.5346010000000  0.5036120000000  0.5819440000000 1.0
C      1  0.5344890000000  0.4002980000000  0.5471350000000 1.0
C      1  0.4834560000000  0.4562720000000  0.4659440000000 1.0
C      1  0.5256240000000  0.5814580000000  0.5551290000000 1.0
C      1  0.5380670000000  0.4481070000000  0.5715230000000 1.0
C      1  0.5789770000000  0.5616090000000  0.5322810000000 1.0
C      1  0.4817480000000  0.4346900000000  0.4435340000000 1.0
C      1  0.4044190000000  0.4710120000000  0.4626320000000 1.0
C      1  0.4043410000000  0.5179290000000  0.4900280000000 1.0
C      1  0.5801900000000  0.5176830000000  0.4446260000000 1.0
C      1  0.3978280000000  0.5202750000000  0.4337330000000 1.0
C      1  0.4872730000000  0.5900150000000  0.5842950000000 1.0
C      1  0.4879950000000  0.6059930000000  0.4703550000000 1.0
C      1  0.4089740000000  0.5230080000000  0.5674780000000 1.0
C      1  0.5700910000000  0.5651780000000  0.5614240000000 1.0
C      1  0.4830420000000  0.5559230000000  0.5544630000000 1.0
C      1  0.5877540000000  0.5272500000000  0.4972650000000 1.0
C      1  0.4586210000000  0.5581190000000  0.4198800000000 1.0
C      1  0.5370190000000  0.5333020000000  0.5877890000000 1.0
C      1  0.5176670000000  0.5490060000000  0.4636780000000 1.0
C      1  0.5164870000000  0.4878190000000  0.5987930000000 1.0
C      1  0.4427850000000  0.5253190000000  0.5479890000000 1.0
C      1  0.4561160000000  0.5088680000000  0.5031630000000 1.0
C      1  0.5554120000000  0.4184150000000  0.5040090000000 1.0
C      1  0.4375240000000  0.5129620000000  0.4076360000000 1.0
C      1  0.5114800000000  0.5479990000000  0.5910560000000 1.0
C      1  0.5422700000000  0.5054250000000  0.4691130000000 1.0
C      1  0.5076370000000  0.4904960000000  0.5070490000000 1.0
C      1  0.5165700000000  0.4591650000000  0.5046240000000 1.0
C      1  0.4879730000000  0.5395590000000  0.5303920000000 1.0
C      1  0.5897840000000  0.4663990000000  0.4829240000000 1.0
C      1  0.6012420000000  0.4870580000000  0.5337340000000 1.0
C      1  0.5572480000000  0.5156090000000  0.4951330000000 1.0
C      1  0.4808640000000  0.4881290000000  0.5563750000000 1.0
C      1  0.4405910000000  0.5356190000000  0.4261350000000 1.0
C      1  0.5087560000000  0.4016680000000  0.5111640000000 1.0
C      1  0.4583530000000  0.4131690000000  0.5545360000000 1.0
C      1  0.5429920000000  0.4156950000000  0.5699310000000 1.0
C      1  0.5561740000000  0.5911430000000  0.4863770000000 1.0
C      1  0.4658940000000  0.4137150000000  0.5107330000000 1.0
C      1  0.4236160000000  0.4398850000000  0.4981120000000 1.0
C      1  0.4711180000000  0.3979570000000  0.5344030000000 1.0
C      1  0.5451030000000  0.6074220000000  0.5083240000000 1.0
C      1  0.4583520000000  0.5727250000000  0.4694750000000 1.0
C      1  0.6125140000000  0.4856290000000  0.5065340000000 1.0
C      1  0.4472870000000  0.4861400000000  0.4527430000000 1.0
C      1  0.4696470000000  0.4611600000000  0.5115930000000 1.0
C      1  0.4757820000000  0.5254880000000  0.4641810000000 1.0
C      1  0.4867740000000  0.5490230000000  0.4221880000000 1.0
C      1  0.5516390000000  0.4965050000000  0.5393760000000 1.0
C      1  0.4786680000000  0.4369650000000  0.5947540000000 1.0
C      1  0.5587190000000  0.4812850000000  0.4581950000000 1.0
C      1  0.5684700000000  0.4515630000000  0.4103980000000 1.0
C      1  0.4236880000000  0.4458360000000  0.5452750000000 1.0
C      1  0.4490180000000  0.4110100000000  0.4701470000000 1.0
C      1  0.4993290000000  0.4448360000000  0.5502810000000 1.0
C      1  0.5641860000000  0.4650320000000  0.4993120000000 1.0
C      1  0.5216310000000  0.4441520000000  0.5307930000000 1.0
C      1  0.4024680000000  0.5295410000000  0.5171800000000 1.0
END
