TITL C-950533-5798-542 6.30206075681225e-07 125000 -1236.16622704942 0 0 197 (C1) n - 1
REM
REM in /home/bkarasulu/work/CARBON/AIRSS/Generating-Clusters/EDIP-Nigel-Params/with-SteepDescent/Only-C1/SD-CG/HFTN-CG
REM
REM
REM
REM
REM
REM ./C.cell (11c1c37f851c82e70ff6c80c92926a4b)
REM
REM compiler GCC version 9.2.1 20190827 (Red Hat 9.2.1-1)
REM options -cpp -mtune=generic -march=x86-64 -g -O0 -fpre-include=/usr/include/finclude/math-vector-fortran.h
REM seed -127185544 -688959728 -735145908 -1089563728 -92641079 733109362 2006401933 -1240242088 -1067804454 935096353 -1956469330 1329442220 -1848362546 -1397343372 -2039479747 1626053600 737680204 -9386928 -1765180367 -1224353279 -1603225767 -869507515 1494075438 -242694035 35445468 1730755865 -2027729879 -1506101180 -1286391362 -913670629 -502739017 -497486018 631117155
REM
CELL 1.54180   50.00000   50.00000   50.00000   90.00000   90.00000   90.00000
LATT -1
SFAC C  
C      1  0.4035930000000  0.4454390000000  0.5703050000000 1.0
C      1  0.6047970000000  0.4610490000000  0.5092590000000 1.0
C      1  0.5514950000000  0.6063260000000  0.5462880000000 1.0
C      1  0.4972480000000  0.5245950000000  0.5612160000000 1.0
C      1  0.6114490000000  0.5135520000000  0.4890790000000 1.0
C      1  0.5364370000000  0.5657030000000  0.4287870000000 1.0
C      1  0.5720460000000  0.5142580000000  0.5814230000000 1.0
C      1  0.5001400000000  0.5068450000000  0.6049520000000 1.0
C      1  0.4854910000000  0.5811640000000  0.5184460000000 1.0
C      1  0.4363320000000  0.4807700000000  0.4825750000000 1.0
C      1  0.5717440000000  0.5436490000000  0.4740050000000 1.0
C      1  0.5371930000000  0.4395490000000  0.5184470000000 1.0
C      1  0.4464920000000  0.6028120000000  0.4941110000000 1.0
C      1  0.4823750000000  0.5677970000000  0.4910620000000 1.0
C      1  0.4673980000000  0.4123040000000  0.4132950000000 1.0
C      1  0.5501130000000  0.5921260000000  0.5717630000000 1.0
C      1  0.4828130000000  0.4009140000000  0.5602440000000 1.0
C      1  0.5746630000000  0.4824840000000  0.4767600000000 1.0
C      1  0.4555110000000  0.4743480000000  0.5265650000000 1.0
C      1  0.4583590000000  0.4094880000000  0.5722540000000 1.0
C      1  0.4539220000000  0.4448690000000  0.5237810000000 1.0
C      1  0.5153670000000  0.5695730000000  0.4089260000000 1.0
C      1  0.5979900000000  0.5691940000000  0.5384490000000 1.0
C      1  0.4852380000000  0.4600560000000  0.4116850000000 1.0
C      1  0.4561510000000  0.5983870000000  0.4648180000000 1.0
C      1  0.4580610000000  0.5445080000000  0.4023410000000 1.0
C      1  0.5547760000000  0.4750600000000  0.5532390000000 1.0
C      1  0.5232970000000  0.5788570000000  0.5655100000000 1.0
C      1  0.4624720000000  0.4649870000000  0.4297600000000 1.0
C      1  0.4524880000000  0.4390030000000  0.5728090000000 1.0
C      1  0.5918400000000  0.4934100000000  0.5000810000000 1.0
C      1  0.4510640000000  0.4340980000000  0.4974250000000 1.0
C      1  0.5684570000000  0.5902630000000  0.5267360000000 1.0
C      1  0.4911490000000  0.4798070000000  0.5956740000000 1.0
C      1  0.5684680000000  0.5038680000000  0.5523840000000 1.0
C      1  0.3912630000000  0.4724970000000  0.4408920000000 1.0
C      1  0.5271460000000  0.3977980000000  0.5268670000000 1.0
C      1  0.4874510000000  0.4801540000000  0.3891140000000 1.0
C      1  0.4615610000000  0.3871960000000  0.4842960000000 1.0
C      1  0.4282200000000  0.4982010000000  0.5991500000000 1.0
C      1  0.4272910000000  0.4518470000000  0.5854290000000 1.0
C      1  0.4572930000000  0.5261590000000  0.5305510000000 1.0
C      1  0.4269100000000  0.5793580000000  0.4278870000000 1.0
C      1  0.5571370000000  0.5561880000000  0.5810390000000 1.0
C      1  0.4188550000000  0.5096310000000  0.4056510000000 1.0
C      1  0.4763120000000  0.5969200000000  0.5607560000000 1.0
C      1  0.4804420000000  0.3981450000000  0.4361670000000 1.0
C      1  0.5244260000000  0.5447730000000  0.4943580000000 1.0
C      1  0.5011470000000  0.3855760000000  0.5202250000000 1.0
C      1  0.5199800000000  0.4928750000000  0.4776970000000 1.0
C      1  0.5734630000000  0.5423050000000  0.5064700000000 1.0
C      1  0.4783710000000  0.5810710000000  0.5855870000000 1.0
C      1  0.5027140000000  0.5904000000000  0.4495810000000 1.0
C      1  0.4404200000000  0.4294150000000  0.5446510000000 1.0
C      1  0.4116870000000  0.5202260000000  0.5967720000000 1.0
C      1  0.3888320000000  0.4720600000000  0.5134630000000 1.0
C      1  0.4450990000000  0.4240060000000  0.4302240000000 1.0
C      1  0.4333030000000  0.4874600000000  0.3953850000000 1.0
C      1  0.5982080000000  0.5304470000000  0.4666940000000 1.0
C      1  0.4112000000000  0.4364100000000  0.5440290000000 1.0
C      1  0.5432310000000  0.5939980000000  0.4981980000000 1.0
C      1  0.5238750000000  0.4784280000000  0.5588390000000 1.0
C      1  0.5151670000000  0.4930740000000  0.3878620000000 1.0
C      1  0.5597800000000  0.4458380000000  0.5842640000000 1.0
C      1  0.5993490000000  0.5450920000000  0.5554680000000 1.0
C      1  0.4662760000000  0.5434880000000  0.4817960000000 1.0
C      1  0.4613340000000  0.5570770000000  0.5890620000000 1.0
C      1  0.4837680000000  0.3803750000000  0.5415490000000 1.0
C      1  0.5468700000000  0.4940640000000  0.5128610000000 1.0
C      1  0.3957220000000  0.4633250000000  0.4860380000000 1.0
C      1  0.5649580000000  0.4871120000000  0.4335900000000 1.0
C      1  0.5720210000000  0.5111310000000  0.5163530000000 1.0
C      1  0.4852910000000  0.5391960000000  0.4571260000000 1.0
C      1  0.5563460000000  0.5610230000000  0.5251120000000 1.0
C      1  0.5400450000000  0.4537390000000  0.4054090000000 1.0
C      1  0.4739020000000  0.5031350000000  0.4021630000000 1.0
C      1  0.3797830000000  0.4984470000000  0.5123650000000 1.0
C      1  0.4772630000000  0.4824740000000  0.5454560000000 1.0
C      1  0.5141990000000  0.4635410000000  0.5849380000000 1.0
C      1  0.5353220000000  0.4103250000000  0.4273600000000 1.0
C      1  0.5302910000000  0.5107100000000  0.5968030000000 1.0
C      1  0.5661760000000  0.4551920000000  0.4891870000000 1.0
C      1  0.3930170000000  0.5208670000000  0.5021170000000 1.0
C      1  0.4209230000000  0.4142390000000  0.4715880000000 1.0
C      1  0.4967470000000  0.4860180000000  0.4590610000000 1.0
C      1  0.5188950000000  0.4975230000000  0.4178510000000 1.0
C      1  0.5430120000000  0.5201290000000  0.5485450000000 1.0
C      1  0.4894480000000  0.5329060000000  0.5913420000000 1.0
C      1  0.4475280000000  0.5575130000000  0.5423020000000 1.0
C      1  0.5173940000000  0.4981710000000  0.5084320000000 1.0
C      1  0.5943170000000  0.4406700000000  0.4888870000000 1.0
C      1  0.5203720000000  0.4492710000000  0.4720080000000 1.0
C      1  0.4644760000000  0.5815020000000  0.5387810000000 1.0
C      1  0.6161610000000  0.5302150000000  0.5140620000000 1.0
C      1  0.4444190000000  0.4516040000000  0.4740180000000 1.0
C      1  0.5091530000000  0.5269970000000  0.5113780000000 1.0
C      1  0.5068920000000  0.4148270000000  0.5670950000000 1.0
C      1  0.5069370000000  0.5768220000000  0.5905430000000 1.0
C      1  0.6115960000000  0.4957290000000  0.5515990000000 1.0
C      1  0.4837980000000  0.5109930000000  0.4481990000000 1.0
C      1  0.3938450000000  0.5331490000000  0.5540840000000 1.0
C      1  0.5472490000000  0.4991310000000  0.4663120000000 1.0
C      1  0.4664820000000  0.5201630000000  0.5019780000000 1.0
C      1  0.3938700000000  0.4443890000000  0.4423450000000 1.0
C      1  0.4328230000000  0.4023900000000  0.4467070000000 1.0
C      1  0.4938440000000  0.6150620000000  0.4930440000000 1.0
C      1  0.5106510000000  0.5511650000000  0.6027110000000 1.0
C      1  0.5471260000000  0.5292410000000  0.4594930000000 1.0
C      1  0.4715420000000  0.5584460000000  0.4338350000000 1.0
C      1  0.4295830000000  0.5366850000000  0.4065630000000 1.0
C      1  0.4470010000000  0.5738110000000  0.4482170000000 1.0
C      1  0.5481290000000  0.5115890000000  0.4247750000000 1.0
C      1  0.5045460000000  0.4373870000000  0.5818260000000 1.0
C      1  0.5205680000000  0.6118400000000  0.5072420000000 1.0
C      1  0.5751970000000  0.4307840000000  0.5388830000000 1.0
C      1  0.5846420000000  0.5419740000000  0.5812020000000 1.0
C      1  0.4087460000000  0.5330060000000  0.5265290000000 1.0
C      1  0.5265730000000  0.5741740000000  0.4546020000000 1.0
C      1  0.4745190000000  0.5108780000000  0.5495460000000 1.0
C      1  0.4577290000000  0.3864450000000  0.4533720000000 1.0
C      1  0.5546130000000  0.4668510000000  0.5237780000000 1.0
C      1  0.5718070000000  0.5711170000000  0.4609010000000 1.0
C      1  0.5535210000000  0.4312500000000  0.5582380000000 1.0
C      1  0.5655450000000  0.5623210000000  0.4318810000000 1.0
C      1  0.5678540000000  0.4409000000000  0.4469880000000 1.0
C      1  0.5340000000000  0.4714420000000  0.3844590000000 1.0
C      1  0.5970840000000  0.5216800000000  0.4378470000000 1.0
C      1  0.5122860000000  0.5533960000000  0.3864500000000 1.0
C      1  0.4695060000000  0.6146490000000  0.5099700000000 1.0
C      1  0.4169630000000  0.4871700000000  0.4358190000000 1.0
C      1  0.4265500000000  0.4993970000000  0.4627190000000 1.0
C      1  0.4847350000000  0.5928440000000  0.4731550000000 1.0
C      1  0.6075210000000  0.5211320000000  0.5407880000000 1.0
C      1  0.4614140000000  0.4426780000000  0.4491100000000 1.0
C      1  0.5107060000000  0.5699970000000  0.5332480000000 1.0
C      1  0.4983690000000  0.4511670000000  0.4907700000000 1.0
C      1  0.4391130000000  0.5553960000000  0.5707170000000 1.0
C      1  0.5987570000000  0.4716400000000  0.5572750000000 1.0
C      1  0.5157510000000  0.4380830000000  0.4446090000000 1.0
C      1  0.4123930000000  0.5392650000000  0.4514670000000 1.0
C      1  0.5489010000000  0.4880880000000  0.6089030000000 1.0
C      1  0.5319300000000  0.5679750000000  0.5108580000000 1.0
C      1  0.5812300000000  0.4676040000000  0.5814230000000 1.0
C      1  0.5730290000000  0.5342430000000  0.4243590000000 1.0
C      1  0.5945230000000  0.4533110000000  0.5357260000000 1.0
C      1  0.4940930000000  0.5139120000000  0.4216850000000 1.0
C      1  0.5053060000000  0.5407560000000  0.5371560000000 1.0
C      1  0.4902530000000  0.3916230000000  0.4938010000000 1.0
C      1  0.4238230000000  0.5607670000000  0.5251500000000 1.0
C      1  0.4148380000000  0.5534520000000  0.4253290000000 1.0
C      1  0.5196840000000  0.5459350000000  0.4653630000000 1.0
C      1  0.4306860000000  0.5131530000000  0.5310000000000 1.0
C      1  0.4363410000000  0.4712070000000  0.4186630000000 1.0
C      1  0.4055040000000  0.4666930000000  0.5380340000000 1.0
C      1  0.5312680000000  0.4123590000000  0.5522150000000 1.0
C      1  0.4305260000000  0.4850200000000  0.5413000000000 1.0
C      1  0.6006160000000  0.5552940000000  0.5122850000000 1.0
C      1  0.4690820000000  0.4742120000000  0.5743270000000 1.0
C      1  0.4993290000000  0.6123400000000  0.5528610000000 1.0
C      1  0.5593420000000  0.4595660000000  0.4257250000000 1.0
C      1  0.5768380000000  0.4914160000000  0.5995370000000 1.0
C      1  0.5958710000000  0.4467450000000  0.4582890000000 1.0
C      1  0.3850630000000  0.4842520000000  0.4674140000000 1.0
C      1  0.4373530000000  0.4799760000000  0.5791810000000 1.0
C      1  0.5391270000000  0.4609540000000  0.6009660000000 1.0
C      1  0.5056720000000  0.4765970000000  0.5332330000000 1.0
C      1  0.4401140000000  0.4071240000000  0.4943780000000 1.0
C      1  0.5387980000000  0.4065600000000  0.4776700000000 1.0
C      1  0.5688850000000  0.4161020000000  0.5154440000000 1.0
C      1  0.3862860000000  0.5208230000000  0.5808120000000 1.0
C      1  0.4604490000000  0.4886110000000  0.4986070000000 1.0
C      1  0.5327770000000  0.4271840000000  0.4056470000000 1.0
C      1  0.4035180000000  0.4396530000000  0.4684060000000 1.0
C      1  0.4917430000000  0.5789810000000  0.4248420000000 1.0
C      1  0.4270980000000  0.5804670000000  0.5031500000000 1.0
C      1  0.5073130000000  0.4665280000000  0.4324570000000 1.0
C      1  0.5942600000000  0.4920590000000  0.4345720000000 1.0
C      1  0.5381480000000  0.5407290000000  0.6006860000000 1.0
C      1  0.5411080000000  0.4367830000000  0.4860050000000 1.0
C      1  0.4786200000000  0.4699710000000  0.4786300000000 1.0
C      1  0.4734550000000  0.5261240000000  0.3842800000000 1.0
C      1  0.5482310000000  0.3983100000000  0.5068190000000 1.0
C      1  0.5456210000000  0.5496170000000  0.5519930000000 1.0
C      1  0.5230000000000  0.6125940000000  0.5367180000000 1.0
C      1  0.5027200000000  0.5284260000000  0.3797610000000 1.0
C      1  0.4126280000000  0.5716030000000  0.4816180000000 1.0
C      1  0.5081800000000  0.4504360000000  0.5189750000000 1.0
C      1  0.4922970000000  0.4198460000000  0.4539060000000 1.0
C      1  0.4319840000000  0.5551420000000  0.4674610000000 1.0
C      1  0.5533100000000  0.4145640000000  0.4494430000000 1.0
C      1  0.4840540000000  0.4324960000000  0.4028560000000 1.0
C      1  0.3990850000000  0.5129200000000  0.4718420000000 1.0
C      1  0.5997320000000  0.4768010000000  0.4589540000000 1.0
C      1  0.5230790000000  0.5077390000000  0.5661640000000 1.0
C      1  0.5486490000000  0.5883990000000  0.4690370000000 1.0
C      1  0.5081170000000  0.4017170000000  0.4734240000000 1.0
C      1  0.4221480000000  0.5311390000000  0.5702110000000 1.0
END
