TITL C-950527-2551-556 -1.35993862699296e-06 125000 -824.088943415068 0 0 131 (C1) n - 1
REM
REM in /home/bkarasulu/work/CARBON/AIRSS/Generating-Clusters/EDIP-Nigel-Params/with-SteepDescent/Only-C1/SD-CG/HFTN-CG
REM
REM
REM
REM
REM
REM ./C.cell (11c1c37f851c82e70ff6c80c92926a4b)
REM
REM compiler GCC version 9.2.1 20190827 (Red Hat 9.2.1-1)
REM options -cpp -mtune=generic -march=x86-64 -g -O0 -fpre-include=/usr/include/finclude/math-vector-fortran.h
REM seed 1666507632 2095817335 -1546269294 -480425127 -1740985422 -2108249102 386286734 -1229400589 -1913432138 -1704801755 -252797425 932127257 -781903924 -1373811284 -1937750999 -1601456630 -2085021417 -1738403370 -801623372 -141364907 561686542 -834379530 -1033080914 919483609 -1912566717 1115547109 1451704009 1736423403 1261331661 -1591970276 998118693 -379329926 982799273
REM
CELL 1.54180   50.00000   50.00000   50.00000   90.00000   90.00000   90.00000
LATT -1
SFAC C  
C      1  0.5060010000000  0.5434980000000  0.5683010000000 1.0
C      1  0.4658630000000  0.4195140000000  0.5341530000000 1.0
C      1  0.5427320000000  0.5059370000000  0.5286190000000 1.0
C      1  0.5704830000000  0.4585620000000  0.5138030000000 1.0
C      1  0.4089910000000  0.5396780000000  0.5335080000000 1.0
C      1  0.5240230000000  0.5639300000000  0.4404860000000 1.0
C      1  0.5366200000000  0.4569160000000  0.4162970000000 1.0
C      1  0.5296130000000  0.4083780000000  0.4972920000000 1.0
C      1  0.4752750000000  0.5954820000000  0.5010270000000 1.0
C      1  0.4842040000000  0.4906710000000  0.4380350000000 1.0
C      1  0.5086110000000  0.5210290000000  0.4732520000000 1.0
C      1  0.4832130000000  0.4119070000000  0.5113380000000 1.0
C      1  0.4618250000000  0.5017030000000  0.4207040000000 1.0
C      1  0.4715410000000  0.5104550000000  0.5918710000000 1.0
C      1  0.5107470000000  0.4967680000000  0.4911510000000 1.0
C      1  0.5570480000000  0.4489690000000  0.5645380000000 1.0
C      1  0.4714430000000  0.4627410000000  0.5403090000000 1.0
C      1  0.4532610000000  0.4876480000000  0.5394760000000 1.0
C      1  0.5678010000000  0.5585230000000  0.4980130000000 1.0
C      1  0.5051500000000  0.5352020000000  0.5360660000000 1.0
C      1  0.5001560000000  0.4372090000000  0.4392380000000 1.0
C      1  0.4919250000000  0.4642960000000  0.5183270000000 1.0
C      1  0.3893720000000  0.5214560000000  0.4944310000000 1.0
C      1  0.4272850000000  0.5319490000000  0.5559520000000 1.0
C      1  0.4948160000000  0.6132900000000  0.4903530000000 1.0
C      1  0.4521090000000  0.4913970000000  0.5081840000000 1.0
C      1  0.4612530000000  0.5598240000000  0.4379980000000 1.0
C      1  0.5306770000000  0.4596660000000  0.4682360000000 1.0
C      1  0.4910980000000  0.5751300000000  0.5168850000000 1.0
C      1  0.5108220000000  0.5844240000000  0.4579390000000 1.0
C      1  0.5406060000000  0.4643000000000  0.5044870000000 1.0
C      1  0.4787410000000  0.5492740000000  0.4170160000000 1.0
C      1  0.5064810000000  0.5109930000000  0.4449300000000 1.0
C      1  0.4869020000000  0.5794440000000  0.5465820000000 1.0
C      1  0.5213500000000  0.4735410000000  0.5977270000000 1.0
C      1  0.5679950000000  0.4291250000000  0.5239800000000 1.0
C      1  0.5324780000000  0.5380740000000  0.4756210000000 1.0
C      1  0.4976150000000  0.4308770000000  0.5630920000000 1.0
C      1  0.5820310000000  0.5461510000000  0.4772340000000 1.0
C      1  0.5888020000000  0.4890580000000  0.4833810000000 1.0
C      1  0.4527010000000  0.4626560000000  0.5802480000000 1.0
C      1  0.4905960000000  0.4942010000000  0.5142540000000 1.0
C      1  0.4693050000000  0.5111500000000  0.5534130000000 1.0
C      1  0.5729840000000  0.4342490000000  0.4458190000000 1.0
C      1  0.4548500000000  0.5380790000000  0.5467880000000 1.0
C      1  0.5347950000000  0.5344600000000  0.5275030000000 1.0
C      1  0.5778710000000  0.5549800000000  0.5250160000000 1.0
C      1  0.4565920000000  0.5397910000000  0.5177280000000 1.0
C      1  0.4816620000000  0.5377700000000  0.5866140000000 1.0
C      1  0.5902090000000  0.4832170000000  0.4366930000000 1.0
C      1  0.5048720000000  0.4724460000000  0.4745470000000 1.0
C      1  0.5115830000000  0.4082390000000  0.5207800000000 1.0
C      1  0.4967850000000  0.5075800000000  0.5410290000000 1.0
C      1  0.5100040000000  0.4866020000000  0.3891540000000 1.0
C      1  0.4647910000000  0.5604920000000  0.5863270000000 1.0
C      1  0.4345320000000  0.4606790000000  0.4360030000000 1.0
C      1  0.5003230000000  0.4788350000000  0.5803210000000 1.0
C      1  0.3972360000000  0.5157090000000  0.5209480000000 1.0
C      1  0.5131430000000  0.4138010000000  0.4745730000000 1.0
C      1  0.5121010000000  0.5735330000000  0.5614040000000 1.0
C      1  0.4329240000000  0.5648440000000  0.4902510000000 1.0
C      1  0.5495270000000  0.5298640000000  0.5892640000000 1.0
C      1  0.4128780000000  0.4712190000000  0.5040330000000 1.0
C      1  0.4389130000000  0.4849470000000  0.4218320000000 1.0
C      1  0.4358840000000  0.4403980000000  0.4804530000000 1.0
C      1  0.4441940000000  0.5192410000000  0.4983560000000 1.0
C      1  0.5459350000000  0.5475250000000  0.4517100000000 1.0
C      1  0.4413350000000  0.4385670000000  0.5333790000000 1.0
C      1  0.5386250000000  0.5520220000000  0.5008260000000 1.0
C      1  0.5683190000000  0.4376390000000  0.4745390000000 1.0
C      1  0.5800690000000  0.5292200000000  0.4553290000000 1.0
C      1  0.4291590000000  0.4476170000000  0.5071980000000 1.0
C      1  0.5222640000000  0.5786130000000  0.5102080000000 1.0
C      1  0.5840040000000  0.4595650000000  0.4870550000000 1.0
C      1  0.4629810000000  0.5656310000000  0.5583850000000 1.0
C      1  0.4481950000000  0.4926850000000  0.5869470000000 1.0
C      1  0.5538570000000  0.5536570000000  0.5441280000000 1.0
C      1  0.5900520000000  0.5018630000000  0.4574840000000 1.0
C      1  0.4854470000000  0.5357590000000  0.4820320000000 1.0
C      1  0.4667120000000  0.5829290000000  0.4541350000000 1.0
C      1  0.5824550000000  0.5192490000000  0.5563440000000 1.0
C      1  0.5377910000000  0.4785950000000  0.3932580000000 1.0
C      1  0.5166760000000  0.5959640000000  0.4848490000000 1.0
C      1  0.4321440000000  0.4552280000000  0.5588380000000 1.0
C      1  0.4849320000000  0.4240720000000  0.4818160000000 1.0
C      1  0.4182520000000  0.5605410000000  0.5151160000000 1.0
C      1  0.5653740000000  0.4956530000000  0.5469970000000 1.0
C      1  0.5494610000000  0.4278910000000  0.5478920000000 1.0
C      1  0.5475240000000  0.4278990000000  0.4330380000000 1.0
C      1  0.4744590000000  0.4282800000000  0.4491660000000 1.0
C      1  0.4113840000000  0.4902850000000  0.5251970000000 1.0
C      1  0.5197330000000  0.4300200000000  0.5403030000000 1.0
C      1  0.5230950000000  0.5332360000000  0.4013120000000 1.0
C      1  0.4241810000000  0.5465160000000  0.4693590000000 1.0
C      1  0.5253420000000  0.5228480000000  0.5777200000000 1.0
C      1  0.5834230000000  0.4814300000000  0.5286860000000 1.0
C      1  0.5578550000000  0.4189280000000  0.4968200000000 1.0
C      1  0.4928530000000  0.4731740000000  0.4078930000000 1.0
C      1  0.5654920000000  0.5399930000000  0.5689050000000 1.0
C      1  0.4414310000000  0.5416510000000  0.4470820000000 1.0
C      1  0.5374780000000  0.4932710000000  0.5034830000000 1.0
C      1  0.5181020000000  0.4964480000000  0.5638680000000 1.0
C      1  0.4770920000000  0.4122800000000  0.5588970000000 1.0
C      1  0.5925050000000  0.5285460000000  0.5291390000000 1.0
C      1  0.5337090000000  0.5027230000000  0.4362720000000 1.0
C      1  0.5245890000000  0.4320680000000  0.4545500000000 1.0
C      1  0.5088820000000  0.5521240000000  0.4169560000000 1.0
C      1  0.4891420000000  0.5982260000000  0.4462860000000 1.0
C      1  0.4589770000000  0.4708240000000  0.4842530000000 1.0
C      1  0.5400140000000  0.4741220000000  0.4421030000000 1.0
C      1  0.4607940000000  0.5214930000000  0.4730840000000 1.0
C      1  0.5368060000000  0.5081660000000  0.4070740000000 1.0
C      1  0.5460020000000  0.4846230000000  0.5928490000000 1.0
C      1  0.5860200000000  0.4565230000000  0.4341930000000 1.0
C      1  0.4850440000000  0.4558850000000  0.4894130000000 1.0
C      1  0.4843090000000  0.5458230000000  0.5107990000000 1.0
C      1  0.4071650000000  0.4779770000000  0.4767640000000 1.0
C      1  0.5191920000000  0.4556470000000  0.5249260000000 1.0
C      1  0.5908040000000  0.5031320000000  0.5097510000000 1.0
C      1  0.4258120000000  0.5041100000000  0.5698870000000 1.0
C      1  0.5347960000000  0.5783070000000  0.5426200000000 1.0
C      1  0.4558500000000  0.5833630000000  0.4818510000000 1.0
C      1  0.4825940000000  0.4574730000000  0.5685840000000 1.0
C      1  0.5573000000000  0.4763940000000  0.5687210000000 1.0
C      1  0.5072730000000  0.4495770000000  0.4147240000000 1.0
C      1  0.4667780000000  0.4927200000000  0.4639100000000 1.0
C      1  0.4229480000000  0.4589000000000  0.4626980000000 1.0
C      1  0.4672030000000  0.5256710000000  0.4066010000000 1.0
C      1  0.4529920000000  0.4397570000000  0.4353790000000 1.0
C      1  0.4169640000000  0.4814830000000  0.5527560000000 1.0
C      1  0.4138390000000  0.5216290000000  0.4804750000000 1.0
END
