TITL C-950528-5794-738 -6.60423095008891e-07 125000 -630.003069735784 0 0 102 (C1) n - 1
REM
REM in /home/bkarasulu/work/CARBON/AIRSS/Generating-Clusters/EDIP-Nigel-Params/with-SteepDescent/Only-C1/SD-CG/HFTN-CG
REM
REM
REM
REM
REM
REM ./C.cell (11c1c37f851c82e70ff6c80c92926a4b)
REM
REM compiler GCC version 9.2.1 20190827 (Red Hat 9.2.1-1)
REM options -cpp -mtune=generic -march=x86-64 -g -O0 -fpre-include=/usr/include/finclude/math-vector-fortran.h
REM seed 591774553 -1197204080 -1906740446 270836158 -169687083 -1422654036 769332080 1346525443 1148573591 -1617490538 572773071 -278387586 620331313 -1428942058 -1914551284 1500561714 -47950203 1537705314 -1681120584 -643497296 1239593842 -1239482434 -1287695685 -1558489820 1064331719 -899509941 -816141912 1351939034 902089821 -1920656987 37957527 1868190617 1747241375
REM
CELL 1.54180   50.00000   50.00000   50.00000   90.00000   90.00000   90.00000
LATT -1
SFAC C  
C      1  0.4427490000000  0.4285380000000  0.4871010000000 1.0
C      1  0.4473440000000  0.5168430000000  0.4510780000000 1.0
C      1  0.5491900000000  0.4788860000000  0.4291720000000 1.0
C      1  0.4834620000000  0.4076260000000  0.4940730000000 1.0
C      1  0.4418170000000  0.5713350000000  0.4759140000000 1.0
C      1  0.5696100000000  0.5859060000000  0.4951660000000 1.0
C      1  0.5652500000000  0.5549560000000  0.5342420000000 1.0
C      1  0.4892720000000  0.4911890000000  0.5525580000000 1.0
C      1  0.4280720000000  0.4971770000000  0.4414540000000 1.0
C      1  0.4119490000000  0.5408950000000  0.5131810000000 1.0
C      1  0.4718810000000  0.5410470000000  0.5668240000000 1.0
C      1  0.5680980000000  0.4983430000000  0.4434510000000 1.0
C      1  0.5646390000000  0.5584780000000  0.5039960000000 1.0
C      1  0.4709180000000  0.4430990000000  0.5257220000000 1.0
C      1  0.5124550000000  0.4027470000000  0.5334380000000 1.0
C      1  0.5537810000000  0.4896320000000  0.5669380000000 1.0
C      1  0.4525490000000  0.4528190000000  0.4421320000000 1.0
C      1  0.5430800000000  0.5643560000000  0.4628210000000 1.0
C      1  0.4622910000000  0.5102740000000  0.4032970000000 1.0
C      1  0.4515170000000  0.5528090000000  0.5480930000000 1.0
C      1  0.5516370000000  0.4483810000000  0.4337140000000 1.0
C      1  0.5267720000000  0.5996720000000  0.5109310000000 1.0
C      1  0.5529930000000  0.5229660000000  0.4500180000000 1.0
C      1  0.4813760000000  0.4948400000000  0.4166320000000 1.0
C      1  0.4941510000000  0.4613750000000  0.4847640000000 1.0
C      1  0.5047500000000  0.5573750000000  0.4939070000000 1.0
C      1  0.5232380000000  0.4370770000000  0.4367770000000 1.0
C      1  0.5039590000000  0.5320250000000  0.4424100000000 1.0
C      1  0.5686420000000  0.4494940000000  0.5427820000000 1.0
C      1  0.5166790000000  0.5042320000000  0.4831590000000 1.0
C      1  0.4193980000000  0.4425680000000  0.4975920000000 1.0
C      1  0.5003540000000  0.5410190000000  0.5526090000000 1.0
C      1  0.4937130000000  0.5195600000000  0.4679200000000 1.0
C      1  0.5518630000000  0.5309300000000  0.5441280000000 1.0
C      1  0.4425780000000  0.5772730000000  0.5036780000000 1.0
C      1  0.5401530000000  0.5213930000000  0.4790940000000 1.0
C      1  0.5208750000000  0.4764680000000  0.4707450000000 1.0
C      1  0.4609470000000  0.4917140000000  0.5598630000000 1.0
C      1  0.4487670000000  0.5242200000000  0.4227110000000 1.0
C      1  0.4618440000000  0.4383710000000  0.4659360000000 1.0
C      1  0.5297600000000  0.4192790000000  0.4893530000000 1.0
C      1  0.4347170000000  0.5408840000000  0.4694780000000 1.0
C      1  0.5224560000000  0.4461410000000  0.5562490000000 1.0
C      1  0.4714980000000  0.5018570000000  0.4629910000000 1.0
C      1  0.5284360000000  0.5311070000000  0.5630180000000 1.0
C      1  0.5078280000000  0.4600760000000  0.4254700000000 1.0
C      1  0.4188200000000  0.4706020000000  0.5041750000000 1.0
C      1  0.4947100000000  0.5094860000000  0.5301010000000 1.0
C      1  0.5576890000000  0.4652630000000  0.4742010000000 1.0
C      1  0.4842430000000  0.5844590000000  0.5289100000000 1.0
C      1  0.4316270000000  0.4708210000000  0.4523680000000 1.0
C      1  0.5071190000000  0.4180020000000  0.5090110000000 1.0
C      1  0.4813000000000  0.5414420000000  0.4838020000000 1.0
C      1  0.5685360000000  0.5069070000000  0.5466650000000 1.0
C      1  0.4463890000000  0.5000120000000  0.5350340000000 1.0
C      1  0.4970930000000  0.4510680000000  0.5689200000000 1.0
C      1  0.4052260000000  0.5297380000000  0.5486290000000 1.0
C      1  0.5725960000000  0.4471430000000  0.4951750000000 1.0
C      1  0.5736710000000  0.5080900000000  0.4927000000000 1.0
C      1  0.5441280000000  0.4664920000000  0.5494640000000 1.0
C      1  0.4685010000000  0.5049960000000  0.5138710000000 1.0
C      1  0.5812220000000  0.4637660000000  0.5195880000000 1.0
C      1  0.5171170000000  0.5006280000000  0.5128130000000 1.0
C      1  0.4972760000000  0.5996770000000  0.5055600000000 1.0
C      1  0.4964850000000  0.5830910000000  0.4819640000000 1.0
C      1  0.5678980000000  0.4914700000000  0.5195460000000 1.0
C      1  0.4975240000000  0.4470590000000  0.5127060000000 1.0
C      1  0.4857960000000  0.4218530000000  0.4673980000000 1.0
C      1  0.5382210000000  0.4817490000000  0.5213290000000 1.0
C      1  0.4499710000000  0.4632320000000  0.5661330000000 1.0
C      1  0.4321800000000  0.5289500000000  0.4961940000000 1.0
C      1  0.5140840000000  0.4333140000000  0.4659110000000 1.0
C      1  0.5545240000000  0.5778080000000  0.5466010000000 1.0
C      1  0.5069690000000  0.5075220000000  0.4255570000000 1.0
C      1  0.5300720000000  0.5046470000000  0.5769150000000 1.0
C      1  0.5302500000000  0.4195030000000  0.5471560000000 1.0
C      1  0.4795220000000  0.4654020000000  0.4194670000000 1.0
C      1  0.3904400000000  0.5279670000000  0.5252900000000 1.0
C      1  0.4252950000000  0.4590700000000  0.5524230000000 1.0
C      1  0.4571140000000  0.5165170000000  0.5767260000000 1.0
C      1  0.4348270000000  0.5267820000000  0.5478140000000 1.0
C      1  0.4712170000000  0.4442910000000  0.5564710000000 1.0
C      1  0.4269700000000  0.4777470000000  0.5311790000000 1.0
C      1  0.5224820000000  0.5541430000000  0.4442170000000 1.0
C      1  0.4598360000000  0.4188630000000  0.5095150000000 1.0
C      1  0.5750050000000  0.4885370000000  0.4700890000000 1.0
C      1  0.5804130000000  0.5386540000000  0.4866550000000 1.0
C      1  0.5064000000000  0.4880760000000  0.5753160000000 1.0
C      1  0.5544840000000  0.4261080000000  0.5042880000000 1.0
C      1  0.4398620000000  0.4719200000000  0.4816040000000 1.0
C      1  0.5209420000000  0.4830990000000  0.4385590000000 1.0
C      1  0.4594760000000  0.5697550000000  0.5251590000000 1.0
C      1  0.4607660000000  0.5309840000000  0.5039430000000 1.0
C      1  0.5298250000000  0.5812540000000  0.5336560000000 1.0
C      1  0.5675340000000  0.4434760000000  0.4566490000000 1.0
C      1  0.5049590000000  0.5702900000000  0.5438130000000 1.0
C      1  0.5346540000000  0.5499960000000  0.4891390000000 1.0
C      1  0.5564130000000  0.4234440000000  0.5337170000000 1.0
C      1  0.5700580000000  0.5469340000000  0.4588480000000 1.0
C      1  0.4688400000000  0.4839450000000  0.4870030000000 1.0
C      1  0.5440010000000  0.5942430000000  0.4876870000000 1.0
C      1  0.4681150000000  0.5624640000000  0.4658020000000 1.0
END
