TITL C-950523-3027-29 7.99480717703684e-07 125000 -868.492149680528 0 0 141 (C1) n - 1
REM
REM in /home/bkarasulu/work/CARBON/AIRSS/Generating-Clusters/EDIP-Nigel-Params/with-SteepDescent/Only-C1/SD-CG/HFTN-CG
REM
REM
REM
REM
REM
REM ./C.cell (11c1c37f851c82e70ff6c80c92926a4b)
REM
REM compiler GCC version 9.2.1 20190827 (Red Hat 9.2.1-1)
REM options -cpp -mtune=generic -march=x86-64 -g -O0 -fpre-include=/usr/include/finclude/math-vector-fortran.h
REM seed 855643592 585321319 1060756457 -389624515 263047502 -1299166059 -398042936 -1694468524 1515273426 1240968630 -943925078 1482591245 102650631 186548119 -1880204440 1860771803 488510198 1958364733 1538881101 1875975114 998262875 -650193478 -599990517 -937555184 -1323885778 1773309978 1801644237 -490892955 2120905781 2094826984 -274629065 -497411653 -1340906140
REM
CELL 1.54180   50.00000   50.00000   50.00000   90.00000   90.00000   90.00000
LATT -1
SFAC C  
C      1  0.5672590000000  0.4658830000000  0.5331950000000 1.0
C      1  0.5171650000000  0.6059180000000  0.5439200000000 1.0
C      1  0.5218070000000  0.4616310000000  0.4137560000000 1.0
C      1  0.5361370000000  0.5861990000000  0.4765980000000 1.0
C      1  0.5773010000000  0.4814470000000  0.5563640000000 1.0
C      1  0.5804770000000  0.4465860000000  0.4915000000000 1.0
C      1  0.5123480000000  0.5352330000000  0.4490440000000 1.0
C      1  0.4759810000000  0.4460540000000  0.4581140000000 1.0
C      1  0.4203180000000  0.4816560000000  0.4484980000000 1.0
C      1  0.6005060000000  0.5187000000000  0.4762890000000 1.0
C      1  0.4866390000000  0.5705640000000  0.4222610000000 1.0
C      1  0.5047050000000  0.5561330000000  0.5484420000000 1.0
C      1  0.5523630000000  0.5068650000000  0.5907380000000 1.0
C      1  0.4506510000000  0.4076340000000  0.5242270000000 1.0
C      1  0.4905960000000  0.5272790000000  0.4053710000000 1.0
C      1  0.5480130000000  0.4651810000000  0.4226350000000 1.0
C      1  0.4752730000000  0.4817510000000  0.4180300000000 1.0
C      1  0.4631300000000  0.4337190000000  0.4131920000000 1.0
C      1  0.4331610000000  0.4555770000000  0.4457800000000 1.0
C      1  0.5887460000000  0.5630920000000  0.5191550000000 1.0
C      1  0.4225810000000  0.5246790000000  0.5155930000000 1.0
C      1  0.4639010000000  0.4796760000000  0.5799570000000 1.0
C      1  0.5090810000000  0.5047640000000  0.5172550000000 1.0
C      1  0.4901290000000  0.5704860000000  0.4714690000000 1.0
C      1  0.4827240000000  0.4620290000000  0.5315260000000 1.0
C      1  0.4770890000000  0.5239680000000  0.5897050000000 1.0
C      1  0.5612940000000  0.4800300000000  0.5818390000000 1.0
C      1  0.5179890000000  0.5502260000000  0.5762440000000 1.0
C      1  0.4924010000000  0.5546790000000  0.4002960000000 1.0
C      1  0.5225340000000  0.5082500000000  0.4904560000000 1.0
C      1  0.5102220000000  0.4364630000000  0.4155130000000 1.0
C      1  0.5747450000000  0.5510440000000  0.4469400000000 1.0
C      1  0.4364980000000  0.5462230000000  0.5736060000000 1.0
C      1  0.4886030000000  0.4179800000000  0.5046020000000 1.0
C      1  0.4030040000000  0.4280710000000  0.5104740000000 1.0
C      1  0.5362730000000  0.3896910000000  0.5101100000000 1.0
C      1  0.4334240000000  0.5628500000000  0.5424690000000 1.0
C      1  0.4655680000000  0.5479970000000  0.5763070000000 1.0
C      1  0.5461240000000  0.5446710000000  0.4994640000000 1.0
C      1  0.4608270000000  0.4556380000000  0.4323440000000 1.0
C      1  0.4067970000000  0.4608050000000  0.5446200000000 1.0
C      1  0.4979280000000  0.5859020000000  0.5475200000000 1.0
C      1  0.4461570000000  0.4688120000000  0.5017750000000 1.0
C      1  0.5489080000000  0.4702000000000  0.4710340000000 1.0
C      1  0.4753310000000  0.5882500000000  0.5293620000000 1.0
C      1  0.5581610000000  0.5063950000000  0.4248730000000 1.0
C      1  0.5436920000000  0.5491600000000  0.4109310000000 1.0
C      1  0.4661500000000  0.5866400000000  0.4713500000000 1.0
C      1  0.5169600000000  0.5482310000000  0.5165140000000 1.0
C      1  0.5716480000000  0.5733810000000  0.5377770000000 1.0
C      1  0.4610910000000  0.5615220000000  0.5302790000000 1.0
C      1  0.4116580000000  0.4334680000000  0.5368130000000 1.0
C      1  0.5459410000000  0.5507800000000  0.5761290000000 1.0
C      1  0.5621530000000  0.4242090000000  0.4808180000000 1.0
C      1  0.5369950000000  0.4620520000000  0.5811960000000 1.0
C      1  0.4502360000000  0.5034320000000  0.5983600000000 1.0
C      1  0.4422830000000  0.4060280000000  0.4727930000000 1.0
C      1  0.4873810000000  0.4216630000000  0.4213950000000 1.0
C      1  0.5313650000000  0.5985380000000  0.5211410000000 1.0
C      1  0.5680050000000  0.4355160000000  0.5361410000000 1.0
C      1  0.5041620000000  0.5645550000000  0.4461330000000 1.0
C      1  0.5558290000000  0.3986690000000  0.4918090000000 1.0
C      1  0.4274820000000  0.5637010000000  0.4936110000000 1.0
C      1  0.4074240000000  0.4438900000000  0.4880620000000 1.0
C      1  0.5587880000000  0.4553270000000  0.4467610000000 1.0
C      1  0.4029450000000  0.4790700000000  0.5227250000000 1.0
C      1  0.5125620000000  0.4699060000000  0.5991190000000 1.0
C      1  0.6056100000000  0.5058820000000  0.5024320000000 1.0
C      1  0.5919830000000  0.5189370000000  0.5238780000000 1.0
C      1  0.5129600000000  0.5113860000000  0.4119550000000 1.0
C      1  0.4850120000000  0.5106900000000  0.4458710000000 1.0
C      1  0.4972270000000  0.4507280000000  0.5564260000000 1.0
C      1  0.5598090000000  0.5096820000000  0.4536610000000 1.0
C      1  0.4384980000000  0.5038810000000  0.5503240000000 1.0
C      1  0.4834490000000  0.4174820000000  0.4501520000000 1.0
C      1  0.5528570000000  0.5647180000000  0.4326820000000 1.0
C      1  0.4625940000000  0.3994360000000  0.4551080000000 1.0
C      1  0.4170890000000  0.5531660000000  0.5200280000000 1.0
C      1  0.4639570000000  0.4942690000000  0.4954850000000 1.0
C      1  0.4111230000000  0.4909380000000  0.4737940000000 1.0
C      1  0.5598940000000  0.5271620000000  0.5703070000000 1.0
C      1  0.4665710000000  0.5104750000000  0.4110090000000 1.0
C      1  0.4989110000000  0.4637360000000  0.4653390000000 1.0
C      1  0.5379920000000  0.4724240000000  0.5262190000000 1.0
C      1  0.5368190000000  0.4951130000000  0.4654310000000 1.0
C      1  0.5896220000000  0.4381880000000  0.5172040000000 1.0
C      1  0.4242230000000  0.4326450000000  0.4654910000000 1.0
C      1  0.4873100000000  0.4596250000000  0.5846360000000 1.0
C      1  0.5435870000000  0.4267770000000  0.5210450000000 1.0
C      1  0.4261270000000  0.5028990000000  0.4317000000000 1.0
C      1  0.4763410000000  0.5442490000000  0.5489410000000 1.0
C      1  0.5397170000000  0.5214190000000  0.4103450000000 1.0
C      1  0.4591860000000  0.5699980000000  0.4275160000000 1.0
C      1  0.4423290000000  0.5489210000000  0.4286190000000 1.0
C      1  0.4837040000000  0.5998400000000  0.5027650000000 1.0
C      1  0.5046160000000  0.4841840000000  0.4168770000000 1.0
C      1  0.4157500000000  0.4715670000000  0.4965230000000 1.0
C      1  0.4819540000000  0.4940810000000  0.5210210000000 1.0
C      1  0.5021930000000  0.5267850000000  0.4769760000000 1.0
C      1  0.5263320000000  0.4493300000000  0.5086070000000 1.0
C      1  0.4410540000000  0.4740640000000  0.5558640000000 1.0
C      1  0.5222260000000  0.5034640000000  0.5918850000000 1.0
C      1  0.4058890000000  0.5062280000000  0.5301410000000 1.0
C      1  0.5508140000000  0.5142160000000  0.5434210000000 1.0
C      1  0.5861140000000  0.4964330000000  0.4641140000000 1.0
C      1  0.5508170000000  0.4954390000000  0.5066530000000 1.0
C      1  0.4684430000000  0.5120650000000  0.5426140000000 1.0
C      1  0.5309270000000  0.5772890000000  0.4490350000000 1.0
C      1  0.4763830000000  0.3980980000000  0.5353080000000 1.0
C      1  0.4476080000000  0.5227490000000  0.4963380000000 1.0
C      1  0.4490190000000  0.5844050000000  0.4936790000000 1.0
C      1  0.5155490000000  0.5964420000000  0.4966930000000 1.0
C      1  0.5065970000000  0.5296600000000  0.5952190000000 1.0
C      1  0.5915130000000  0.5049950000000  0.5488620000000 1.0
C      1  0.4408600000000  0.4303690000000  0.5393470000000 1.0
C      1  0.5629390000000  0.5220450000000  0.5164050000000 1.0
C      1  0.5499130000000  0.4289850000000  0.4556060000000 1.0
C      1  0.5215860000000  0.5130500000000  0.5417160000000 1.0
C      1  0.4817520000000  0.4890360000000  0.4692300000000 1.0
C      1  0.4324560000000  0.5166240000000  0.5771590000000 1.0
C      1  0.4584120000000  0.4184250000000  0.4964870000000 1.0
C      1  0.4255460000000  0.5431340000000  0.4722790000000 1.0
C      1  0.5857890000000  0.5445340000000  0.4730570000000 1.0
C      1  0.5274060000000  0.4510650000000  0.4774120000000 1.0
C      1  0.4524080000000  0.4578340000000  0.5319030000000 1.0
C      1  0.4998980000000  0.4151980000000  0.5418170000000 1.0
C      1  0.4558550000000  0.4465590000000  0.4826890000000 1.0
C      1  0.4661120000000  0.5452110000000  0.5052010000000 1.0
C      1  0.5431910000000  0.5382750000000  0.4656830000000 1.0
C      1  0.5116440000000  0.4968100000000  0.5633580000000 1.0
C      1  0.5838570000000  0.5662960000000  0.4918350000000 1.0
C      1  0.5460960000000  0.5731320000000  0.5242650000000 1.0
C      1  0.4933560000000  0.5497270000000  0.4935950000000 1.0
C      1  0.5218660000000  0.4688860000000  0.5556240000000 1.0
C      1  0.5272310000000  0.4047040000000  0.5343070000000 1.0
C      1  0.4461900000000  0.5214240000000  0.4281570000000 1.0
C      1  0.4968480000000  0.4458660000000  0.5108110000000 1.0
C      1  0.5897390000000  0.4754350000000  0.4856650000000 1.0
C      1  0.4107390000000  0.5192410000000  0.4736760000000 1.0
C      1  0.5627440000000  0.5833850000000  0.4850310000000 1.0
C      1  0.4816500000000  0.5019730000000  0.5671740000000 1.0
END
