TITL C-951343-2256-608 -1.70743882092643e-06 125000 -1048.21009602345 0 0 166 (C1) n - 1
REM
REM in /home/bkarasulu/work/CARBON/AIRSS/Generating-Clusters/EDIP-Nigel-Params/with-SteepDescent/Only-C1/SD-CG/HFTN-CG
REM
REM
REM
REM
REM
REM ./C.cell (11c1c37f851c82e70ff6c80c92926a4b)
REM
REM compiler GCC version 9.2.1 20190827 (Red Hat 9.2.1-1)
REM options -cpp -mtune=generic -march=x86-64 -g -O0 -fpre-include=/usr/include/finclude/math-vector-fortran.h
REM seed -78167396 -1151605178 1390715870 1238614104 1452024897 1973363080 -1289520775 1780622541 -663598607 84194738 1671003060 2005282074 1264934511 -1509754809 -223419133 -438768044 1755608362 1819852922 -1637764931 -1418407384 -638792901 76907985 -388160274 -503963877 -645251765 815964008 -766836953 1215281759 -1496430470 1093140157 -814295407 2091931065 459845900
REM
CELL 1.54180   50.00000   50.00000   50.00000   90.00000   90.00000   90.00000
LATT -1
SFAC C  
C      1  0.4965410000000  0.4247400000000  0.4301310000000 1.0
C      1  0.4884800000000  0.6062980000000  0.5023560000000 1.0
C      1  0.5158090000000  0.4980640000000  0.5203600000000 1.0
C      1  0.5699230000000  0.5786710000000  0.5227150000000 1.0
C      1  0.5182090000000  0.4333300000000  0.5342390000000 1.0
C      1  0.4664040000000  0.5118450000000  0.5963990000000 1.0
C      1  0.5334750000000  0.5144030000000  0.5383110000000 1.0
C      1  0.4763290000000  0.4627940000000  0.4984690000000 1.0
C      1  0.4472530000000  0.4316520000000  0.4391570000000 1.0
C      1  0.5618000000000  0.5077880000000  0.5290970000000 1.0
C      1  0.4862950000000  0.5878800000000  0.4327630000000 1.0
C      1  0.4316640000000  0.4791500000000  0.5862780000000 1.0
C      1  0.5122130000000  0.4827360000000  0.4430750000000 1.0
C      1  0.4770480000000  0.5409640000000  0.5390970000000 1.0
C      1  0.4371320000000  0.5540540000000  0.5737930000000 1.0
C      1  0.4950680000000  0.4958580000000  0.5603190000000 1.0
C      1  0.5016920000000  0.5514020000000  0.5544950000000 1.0
C      1  0.5738320000000  0.4349860000000  0.4540320000000 1.0
C      1  0.5905080000000  0.5099760000000  0.4516710000000 1.0
C      1  0.4779600000000  0.6020700000000  0.5293500000000 1.0
C      1  0.5857360000000  0.4805490000000  0.5730640000000 1.0
C      1  0.5601400000000  0.4202850000000  0.4758660000000 1.0
C      1  0.5010830000000  0.6004500000000  0.5452370000000 1.0
C      1  0.5683550000000  0.5191420000000  0.4330550000000 1.0
C      1  0.5110740000000  0.5864760000000  0.4186510000000 1.0
C      1  0.5245890000000  0.4124900000000  0.4405860000000 1.0
C      1  0.5962410000000  0.4485600000000  0.5361970000000 1.0
C      1  0.5537830000000  0.4781890000000  0.4634870000000 1.0
C      1  0.5945950000000  0.4671360000000  0.4896640000000 1.0
C      1  0.5211150000000  0.3972610000000  0.5014770000000 1.0
C      1  0.4371290000000  0.4990340000000  0.4049880000000 1.0
C      1  0.4533190000000  0.4974030000000  0.5345280000000 1.0
C      1  0.4136800000000  0.5530970000000  0.4798600000000 1.0
C      1  0.5289030000000  0.4660050000000  0.5959800000000 1.0
C      1  0.5618320000000  0.4123360000000  0.5261320000000 1.0
C      1  0.6049190000000  0.4932980000000  0.4973210000000 1.0
C      1  0.5801630000000  0.4543930000000  0.5117000000000 1.0
C      1  0.4798520000000  0.4586020000000  0.5283900000000 1.0
C      1  0.4265030000000  0.4533120000000  0.5334930000000 1.0
C      1  0.5673630000000  0.5521590000000  0.5832750000000 1.0
C      1  0.4525920000000  0.5852140000000  0.5320480000000 1.0
C      1  0.5343970000000  0.4475270000000  0.4285440000000 1.0
C      1  0.5783420000000  0.5300220000000  0.5711360000000 1.0
C      1  0.3889810000000  0.5167560000000  0.4572680000000 1.0
C      1  0.5555930000000  0.5533860000000  0.5293360000000 1.0
C      1  0.5254790000000  0.5246720000000  0.5886470000000 1.0
C      1  0.4591190000000  0.5273330000000  0.4364850000000 1.0
C      1  0.5022540000000  0.5449660000000  0.4451260000000 1.0
C      1  0.5019500000000  0.4701630000000  0.4068380000000 1.0
C      1  0.4072490000000  0.4743760000000  0.5738150000000 1.0
C      1  0.5097780000000  0.5689900000000  0.4818350000000 1.0
C      1  0.4743680000000  0.4114890000000  0.5152610000000 1.0
C      1  0.5681950000000  0.4286350000000  0.5027700000000 1.0
C      1  0.4434990000000  0.4852490000000  0.4624780000000 1.0
C      1  0.5311020000000  0.5634820000000  0.5511930000000 1.0
C      1  0.5085890000000  0.5152280000000  0.4045990000000 1.0
C      1  0.4542440000000  0.4692390000000  0.5421200000000 1.0
C      1  0.5113680000000  0.4293380000000  0.5721630000000 1.0
C      1  0.5320570000000  0.4070120000000  0.5276620000000 1.0
C      1  0.4055080000000  0.4722120000000  0.5461850000000 1.0
C      1  0.4393510000000  0.5160020000000  0.4616050000000 1.0
C      1  0.5037190000000  0.4747270000000  0.5397160000000 1.0
C      1  0.5627230000000  0.5150250000000  0.4974550000000 1.0
C      1  0.5766960000000  0.5319510000000  0.5417150000000 1.0
C      1  0.5516870000000  0.4990590000000  0.4185640000000 1.0
C      1  0.5131450000000  0.5901510000000  0.5011460000000 1.0
C      1  0.4275590000000  0.4389540000000  0.4601220000000 1.0
C      1  0.4490300000000  0.5571830000000  0.5452630000000 1.0
C      1  0.4110320000000  0.5231940000000  0.4747550000000 1.0
C      1  0.5253470000000  0.5083620000000  0.4298260000000 1.0
C      1  0.5763550000000  0.4272420000000  0.5487130000000 1.0
C      1  0.4132180000000  0.4998800000000  0.5019980000000 1.0
C      1  0.4810490000000  0.5301050000000  0.4551130000000 1.0
C      1  0.4034600000000  0.4987810000000  0.5316080000000 1.0
C      1  0.6031500000000  0.5425570000000  0.5013550000000 1.0
C      1  0.4960250000000  0.5572200000000  0.5833330000000 1.0
C      1  0.4717500000000  0.5485330000000  0.4067650000000 1.0
C      1  0.5225350000000  0.5413470000000  0.4849840000000 1.0
C      1  0.5502160000000  0.5428770000000  0.4981020000000 1.0
C      1  0.5686860000000  0.5596750000000  0.4796830000000 1.0
C      1  0.6031520000000  0.5293450000000  0.5285810000000 1.0
C      1  0.4873410000000  0.4960800000000  0.4017390000000 1.0
C      1  0.4996240000000  0.5428200000000  0.4008200000000 1.0
C      1  0.5573370000000  0.4749090000000  0.5259450000000 1.0
C      1  0.5222590000000  0.5514300000000  0.5956980000000 1.0
C      1  0.5427660000000  0.5645990000000  0.5794360000000 1.0
C      1  0.4553660000000  0.4807070000000  0.4897500000000 1.0
C      1  0.5204500000000  0.5616620000000  0.4079580000000 1.0
C      1  0.4715530000000  0.4136300000000  0.4435460000000 1.0
C      1  0.4804860000000  0.4861910000000  0.5845480000000 1.0
C      1  0.4877910000000  0.4798510000000  0.4590150000000 1.0
C      1  0.5219550000000  0.4514680000000  0.5066840000000 1.0
C      1  0.4013730000000  0.5045510000000  0.4353730000000 1.0
C      1  0.4166800000000  0.5612800000000  0.5082730000000 1.0
C      1  0.4920890000000  0.3922610000000  0.5014250000000 1.0
C      1  0.4804810000000  0.5384430000000  0.5094390000000 1.0
C      1  0.4506250000000  0.5591690000000  0.5978620000000 1.0
C      1  0.4163880000000  0.4503640000000  0.5047410000000 1.0
C      1  0.4261170000000  0.4293050000000  0.4875890000000 1.0
C      1  0.4281490000000  0.4713910000000  0.4120910000000 1.0
C      1  0.5308220000000  0.4625810000000  0.4546880000000 1.0
C      1  0.4558660000000  0.4543850000000  0.4225810000000 1.0
C      1  0.4356480000000  0.4236990000000  0.5427990000000 1.0
C      1  0.4912060000000  0.4399720000000  0.5906200000000 1.0
C      1  0.5964890000000  0.4826900000000  0.4453600000000 1.0
C      1  0.4630860000000  0.5015000000000  0.4197840000000 1.0
C      1  0.5389620000000  0.6014220000000  0.4625380000000 1.0
C      1  0.4178210000000  0.5189650000000  0.4166080000000 1.0
C      1  0.4274650000000  0.5433280000000  0.5288290000000 1.0
C      1  0.4128090000000  0.5237380000000  0.5455360000000 1.0
C      1  0.5413950000000  0.4845420000000  0.5743950000000 1.0
C      1  0.5024520000000  0.5208630000000  0.4980940000000 1.0
C      1  0.5328310000000  0.4683790000000  0.4067050000000 1.0
C      1  0.4380540000000  0.5659690000000  0.4358460000000 1.0
C      1  0.4232660000000  0.5278290000000  0.5739400000000 1.0
C      1  0.5655020000000  0.5474170000000  0.4238320000000 1.0
C      1  0.4848440000000  0.4467780000000  0.4135180000000 1.0
C      1  0.4283010000000  0.4033040000000  0.4977180000000 1.0
C      1  0.4234620000000  0.5463470000000  0.4217190000000 1.0
C      1  0.5235680000000  0.5070650000000  0.5661370000000 1.0
C      1  0.5599940000000  0.5828930000000  0.4600820000000 1.0
C      1  0.4749920000000  0.4202920000000  0.4717980000000 1.0
C      1  0.5572530000000  0.4293980000000  0.4305360000000 1.0
C      1  0.4188190000000  0.4676740000000  0.4607070000000 1.0
C      1  0.5276160000000  0.5356280000000  0.4540380000000 1.0
C      1  0.5341440000000  0.4784110000000  0.5069480000000 1.0
C      1  0.4694170000000  0.6027170000000  0.4818100000000 1.0
C      1  0.4844820000000  0.4289390000000  0.5367690000000 1.0
C      1  0.4447040000000  0.5897470000000  0.4818890000000 1.0
C      1  0.4620470000000  0.4230590000000  0.5576700000000 1.0
C      1  0.4454860000000  0.4061240000000  0.5200200000000 1.0
C      1  0.5592210000000  0.4435490000000  0.5677970000000 1.0
C      1  0.5301860000000  0.4154060000000  0.4725370000000 1.0
C      1  0.4443100000000  0.5015640000000  0.5066140000000 1.0
C      1  0.4343330000000  0.5850340000000  0.5086370000000 1.0
C      1  0.4074250000000  0.4759070000000  0.4340710000000 1.0
C      1  0.4753300000000  0.5124150000000  0.5451270000000 1.0
C      1  0.5183950000000  0.4436870000000  0.4781860000000 1.0
C      1  0.4569420000000  0.4685380000000  0.5736070000000 1.0
C      1  0.4573270000000  0.5254410000000  0.4923890000000 1.0
C      1  0.5276940000000  0.5915870000000  0.5428980000000 1.0
C      1  0.4649580000000  0.5696610000000  0.4247030000000 1.0
C      1  0.5731640000000  0.5042700000000  0.5823130000000 1.0
C      1  0.4633780000000  0.4404570000000  0.5810910000000 1.0
C      1  0.4835240000000  0.3924760000000  0.4741680000000 1.0
C      1  0.5915110000000  0.5164980000000  0.4838280000000 1.0
C      1  0.5423100000000  0.4644320000000  0.5505220000000 1.0
C      1  0.5352560000000  0.4378670000000  0.5855990000000 1.0
C      1  0.5474280000000  0.5541310000000  0.4030620000000 1.0
C      1  0.5780190000000  0.4569910000000  0.5854390000000 1.0
C      1  0.4369820000000  0.5074060000000  0.5924130000000 1.0
C      1  0.4633080000000  0.4790210000000  0.4405980000000 1.0
C      1  0.5455970000000  0.5963360000000  0.5200920000000 1.0
C      1  0.5490780000000  0.5571740000000  0.4462170000000 1.0
C      1  0.5449360000000  0.4947580000000  0.4849850000000 1.0
C      1  0.5809040000000  0.4655210000000  0.4627610000000 1.0
C      1  0.4336200000000  0.5688820000000  0.4646550000000 1.0
C      1  0.4886470000000  0.4474850000000  0.4758980000000 1.0
C      1  0.5967770000000  0.4773180000000  0.5462280000000 1.0
C      1  0.4861630000000  0.5083690000000  0.4744500000000 1.0
C      1  0.4731030000000  0.5421210000000  0.5966550000000 1.0
C      1  0.5161470000000  0.5843870000000  0.4570560000000 1.0
C      1  0.6054200000000  0.4990020000000  0.5262400000000 1.0
C      1  0.4989350000000  0.4669660000000  0.6001780000000 1.0
C      1  0.5883370000000  0.5701010000000  0.4996890000000 1.0
C      1  0.4071390000000  0.4731810000000  0.4888870000000 1.0
END
