TITL C-950536-5891-38 -2.64062632882173e-07 125000 -314.749989240953 0 0 52 (C1) n - 1
REM
REM in /home/bkarasulu/work/CARBON/AIRSS/Generating-Clusters/EDIP-Nigel-Params/with-SteepDescent/Only-C1/SD-CG/HFTN-CG
REM
REM
REM
REM
REM
REM ./C.cell (11c1c37f851c82e70ff6c80c92926a4b)
REM
REM compiler GCC version 9.2.1 20190827 (Red Hat 9.2.1-1)
REM options -cpp -mtune=generic -march=x86-64 -g -O0 -fpre-include=/usr/include/finclude/math-vector-fortran.h
REM seed -807011188 1079313332 1874317656 -552901671 2015098942 415855988 1410185928 707547276 2098001741 451527450 -1357498879 1536842149 -1745456860 -1038709677 1289502807 -1033232137 -1665049857 -153851841 -1263256113 79939790 -159252710 -1515414810 277040727 477678287 1216477253 82454867 1958522190 1800404225 536242241 -1461155096 1674254475 -326010804 1898221540
REM
CELL 1.54180   50.00000   50.00000   50.00000   90.00000   90.00000   90.00000
LATT -1
SFAC C  
C      1  0.4682760000000  0.5597660000000  0.5051450000000 1.0
C      1  0.5431960000000  0.4361930000000  0.5168120000000 1.0
C      1  0.5468280000000  0.4998590000000  0.5493760000000 1.0
C      1  0.5605000000000  0.5492300000000  0.5278930000000 1.0
C      1  0.5293330000000  0.5428420000000  0.4889730000000 1.0
C      1  0.4946020000000  0.4405950000000  0.4518150000000 1.0
C      1  0.5538970000000  0.5003320000000  0.5056800000000 1.0
C      1  0.4431850000000  0.5373950000000  0.4511710000000 1.0
C      1  0.4861930000000  0.5657190000000  0.4835920000000 1.0
C      1  0.4529690000000  0.4716120000000  0.4821180000000 1.0
C      1  0.5500760000000  0.4515010000000  0.5393430000000 1.0
C      1  0.4699220000000  0.4511280000000  0.5212400000000 1.0
C      1  0.4509150000000  0.4751240000000  0.4538610000000 1.0
C      1  0.5047120000000  0.4177450000000  0.4935400000000 1.0
C      1  0.4796040000000  0.5566590000000  0.5303170000000 1.0
C      1  0.4580100000000  0.5197450000000  0.4333670000000 1.0
C      1  0.4956850000000  0.4425510000000  0.4807720000000 1.0
C      1  0.5265010000000  0.5669550000000  0.5342330000000 1.0
C      1  0.4424910000000  0.5162370000000  0.5196570000000 1.0
C      1  0.5314740000000  0.5229940000000  0.5604320000000 1.0
C      1  0.5020670000000  0.5218490000000  0.5541910000000 1.0
C      1  0.5356460000000  0.4727270000000  0.5506290000000 1.0
C      1  0.4516260000000  0.4733440000000  0.5298720000000 1.0
C      1  0.5221850000000  0.4930420000000  0.5011780000000 1.0
C      1  0.5081970000000  0.5529120000000  0.4713550000000 1.0
C      1  0.5007060000000  0.5357600000000  0.4487740000000 1.0
C      1  0.5455730000000  0.4502640000000  0.4917730000000 1.0
C      1  0.5067070000000  0.4700630000000  0.5489490000000 1.0
C      1  0.5208190000000  0.4647620000000  0.4872140000000 1.0
C      1  0.4971230000000  0.5345160000000  0.5277480000000 1.0
C      1  0.4610930000000  0.4916060000000  0.5512610000000 1.0
C      1  0.4754380000000  0.5096070000000  0.4814690000000 1.0
C      1  0.4772560000000  0.5416280000000  0.4329920000000 1.0
C      1  0.5146690000000  0.5107280000000  0.4420950000000 1.0
C      1  0.5353110000000  0.5008510000000  0.4596950000000 1.0
C      1  0.4494220000000  0.5253090000000  0.4767310000000 1.0
C      1  0.5672230000000  0.5055470000000  0.5304510000000 1.0
C      1  0.4445510000000  0.4891160000000  0.5059120000000 1.0
C      1  0.5334760000000  0.4707850000000  0.4606130000000 1.0
C      1  0.5453790000000  0.5181110000000  0.4821560000000 1.0
C      1  0.5100920000000  0.4628820000000  0.4438190000000 1.0
C      1  0.4964990000000  0.4881370000000  0.4362110000000 1.0
C      1  0.5409090000000  0.5606790000000  0.5089830000000 1.0
C      1  0.4450460000000  0.5403350000000  0.5013050000000 1.0
C      1  0.4975240000000  0.4486660000000  0.5312570000000 1.0
C      1  0.4702090000000  0.4966630000000  0.4497720000000 1.0
C      1  0.5147810000000  0.4281670000000  0.5182270000000 1.0
C      1  0.4902630000000  0.4948050000000  0.5450640000000 1.0
C      1  0.4458250000000  0.5158000000000  0.5480840000000 1.0
C      1  0.4685280000000  0.4492100000000  0.4920860000000 1.0
C      1  0.4941610000000  0.5080530000000  0.5086540000000 1.0
C      1  0.5433240000000  0.5498990000000  0.5521450000000 1.0
END
