TITL C-951343-2256-1 -8.39407152534628e-07 125000 -887.767903444844 0 0 142 (C1) n - 1
REM
REM in /home/bkarasulu/work/CARBON/AIRSS/Generating-Clusters/EDIP-Nigel-Params/with-SteepDescent/Only-C1/SD-CG/HFTN-CG
REM
REM
REM
REM
REM
REM ./C.cell (11c1c37f851c82e70ff6c80c92926a4b)
REM
REM compiler GCC version 9.2.1 20190827 (Red Hat 9.2.1-1)
REM options -cpp -mtune=generic -march=x86-64 -g -O0 -fpre-include=/usr/include/finclude/math-vector-fortran.h
REM seed 1010216770 -373180295 -837123401 460882834 825726790 846842701 -526885380 -1723122181 2068158656 -1063611526 -354924049 -858998255 1165102437 728894884 2097487175 54927451 760762215 936294333 -1872856309 451645424 -172952729 927062246 -2116593769 -550760095 658237277 1339565834 -760031821 -1933683867 -1813359750 -1893421757 -527830260 -658625836 1432717419
REM
CELL 1.54180   50.00000   50.00000   50.00000   90.00000   90.00000   90.00000
LATT -1
SFAC C  
C      1  0.5511930000000  0.4802740000000  0.4907080000000 1.0
C      1  0.4769980000000  0.4364980000000  0.4857640000000 1.0
C      1  0.4871880000000  0.5191610000000  0.4401730000000 1.0
C      1  0.3866720000000  0.4944930000000  0.4911530000000 1.0
C      1  0.4677840000000  0.5025120000000  0.4929010000000 1.0
C      1  0.5068240000000  0.5401030000000  0.4529580000000 1.0
C      1  0.5270480000000  0.5481670000000  0.5725210000000 1.0
C      1  0.4251700000000  0.4321190000000  0.5143880000000 1.0
C      1  0.4527370000000  0.4755760000000  0.5251000000000 1.0
C      1  0.4569180000000  0.5039170000000  0.6067850000000 1.0
C      1  0.5072200000000  0.4209330000000  0.5134980000000 1.0
C      1  0.4241470000000  0.4921180000000  0.5758360000000 1.0
C      1  0.4579140000000  0.4142690000000  0.4796190000000 1.0
C      1  0.5672250000000  0.5432470000000  0.5470130000000 1.0
C      1  0.5711050000000  0.4524460000000  0.4521100000000 1.0
C      1  0.4068930000000  0.4552660000000  0.4737480000000 1.0
C      1  0.4432320000000  0.5614610000000  0.5283150000000 1.0
C      1  0.5862340000000  0.5648210000000  0.4600010000000 1.0
C      1  0.5470460000000  0.5210150000000  0.3938690000000 1.0
C      1  0.5640760000000  0.5007440000000  0.4057040000000 1.0
C      1  0.5923810000000  0.4713760000000  0.5005620000000 1.0
C      1  0.4479570000000  0.4421260000000  0.4160530000000 1.0
C      1  0.4348670000000  0.4589900000000  0.4343870000000 1.0
C      1  0.4135710000000  0.5245630000000  0.5423640000000 1.0
C      1  0.4938810000000  0.4925500000000  0.4517580000000 1.0
C      1  0.5526790000000  0.4332770000000  0.4674900000000 1.0
C      1  0.5755050000000  0.4493730000000  0.5106320000000 1.0
C      1  0.4357910000000  0.5765720000000  0.4676740000000 1.0
C      1  0.5506710000000  0.4047270000000  0.5046730000000 1.0
C      1  0.5341520000000  0.4266120000000  0.5675680000000 1.0
C      1  0.4361090000000  0.5144630000000  0.5592120000000 1.0
C      1  0.5391600000000  0.5838910000000  0.5371520000000 1.0
C      1  0.4543250000000  0.5894790000000  0.4843850000000 1.0
C      1  0.4923820000000  0.5034270000000  0.5110090000000 1.0
C      1  0.5176820000000  0.4741360000000  0.5584510000000 1.0
C      1  0.4849270000000  0.5444090000000  0.5496140000000 1.0
C      1  0.4474020000000  0.4861730000000  0.4350530000000 1.0
C      1  0.5014960000000  0.5021110000000  0.3926760000000 1.0
C      1  0.4558570000000  0.5272420000000  0.4838200000000 1.0
C      1  0.4864650000000  0.5136180000000  0.5442540000000 1.0
C      1  0.5340630000000  0.4764630000000  0.4667200000000 1.0
C      1  0.5562620000000  0.5751940000000  0.5155490000000 1.0
C      1  0.4219540000000  0.5559690000000  0.4537940000000 1.0
C      1  0.5088770000000  0.4994210000000  0.5725920000000 1.0
C      1  0.4670190000000  0.4285990000000  0.4317040000000 1.0
C      1  0.4852520000000  0.5437760000000  0.5968970000000 1.0
C      1  0.5168970000000  0.5797540000000  0.4702270000000 1.0
C      1  0.5723430000000  0.4468900000000  0.5396700000000 1.0
C      1  0.3963790000000  0.4835990000000  0.4671000000000 1.0
C      1  0.5076150000000  0.5482570000000  0.4094850000000 1.0
C      1  0.4936080000000  0.4394930000000  0.4368150000000 1.0
C      1  0.5856030000000  0.4941300000000  0.5457520000000 1.0
C      1  0.5631380000000  0.4986860000000  0.4351100000000 1.0
C      1  0.4246910000000  0.5276640000000  0.4948180000000 1.0
C      1  0.4893120000000  0.4789370000000  0.4028560000000 1.0
C      1  0.5550300000000  0.5593480000000  0.4219490000000 1.0
C      1  0.5845510000000  0.4749060000000  0.4703120000000 1.0
C      1  0.4606080000000  0.5305090000000  0.5980260000000 1.0
C      1  0.5025930000000  0.4324520000000  0.4650870000000 1.0
C      1  0.5617840000000  0.5088410000000  0.4964710000000 1.0
C      1  0.4938220000000  0.4156140000000  0.5397300000000 1.0
C      1  0.5129000000000  0.4608050000000  0.6029200000000 1.0
C      1  0.5579900000000  0.4678450000000  0.5819720000000 1.0
C      1  0.5503960000000  0.4272380000000  0.5428480000000 1.0
C      1  0.4986950000000  0.5548440000000  0.5743540000000 1.0
C      1  0.4328000000000  0.4774620000000  0.5017420000000 1.0
C      1  0.4451100000000  0.4816110000000  0.5940640000000 1.0
C      1  0.4584950000000  0.5020400000000  0.5418940000000 1.0
C      1  0.4587240000000  0.5252790000000  0.4519450000000 1.0
C      1  0.5664990000000  0.4264440000000  0.4931820000000 1.0
C      1  0.5842690000000  0.5020300000000  0.4550870000000 1.0
C      1  0.5262920000000  0.4484790000000  0.4727160000000 1.0
C      1  0.5311780000000  0.4682130000000  0.5140880000000 1.0
C      1  0.4971060000000  0.5623740000000  0.4346000000000 1.0
C      1  0.5504500000000  0.4922550000000  0.5977150000000 1.0
C      1  0.5810150000000  0.5198710000000  0.5613320000000 1.0
C      1  0.5012920000000  0.4751470000000  0.5118520000000 1.0
C      1  0.4798370000000  0.4409430000000  0.5422390000000 1.0
C      1  0.4317960000000  0.4189420000000  0.4893700000000 1.0
C      1  0.4082110000000  0.5346350000000  0.4702340000000 1.0
C      1  0.4217660000000  0.5431680000000  0.5203980000000 1.0
C      1  0.5164890000000  0.4996150000000  0.4681170000000 1.0
C      1  0.5025280000000  0.5457200000000  0.4836130000000 1.0
C      1  0.5437250000000  0.4082460000000  0.4545050000000 1.0
C      1  0.5468080000000  0.5630540000000  0.5567070000000 1.0
C      1  0.5563260000000  0.5156430000000  0.5804280000000 1.0
C      1  0.5022860000000  0.5882920000000  0.4458650000000 1.0
C      1  0.4133820000000  0.4750890000000  0.5532640000000 1.0
C      1  0.5130270000000  0.5179120000000  0.4931770000000 1.0
C      1  0.5085420000000  0.5940020000000  0.5171230000000 1.0
C      1  0.4601310000000  0.5831700000000  0.5682010000000 1.0
C      1  0.5058390000000  0.5999290000000  0.4886480000000 1.0
C      1  0.5506890000000  0.4727240000000  0.4411380000000 1.0
C      1  0.5305680000000  0.4549640000000  0.5781060000000 1.0
C      1  0.5311120000000  0.5198890000000  0.5655460000000 1.0
C      1  0.5385540000000  0.4824100000000  0.5394890000000 1.0
C      1  0.5220420000000  0.3998950000000  0.4970280000000 1.0
C      1  0.5333260000000  0.4363980000000  0.5187300000000 1.0
C      1  0.5115000000000  0.4114050000000  0.5611650000000 1.0
C      1  0.5390320000000  0.5245890000000  0.5084780000000 1.0
C      1  0.4115480000000  0.4554360000000  0.5037380000000 1.0
C      1  0.4077700000000  0.5087220000000  0.4545400000000 1.0
C      1  0.4576190000000  0.4116300000000  0.4518770000000 1.0
C      1  0.4274070000000  0.5100860000000  0.4328260000000 1.0
C      1  0.4564430000000  0.4450780000000  0.5599940000000 1.0
C      1  0.4743280000000  0.5978530000000  0.5505000000000 1.0
C      1  0.4745000000000  0.5485350000000  0.4936290000000 1.0
C      1  0.5895290000000  0.5575080000000  0.5078410000000 1.0
C      1  0.5666170000000  0.5830780000000  0.4692880000000 1.0
C      1  0.5193450000000  0.4907250000000  0.6019100000000 1.0
C      1  0.4816110000000  0.5902690000000  0.5247720000000 1.0
C      1  0.5052710000000  0.4626290000000  0.4214930000000 1.0
C      1  0.5343980000000  0.4647430000000  0.4171550000000 1.0
C      1  0.4858160000000  0.4551530000000  0.5988830000000 1.0
C      1  0.4122500000000  0.5000800000000  0.5051060000000 1.0
C      1  0.4637900000000  0.4851470000000  0.4118570000000 1.0
C      1  0.5904620000000  0.4962370000000  0.5169050000000 1.0
C      1  0.4630260000000  0.5727360000000  0.5077690000000 1.0
C      1  0.5434450000000  0.4823470000000  0.3958340000000 1.0
C      1  0.5652750000000  0.4730040000000  0.5524070000000 1.0
C      1  0.5179830000000  0.4053030000000  0.4674180000000 1.0
C      1  0.4031940000000  0.4983070000000  0.5339300000000 1.0
C      1  0.4445210000000  0.5377310000000  0.5748210000000 1.0
C      1  0.4777710000000  0.4569380000000  0.5165590000000 1.0
C      1  0.4682680000000  0.4859320000000  0.4675430000000 1.0
C      1  0.4334620000000  0.4461480000000  0.4616360000000 1.0
C      1  0.5917640000000  0.5454010000000  0.5336080000000 1.0
C      1  0.4788390000000  0.6017210000000  0.4734080000000 1.0
C      1  0.4352600000000  0.4563120000000  0.5410000000000 1.0
C      1  0.5362490000000  0.5405780000000  0.4118530000000 1.0
C      1  0.5366940000000  0.5127760000000  0.5365690000000 1.0
C      1  0.4632200000000  0.4612220000000  0.5836290000000 1.0
C      1  0.4569920000000  0.4591900000000  0.4774430000000 1.0
C      1  0.4384850000000  0.5399200000000  0.4347770000000 1.0
C      1  0.5462310000000  0.5405050000000  0.4548260000000 1.0
C      1  0.5421300000000  0.5547860000000  0.5011860000000 1.0
C      1  0.5437390000000  0.5650450000000  0.4733980000000 1.0
C      1  0.5921360000000  0.5452200000000  0.4811390000000 1.0
C      1  0.4572040000000  0.5569400000000  0.5553500000000 1.0
C      1  0.5788690000000  0.5530390000000  0.4351010000000 1.0
C      1  0.4913350000000  0.5229540000000  0.4091770000000 1.0
C      1  0.5721980000000  0.5237150000000  0.4718090000000 1.0
END
