TITL C-950521-2237-462 -1.46893562209069e-06 125000 -1102.94001539055 0 0 175 (C1) n - 1
REM
REM in /home/bkarasulu/work/CARBON/AIRSS/Generating-Clusters/EDIP-Nigel-Params/with-SteepDescent/Only-C1/SD-CG/HFTN-CG
REM
REM
REM
REM
REM
REM ./C.cell (11c1c37f851c82e70ff6c80c92926a4b)
REM
REM compiler GCC version 9.2.1 20190827 (Red Hat 9.2.1-1)
REM options -cpp -mtune=generic -march=x86-64 -g -O0 -fpre-include=/usr/include/finclude/math-vector-fortran.h
REM seed -828778886 954697332 -35955538 -32525082 1127315076 -634550958 -1889881059 -1144779275 1253482762 -128147348 1373786796 -220008743 692538168 60029924 803226920 905760760 -1955366262 -1170143863 -987564729 667672459 1677267375 -37284407 1827040137 -305127013 357553850 -611843538 59593760 428254077 -1705428206 -1257713395 656286440 -1513252147 921055689
REM
CELL 1.54180   50.00000   50.00000   50.00000   90.00000   90.00000   90.00000
LATT -1
SFAC C  
C      1  0.5561310000000  0.4056360000000  0.4856260000000 1.0
C      1  0.5463560000000  0.5446880000000  0.4066130000000 1.0
C      1  0.4885200000000  0.5701770000000  0.5711840000000 1.0
C      1  0.4979080000000  0.4348890000000  0.5468500000000 1.0
C      1  0.4740360000000  0.5687980000000  0.5127990000000 1.0
C      1  0.5980930000000  0.5402060000000  0.4728830000000 1.0
C      1  0.4865750000000  0.6080600000000  0.4457120000000 1.0
C      1  0.5266370000000  0.4440390000000  0.5388370000000 1.0
C      1  0.5090620000000  0.5841370000000  0.5530860000000 1.0
C      1  0.5273470000000  0.4991170000000  0.4015770000000 1.0
C      1  0.5379230000000  0.4847950000000  0.4696360000000 1.0
C      1  0.4329080000000  0.5671790000000  0.5384930000000 1.0
C      1  0.5909750000000  0.4505650000000  0.4780020000000 1.0
C      1  0.4192030000000  0.4424660000000  0.5148990000000 1.0
C      1  0.5403160000000  0.4658100000000  0.6019680000000 1.0
C      1  0.5759450000000  0.5261290000000  0.5947360000000 1.0
C      1  0.4327240000000  0.5152080000000  0.4682890000000 1.0
C      1  0.5994340000000  0.4666060000000  0.5017590000000 1.0
C      1  0.5466390000000  0.5133450000000  0.6166670000000 1.0
C      1  0.4749310000000  0.4479750000000  0.4595480000000 1.0
C      1  0.5179090000000  0.4902970000000  0.5606960000000 1.0
C      1  0.5677120000000  0.4269010000000  0.4396800000000 1.0
C      1  0.5239010000000  0.5230940000000  0.5510880000000 1.0
C      1  0.4414020000000  0.4056360000000  0.5253050000000 1.0
C      1  0.5494750000000  0.5165090000000  0.4119510000000 1.0
C      1  0.4081320000000  0.5331960000000  0.4662860000000 1.0
C      1  0.5002990000000  0.4173860000000  0.5712030000000 1.0
C      1  0.5336140000000  0.6016480000000  0.5121450000000 1.0
C      1  0.4450980000000  0.4364500000000  0.4653060000000 1.0
C      1  0.4384560000000  0.5405960000000  0.5809940000000 1.0
C      1  0.4094310000000  0.4874910000000  0.5349590000000 1.0
C      1  0.4838840000000  0.5516740000000  0.5376110000000 1.0
C      1  0.4969970000000  0.6169980000000  0.4880910000000 1.0
C      1  0.4234690000000  0.5946100000000  0.5317810000000 1.0
C      1  0.4606070000000  0.5303850000000  0.5447420000000 1.0
C      1  0.5311070000000  0.4336440000000  0.5124960000000 1.0
C      1  0.5776060000000  0.5097230000000  0.4228720000000 1.0
C      1  0.5802170000000  0.5542420000000  0.4521090000000 1.0
C      1  0.4197140000000  0.5285970000000  0.5613130000000 1.0
C      1  0.5098230000000  0.6033800000000  0.5305440000000 1.0
C      1  0.4917790000000  0.4169060000000  0.5232960000000 1.0
C      1  0.4298860000000  0.5586190000000  0.4244410000000 1.0
C      1  0.4192740000000  0.4603530000000  0.5379250000000 1.0
C      1  0.5219290000000  0.5809630000000  0.4317480000000 1.0
C      1  0.5809000000000  0.4658110000000  0.5508550000000 1.0
C      1  0.4329310000000  0.4568850000000  0.5639800000000 1.0
C      1  0.4714700000000  0.4356270000000  0.5873390000000 1.0
C      1  0.3902090000000  0.5035620000000  0.4368020000000 1.0
C      1  0.5448800000000  0.5738650000000  0.5137800000000 1.0
C      1  0.5615510000000  0.4608450000000  0.4103670000000 1.0
C      1  0.5858950000000  0.4958500000000  0.4507750000000 1.0
C      1  0.5467730000000  0.4266860000000  0.5548830000000 1.0
C      1  0.5382020000000  0.4732690000000  0.5437500000000 1.0
C      1  0.6088530000000  0.5148250000000  0.5244880000000 1.0
C      1  0.4471360000000  0.5578760000000  0.5134140000000 1.0
C      1  0.4806270000000  0.4641440000000  0.5897620000000 1.0
C      1  0.5506330000000  0.4972140000000  0.5185210000000 1.0
C      1  0.4568270000000  0.5137650000000  0.4147830000000 1.0
C      1  0.5409800000000  0.4317170000000  0.4494670000000 1.0
C      1  0.5572450000000  0.4878890000000  0.6063130000000 1.0
C      1  0.5555280000000  0.5686960000000  0.5403690000000 1.0
C      1  0.5179270000000  0.5174490000000  0.6206550000000 1.0
C      1  0.5896460000000  0.5358200000000  0.4199540000000 1.0
C      1  0.4316210000000  0.5984870000000  0.5034300000000 1.0
C      1  0.5290850000000  0.4786330000000  0.4217450000000 1.0
C      1  0.5251760000000  0.6068740000000  0.4839500000000 1.0
C      1  0.5341240000000  0.5713140000000  0.5595260000000 1.0
C      1  0.4496450000000  0.4749090000000  0.4929120000000 1.0
C      1  0.5431520000000  0.4067910000000  0.5134300000000 1.0
C      1  0.4074010000000  0.5511290000000  0.4900190000000 1.0
C      1  0.4161810000000  0.4150370000000  0.5192930000000 1.0
C      1  0.4500820000000  0.4643820000000  0.4218710000000 1.0
C      1  0.4286060000000  0.4816550000000  0.5796700000000 1.0
C      1  0.4970040000000  0.3795690000000  0.5295100000000 1.0
C      1  0.5393660000000  0.4546330000000  0.4700980000000 1.0
C      1  0.5118380000000  0.5590960000000  0.4797980000000 1.0
C      1  0.4688740000000  0.5082080000000  0.5632950000000 1.0
C      1  0.5715920000000  0.5039540000000  0.4971420000000 1.0
C      1  0.4916330000000  0.5157640000000  0.4811560000000 1.0
C      1  0.4729490000000  0.4551600000000  0.5455830000000 1.0
C      1  0.5790610000000  0.4238680000000  0.4811810000000 1.0
C      1  0.4321840000000  0.5690680000000  0.4899400000000 1.0
C      1  0.4035240000000  0.5340160000000  0.5140080000000 1.0
C      1  0.5059210000000  0.5421390000000  0.6146120000000 1.0
C      1  0.6004980000000  0.4979730000000  0.4996930000000 1.0
C      1  0.4174870000000  0.4930000000000  0.4403010000000 1.0
C      1  0.4563550000000  0.6090680000000  0.5178080000000 1.0
C      1  0.4927340000000  0.4826810000000  0.4012570000000 1.0
C      1  0.4810880000000  0.5718660000000  0.4820410000000 1.0
C      1  0.5021670000000  0.4950040000000  0.6117710000000 1.0
C      1  0.4577390000000  0.4007320000000  0.5006620000000 1.0
C      1  0.4837310000000  0.4810310000000  0.5619980000000 1.0
C      1  0.5794440000000  0.4497630000000  0.4295880000000 1.0
C      1  0.5842060000000  0.5465710000000  0.4978810000000 1.0
C      1  0.5167470000000  0.4787070000000  0.5912760000000 1.0
C      1  0.4857870000000  0.4969990000000  0.4584710000000 1.0
C      1  0.4861640000000  0.6112520000000  0.5146440000000 1.0
C      1  0.4471800000000  0.4067660000000  0.4720440000000 1.0
C      1  0.5193940000000  0.4921940000000  0.4475990000000 1.0
C      1  0.5939070000000  0.4534060000000  0.5276510000000 1.0
C      1  0.4789040000000  0.5077720000000  0.3957760000000 1.0
C      1  0.4116860000000  0.5464330000000  0.5397100000000 1.0
C      1  0.5145600000000  0.4744400000000  0.5064260000000 1.0
C      1  0.4863910000000  0.5124010000000  0.5098410000000 1.0
C      1  0.5865230000000  0.4267190000000  0.5255530000000 1.0
C      1  0.4801480000000  0.6012720000000  0.4717260000000 1.0
C      1  0.4556860000000  0.5322420000000  0.4616330000000 1.0
C      1  0.5231740000000  0.4352240000000  0.4257580000000 1.0
C      1  0.5641230000000  0.4127950000000  0.5340540000000 1.0
C      1  0.4579570000000  0.5189290000000  0.5887520000000 1.0
C      1  0.5216390000000  0.5555380000000  0.5083870000000 1.0
C      1  0.5709610000000  0.5566860000000  0.4147440000000 1.0
C      1  0.4930160000000  0.4345030000000  0.4279220000000 1.0
C      1  0.4506120000000  0.5744170000000  0.4388280000000 1.0
C      1  0.4876980000000  0.4077950000000  0.4453180000000 1.0
C      1  0.5747750000000  0.4989830000000  0.5855920000000 1.0
C      1  0.4453530000000  0.4952990000000  0.6021140000000 1.0
C      1  0.4953140000000  0.5913970000000  0.4256990000000 1.0
C      1  0.4923480000000  0.5353310000000  0.3941420000000 1.0
C      1  0.4570230000000  0.5202650000000  0.5144560000000 1.0
C      1  0.5236650000000  0.3896850000000  0.5362150000000 1.0
C      1  0.4691520000000  0.4627090000000  0.5155790000000 1.0
C      1  0.5222810000000  0.5220680000000  0.4463430000000 1.0
C      1  0.5656010000000  0.5452370000000  0.5766550000000 1.0
C      1  0.5166150000000  0.5284990000000  0.4744450000000 1.0
C      1  0.4515200000000  0.5626210000000  0.5644230000000 1.0
C      1  0.5062290000000  0.5520930000000  0.5885300000000 1.0
C      1  0.5063060000000  0.5348790000000  0.5267560000000 1.0
C      1  0.5632160000000  0.4994870000000  0.4695780000000 1.0
C      1  0.4041390000000  0.4659720000000  0.4751630000000 1.0
C      1  0.5612330000000  0.4512960000000  0.5656690000000 1.0
C      1  0.4469270000000  0.4319590000000  0.5713150000000 1.0
C      1  0.6091710000000  0.5034860000000  0.5498660000000 1.0
C      1  0.4550360000000  0.4201820000000  0.5463200000000 1.0
C      1  0.4541890000000  0.5618930000000  0.4667130000000 1.0
C      1  0.4104090000000  0.4651300000000  0.4468530000000 1.0
C      1  0.5918030000000  0.4880360000000  0.5646800000000 1.0
C      1  0.5591710000000  0.5710570000000  0.4664720000000 1.0
C      1  0.5280050000000  0.4971740000000  0.4965660000000 1.0
C      1  0.5933230000000  0.5398260000000  0.5247550000000 1.0
C      1  0.4819340000000  0.3836430000000  0.5056010000000 1.0
C      1  0.3924900000000  0.4920980000000  0.4855930000000 1.0
C      1  0.4679230000000  0.4792980000000  0.6119570000000 1.0
C      1  0.5692310000000  0.5419050000000  0.5448790000000 1.0
C      1  0.4949870000000  0.4356390000000  0.4797800000000 1.0
C      1  0.4731020000000  0.5198120000000  0.4407400000000 1.0
C      1  0.4104460000000  0.5477250000000  0.4416470000000 1.0
C      1  0.4370790000000  0.5032490000000  0.4970580000000 1.0
C      1  0.4087300000000  0.5037300000000  0.5092890000000 1.0
C      1  0.4902140000000  0.4833050000000  0.5160660000000 1.0
C      1  0.4750830000000  0.5706800000000  0.4229640000000 1.0
C      1  0.4623760000000  0.3972280000000  0.4508220000000 1.0
C      1  0.5490460000000  0.5208570000000  0.5367280000000 1.0
C      1  0.4678050000000  0.4753340000000  0.4681470000000 1.0
C      1  0.5663060000000  0.5687430000000  0.4939800000000 1.0
C      1  0.4326090000000  0.4467060000000  0.4393130000000 1.0
C      1  0.4376010000000  0.4909460000000  0.4182210000000 1.0
C      1  0.5345600000000  0.4069870000000  0.4641270000000 1.0
C      1  0.5300170000000  0.5800170000000  0.4634160000000 1.0
C      1  0.4704030000000  0.5552320000000  0.3985340000000 1.0
C      1  0.5046840000000  0.4077060000000  0.4699960000000 1.0
C      1  0.5259990000000  0.4042100000000  0.5632940000000 1.0
C      1  0.5311750000000  0.5452450000000  0.5732470000000 1.0
C      1  0.5383120000000  0.4454640000000  0.4037210000000 1.0
C      1  0.4790720000000  0.4607950000000  0.4173690000000 1.0
C      1  0.4448130000000  0.5407710000000  0.4048230000000 1.0
C      1  0.5006240000000  0.5358650000000  0.4320580000000 1.0
C      1  0.5902340000000  0.4653180000000  0.4516870000000 1.0
C      1  0.5190400000000  0.5559430000000  0.4132850000000 1.0
C      1  0.3861610000000  0.5127260000000  0.4641010000000 1.0
C      1  0.5197000000000  0.4495040000000  0.4912430000000 1.0
C      1  0.6060960000000  0.5109310000000  0.4701900000000 1.0
C      1  0.4279980000000  0.4537500000000  0.4882770000000 1.0
C      1  0.4774920000000  0.4343000000000  0.5032840000000 1.0
C      1  0.4155330000000  0.4999940000000  0.5603780000000 1.0
END
