TITL C-950536-5891-759 7.49307834703953e-07 125000 -920.885166259669 0 0 148 (C1) n - 1
REM
REM in /home/bkarasulu/work/CARBON/AIRSS/Generating-Clusters/EDIP-Nigel-Params/with-SteepDescent/Only-C1/SD-CG/HFTN-CG
REM
REM
REM
REM
REM
REM ./C.cell (11c1c37f851c82e70ff6c80c92926a4b)
REM
REM compiler GCC version 9.2.1 20190827 (Red Hat 9.2.1-1)
REM options -cpp -mtune=generic -march=x86-64 -g -O0 -fpre-include=/usr/include/finclude/math-vector-fortran.h
REM seed -1759115507 -1087831112 1690231443 1528008326 1010719962 -286697783 -389969705 -499446430 -1620279183 1740983502 -2145279638 116128081 500349135 -91335113 -884348788 20172764 430134905 -532015146 665374338 -672219790 -1241003363 -283085199 454858301 1888094558 -1836016814 -1514371884 -1721910139 -657940331 2070776301 -804314648 2083847222 1705636831 -778470100
REM
CELL 1.54180   50.00000   50.00000   50.00000   90.00000   90.00000   90.00000
LATT -1
SFAC C  
C      1  0.5645100000000  0.5432610000000  0.5742200000000 1.0
C      1  0.4831350000000  0.5398670000000  0.5494600000000 1.0
C      1  0.5806140000000  0.4999230000000  0.5602590000000 1.0
C      1  0.5912330000000  0.5525790000000  0.4974850000000 1.0
C      1  0.5848740000000  0.4922360000000  0.4485210000000 1.0
C      1  0.5170970000000  0.5028500000000  0.5867850000000 1.0
C      1  0.5608700000000  0.4409790000000  0.5088020000000 1.0
C      1  0.4974250000000  0.3914000000000  0.4614430000000 1.0
C      1  0.5340380000000  0.4766740000000  0.4395320000000 1.0
C      1  0.4439830000000  0.4809780000000  0.4618130000000 1.0
C      1  0.4589310000000  0.5741590000000  0.4452440000000 1.0
C      1  0.4275880000000  0.5407220000000  0.4469880000000 1.0
C      1  0.6105320000000  0.5086470000000  0.5223820000000 1.0
C      1  0.4688510000000  0.5675960000000  0.5454220000000 1.0
C      1  0.5649730000000  0.5131540000000  0.5816920000000 1.0
C      1  0.3994420000000  0.4699620000000  0.5267520000000 1.0
C      1  0.5848080000000  0.4743820000000  0.4697670000000 1.0
C      1  0.5292310000000  0.5123950000000  0.4655080000000 1.0
C      1  0.4091440000000  0.5239360000000  0.4683800000000 1.0
C      1  0.4050510000000  0.4746110000000  0.5540970000000 1.0
C      1  0.5132210000000  0.5183930000000  0.4409820000000 1.0
C      1  0.5465220000000  0.4499500000000  0.4446480000000 1.0
C      1  0.5537480000000  0.5605870000000  0.4351320000000 1.0
C      1  0.5526420000000  0.5885640000000  0.4830130000000 1.0
C      1  0.4093460000000  0.5195180000000  0.5297980000000 1.0
C      1  0.4238500000000  0.4906370000000  0.4298880000000 1.0
C      1  0.5124700000000  0.4833540000000  0.3978680000000 1.0
C      1  0.4448400000000  0.4176070000000  0.5413950000000 1.0
C      1  0.5699190000000  0.4792730000000  0.5407120000000 1.0
C      1  0.5100380000000  0.5466730000000  0.4889970000000 1.0
C      1  0.4483130000000  0.5315400000000  0.4289660000000 1.0
C      1  0.4211210000000  0.4934270000000  0.5686130000000 1.0
C      1  0.5034450000000  0.5283080000000  0.5945720000000 1.0
C      1  0.4680350000000  0.4627330000000  0.4090460000000 1.0
C      1  0.5214420000000  0.4321350000000  0.4501760000000 1.0
C      1  0.5285120000000  0.6042320000000  0.4815090000000 1.0
C      1  0.4342040000000  0.5426750000000  0.5710330000000 1.0
C      1  0.4302390000000  0.4407390000000  0.5514140000000 1.0
C      1  0.5241620000000  0.4180990000000  0.5349190000000 1.0
C      1  0.4721850000000  0.5503440000000  0.4270180000000 1.0
C      1  0.5355770000000  0.5527010000000  0.5762810000000 1.0
C      1  0.5140760000000  0.5636870000000  0.5125090000000 1.0
C      1  0.4472170000000  0.4815470000000  0.5747210000000 1.0
C      1  0.5592300000000  0.4198970000000  0.4888650000000 1.0
C      1  0.4019540000000  0.4968520000000  0.4804360000000 1.0
C      1  0.5067260000000  0.4469540000000  0.4748040000000 1.0
C      1  0.5698540000000  0.4254800000000  0.5495330000000 1.0
C      1  0.4021070000000  0.4725850000000  0.4626120000000 1.0
C      1  0.4492470000000  0.5306330000000  0.4835510000000 1.0
C      1  0.4205740000000  0.4529040000000  0.4733320000000 1.0
C      1  0.4778820000000  0.5267220000000  0.5797930000000 1.0
C      1  0.5049010000000  0.4310780000000  0.4241380000000 1.0
C      1  0.5633790000000  0.4892730000000  0.5119370000000 1.0
C      1  0.4314330000000  0.4027240000000  0.5215970000000 1.0
C      1  0.4097150000000  0.5454490000000  0.5168520000000 1.0
C      1  0.5507300000000  0.5767000000000  0.5107740000000 1.0
C      1  0.5161020000000  0.4134750000000  0.5613610000000 1.0
C      1  0.5898710000000  0.5305250000000  0.4779580000000 1.0
C      1  0.4212140000000  0.5681690000000  0.5310840000000 1.0
C      1  0.4708990000000  0.4679230000000  0.4605640000000 1.0
C      1  0.5473990000000  0.4460080000000  0.5848570000000 1.0
C      1  0.5943790000000  0.5199250000000  0.5440340000000 1.0
C      1  0.5373630000000  0.4902800000000  0.4127070000000 1.0
C      1  0.4514840000000  0.4608070000000  0.5540810000000 1.0
C      1  0.5232590000000  0.4032810000000  0.4604110000000 1.0
C      1  0.4818380000000  0.4157790000000  0.4267740000000 1.0
C      1  0.4107320000000  0.4936260000000  0.5117120000000 1.0
C      1  0.4867930000000  0.6131760000000  0.4566460000000 1.0
C      1  0.4331680000000  0.5671960000000  0.4545840000000 1.0
C      1  0.5701560000000  0.4316340000000  0.5769310000000 1.0
C      1  0.4948190000000  0.5899170000000  0.5141720000000 1.0
C      1  0.4977520000000  0.4589010000000  0.4129730000000 1.0
C      1  0.5194310000000  0.5853530000000  0.5509320000000 1.0
C      1  0.4485220000000  0.4498250000000  0.4276960000000 1.0
C      1  0.4947660000000  0.5423920000000  0.4454850000000 1.0
C      1  0.4400100000000  0.4874780000000  0.5091940000000 1.0
C      1  0.5344740000000  0.5337020000000  0.5509430000000 1.0
C      1  0.4915410000000  0.5052390000000  0.4001150000000 1.0
C      1  0.4597170000000  0.4213860000000  0.4698710000000 1.0
C      1  0.5323810000000  0.5660970000000  0.4168950000000 1.0
C      1  0.5794830000000  0.5192940000000  0.4525250000000 1.0
C      1  0.4815930000000  0.4939850000000  0.5303300000000 1.0
C      1  0.5601970000000  0.5322110000000  0.4336910000000 1.0
C      1  0.4213990000000  0.4621070000000  0.4306680000000 1.0
C      1  0.4946650000000  0.5352120000000  0.4019980000000 1.0
C      1  0.4604760000000  0.4732180000000  0.5260730000000 1.0
C      1  0.4483470000000  0.5037590000000  0.4245110000000 1.0
C      1  0.5126820000000  0.4888870000000  0.5350340000000 1.0
C      1  0.4038550000000  0.4436720000000  0.5168190000000 1.0
C      1  0.4136580000000  0.5447980000000  0.4885360000000 1.0
C      1  0.4543060000000  0.5395820000000  0.5908960000000 1.0
C      1  0.4699330000000  0.5872730000000  0.4958370000000 1.0
C      1  0.4766660000000  0.4455140000000  0.4806450000000 1.0
C      1  0.4609110000000  0.5389500000000  0.5088400000000 1.0
C      1  0.4878380000000  0.4983580000000  0.4434370000000 1.0
C      1  0.5073420000000  0.6182180000000  0.4387020000000 1.0
C      1  0.5912320000000  0.4353550000000  0.5323610000000 1.0
C      1  0.5177030000000  0.6095670000000  0.5081600000000 1.0
C      1  0.4730960000000  0.4272610000000  0.5337560000000 1.0
C      1  0.4993620000000  0.4565430000000  0.5709160000000 1.0
C      1  0.5884160000000  0.4913070000000  0.4955760000000 1.0
C      1  0.4380930000000  0.5673110000000  0.5554380000000 1.0
C      1  0.4582980000000  0.4240200000000  0.4393720000000 1.0
C      1  0.5767360000000  0.5630110000000  0.5213960000000 1.0
C      1  0.5578630000000  0.5732200000000  0.4600340000000 1.0
C      1  0.4751690000000  0.4437430000000  0.5609430000000 1.0
C      1  0.5347470000000  0.5390170000000  0.4762470000000 1.0
C      1  0.5212180000000  0.4383960000000  0.5742170000000 1.0
C      1  0.4756080000000  0.5881500000000  0.4659170000000 1.0
C      1  0.4310500000000  0.4271410000000  0.4800290000000 1.0
C      1  0.4851710000000  0.5066320000000  0.4752470000000 1.0
C      1  0.5104740000000  0.5415830000000  0.5336620000000 1.0
C      1  0.5464250000000  0.4375730000000  0.5355510000000 1.0
C      1  0.4858540000000  0.5382760000000  0.4733110000000 1.0
C      1  0.5767560000000  0.5439410000000  0.5452670000000 1.0
C      1  0.4709490000000  0.5217060000000  0.5303200000000 1.0
C      1  0.5365320000000  0.5968900000000  0.5291380000000 1.0
C      1  0.5127920000000  0.4985690000000  0.4867920000000 1.0
C      1  0.5034680000000  0.4722430000000  0.4399520000000 1.0
C      1  0.5152600000000  0.4055640000000  0.5099980000000 1.0
C      1  0.4760060000000  0.3969840000000  0.4789540000000 1.0
C      1  0.5358530000000  0.5201200000000  0.4190190000000 1.0
C      1  0.6099780000000  0.4794820000000  0.5156220000000 1.0
C      1  0.4900970000000  0.5896330000000  0.5445520000000 1.0
C      1  0.5282150000000  0.5040300000000  0.5584850000000 1.0
C      1  0.5483940000000  0.5143190000000  0.5138950000000 1.0
C      1  0.5949900000000  0.4632570000000  0.5356390000000 1.0
C      1  0.5206800000000  0.4690920000000  0.4897520000000 1.0
C      1  0.5404720000000  0.4682340000000  0.5480010000000 1.0
C      1  0.5503190000000  0.4698420000000  0.5988540000000 1.0
C      1  0.5192550000000  0.5111290000000  0.5141640000000 1.0
C      1  0.4715780000000  0.4492120000000  0.5116540000000 1.0
C      1  0.5232290000000  0.5425510000000  0.4031240000000 1.0
C      1  0.4190620000000  0.4221970000000  0.5056980000000 1.0
C      1  0.5563260000000  0.5357150000000  0.4957620000000 1.0
C      1  0.5449100000000  0.4971710000000  0.5986390000000 1.0
C      1  0.4565470000000  0.5667230000000  0.5157700000000 1.0
C      1  0.4503510000000  0.4994300000000  0.4844670000000 1.0
C      1  0.4659810000000  0.4919180000000  0.4058220000000 1.0
C      1  0.5501350000000  0.4667990000000  0.4963000000000 1.0
C      1  0.5238210000000  0.6229700000000  0.4604200000000 1.0
C      1  0.5673590000000  0.4493820000000  0.4660150000000 1.0
C      1  0.5298770000000  0.5801040000000  0.5761050000000 1.0
C      1  0.4960710000000  0.4813770000000  0.5854400000000 1.0
C      1  0.5344820000000  0.4053350000000  0.4874860000000 1.0
C      1  0.4884040000000  0.3981640000000  0.5044460000000 1.0
C      1  0.4226710000000  0.5195230000000  0.5561110000000 1.0
C      1  0.4720640000000  0.4968730000000  0.5796990000000 1.0
END
