TITL C-950529-3362-144 -5.69924196583414e-06 125000 -1182.54285960943 0 0 190 (C1) n - 1
REM
REM in /home/bkarasulu/work/CARBON/AIRSS/Generating-Clusters/EDIP-Nigel-Params/with-SteepDescent/Only-C1/SD-CG/HFTN-CG
REM
REM
REM
REM
REM
REM ./C.cell (11c1c37f851c82e70ff6c80c92926a4b)
REM
REM compiler GCC version 9.2.1 20190827 (Red Hat 9.2.1-1)
REM options -cpp -mtune=generic -march=x86-64 -g -O0 -fpre-include=/usr/include/finclude/math-vector-fortran.h
REM seed 17981857 -1360865731 -1692206421 2044653860 -505323922 -2136515126 2006907815 350813836 609125831 -686295157 -2099487322 1360392451 -1532651449 -1311593865 1587470158 911520036 -252426507 -651973133 678515718 1862127575 1255444915 -623912631 813509665 1713538400 91980709 -1069913697 1040696089 183410215 1321846850 -1412413582 1296893369 1734721274 -1360759890
REM
CELL 1.54180   50.00000   50.00000   50.00000   90.00000   90.00000   90.00000
LATT -1
SFAC C  
C      1  0.5352760000000  0.4802040000000  0.3963180000000 1.0
C      1  0.4491740000000  0.4775800000000  0.5187260000000 1.0
C      1  0.5591910000000  0.3903500000000  0.5284230000000 1.0
C      1  0.4561690000000  0.5037150000000  0.5049650000000 1.0
C      1  0.5635420000000  0.5384350000000  0.5750960000000 1.0
C      1  0.4186960000000  0.4386850000000  0.5083740000000 1.0
C      1  0.5624960000000  0.5414980000000  0.4716980000000 1.0
C      1  0.5681920000000  0.5966500000000  0.4875450000000 1.0
C      1  0.4301700000000  0.5243110000000  0.4676340000000 1.0
C      1  0.5629050000000  0.5919370000000  0.5579740000000 1.0
C      1  0.3902160000000  0.5450930000000  0.5034790000000 1.0
C      1  0.5304730000000  0.6190900000000  0.5131530000000 1.0
C      1  0.5865220000000  0.4050410000000  0.4916840000000 1.0
C      1  0.5618950000000  0.5527860000000  0.4029460000000 1.0
C      1  0.4569270000000  0.6028130000000  0.4970550000000 1.0
C      1  0.5824360000000  0.5747920000000  0.5469780000000 1.0
C      1  0.5335580000000  0.4558440000000  0.5947640000000 1.0
C      1  0.5237420000000  0.4052720000000  0.4537080000000 1.0
C      1  0.4453210000000  0.4181060000000  0.5585560000000 1.0
C      1  0.5370130000000  0.5827640000000  0.5485820000000 1.0
C      1  0.5001440000000  0.4990290000000  0.5593760000000 1.0
C      1  0.5526660000000  0.4658850000000  0.4152720000000 1.0
C      1  0.4979190000000  0.4157550000000  0.5658810000000 1.0
C      1  0.3924920000000  0.4980600000000  0.5261150000000 1.0
C      1  0.5506020000000  0.4597120000000  0.5179840000000 1.0
C      1  0.5433210000000  0.4634910000000  0.4733630000000 1.0
C      1  0.5846160000000  0.5506620000000  0.4528280000000 1.0
C      1  0.4625660000000  0.5410950000000  0.4609260000000 1.0
C      1  0.4282980000000  0.4654690000000  0.4993310000000 1.0
C      1  0.5167150000000  0.5038380000000  0.5103790000000 1.0
C      1  0.5400960000000  0.5087730000000  0.3920590000000 1.0
C      1  0.6112460000000  0.5289000000000  0.4793550000000 1.0
C      1  0.4820540000000  0.4288270000000  0.3991260000000 1.0
C      1  0.5193180000000  0.5462180000000  0.4793620000000 1.0
C      1  0.4362940000000  0.4368360000000  0.4269940000000 1.0
C      1  0.4240270000000  0.4781840000000  0.5702250000000 1.0
C      1  0.5799360000000  0.5108180000000  0.4249900000000 1.0
C      1  0.4668310000000  0.4693860000000  0.4684300000000 1.0
C      1  0.4712740000000  0.5127580000000  0.4567530000000 1.0
C      1  0.5423010000000  0.5628140000000  0.5243440000000 1.0
C      1  0.5145850000000  0.4260110000000  0.5056740000000 1.0
C      1  0.5107480000000  0.4633410000000  0.6092100000000 1.0
C      1  0.5948890000000  0.4551510000000  0.5457380000000 1.0
C      1  0.5018410000000  0.5769980000000  0.4380430000000 1.0
C      1  0.3921630000000  0.5674390000000  0.5205120000000 1.0
C      1  0.4417130000000  0.4579070000000  0.5846480000000 1.0
C      1  0.3869140000000  0.4699600000000  0.4845830000000 1.0
C      1  0.4876900000000  0.3824080000000  0.4831580000000 1.0
C      1  0.5152120000000  0.5380100000000  0.4147160000000 1.0
C      1  0.3971080000000  0.4868040000000  0.4390140000000 1.0
C      1  0.5132150000000  0.5219550000000  0.3897710000000 1.0
C      1  0.4165060000000  0.5815460000000  0.5220820000000 1.0
C      1  0.5069820000000  0.5158140000000  0.4831770000000 1.0
C      1  0.4625270000000  0.4102670000000  0.5130830000000 1.0
C      1  0.4751910000000  0.4985590000000  0.5996800000000 1.0
C      1  0.4947880000000  0.5760930000000  0.5841690000000 1.0
C      1  0.5189650000000  0.6047520000000  0.5368860000000 1.0
C      1  0.4741790000000  0.5865250000000  0.5692110000000 1.0
C      1  0.5655020000000  0.4866750000000  0.4672580000000 1.0
C      1  0.5498720000000  0.5987830000000  0.4659490000000 1.0
C      1  0.4403060000000  0.5100330000000  0.4201210000000 1.0
C      1  0.5512330000000  0.4161950000000  0.5402180000000 1.0
C      1  0.4835790000000  0.4699080000000  0.6066070000000 1.0
C      1  0.4567470000000  0.5052240000000  0.5656570000000 1.0
C      1  0.5566100000000  0.6089940000000  0.5096410000000 1.0
C      1  0.4920180000000  0.5012670000000  0.3898440000000 1.0
C      1  0.4586770000000  0.5880260000000  0.5463080000000 1.0
C      1  0.4724820000000  0.4580860000000  0.5816430000000 1.0
C      1  0.5180530000000  0.5445340000000  0.6049300000000 1.0
C      1  0.5574190000000  0.4956950000000  0.4379080000000 1.0
C      1  0.5797100000000  0.5697430000000  0.4924150000000 1.0
C      1  0.3870530000000  0.4735320000000  0.5125330000000 1.0
C      1  0.5466030000000  0.5099610000000  0.5116020000000 1.0
C      1  0.5862670000000  0.3953950000000  0.5187100000000 1.0
C      1  0.4354340000000  0.4625280000000  0.4119700000000 1.0
C      1  0.5055040000000  0.4750990000000  0.3891530000000 1.0
C      1  0.5968720000000  0.5264380000000  0.4437690000000 1.0
C      1  0.4761150000000  0.5541170000000  0.4841220000000 1.0
C      1  0.4370020000000  0.4130660000000  0.4711450000000 1.0
C      1  0.5654530000000  0.5129100000000  0.4869390000000 1.0
C      1  0.5011170000000  0.5167680000000  0.5348490000000 1.0
C      1  0.5188800000000  0.3868210000000  0.4789900000000 1.0
C      1  0.4771990000000  0.4645820000000  0.4399120000000 1.0
C      1  0.5991820000000  0.5287620000000  0.5474740000000 1.0
C      1  0.4250590000000  0.5790680000000  0.4458720000000 1.0
C      1  0.5920590000000  0.5021130000000  0.5545750000000 1.0
C      1  0.5275710000000  0.3971830000000  0.5078590000000 1.0
C      1  0.4912220000000  0.4261090000000  0.4840490000000 1.0
C      1  0.4319500000000  0.5759250000000  0.5464780000000 1.0
C      1  0.5289830000000  0.4557700000000  0.5002600000000 1.0
C      1  0.5607300000000  0.4270100000000  0.5669100000000 1.0
C      1  0.5933580000000  0.4333830000000  0.5234690000000 1.0
C      1  0.4817880000000  0.3872950000000  0.5110470000000 1.0
C      1  0.4386950000000  0.5408930000000  0.4181300000000 1.0
C      1  0.5878890000000  0.5503270000000  0.5643010000000 1.0
C      1  0.5593500000000  0.4369530000000  0.4674170000000 1.0
C      1  0.4652720000000  0.4010510000000  0.4685670000000 1.0
C      1  0.5297110000000  0.5793450000000  0.4283420000000 1.0
C      1  0.3894280000000  0.5127980000000  0.4472850000000 1.0
C      1  0.4302740000000  0.5885580000000  0.4970810000000 1.0
C      1  0.5134040000000  0.5452740000000  0.5439770000000 1.0
C      1  0.4611960000000  0.5451000000000  0.6110400000000 1.0
C      1  0.4685510000000  0.4305060000000  0.5337410000000 1.0
C      1  0.5082060000000  0.4592800000000  0.5419910000000 1.0
C      1  0.4380800000000  0.5586880000000  0.6017220000000 1.0
C      1  0.4549320000000  0.5807550000000  0.4422410000000 1.0
C      1  0.4977440000000  0.5914110000000  0.5197860000000 1.0
C      1  0.5201810000000  0.4091280000000  0.5809320000000 1.0
C      1  0.4805640000000  0.4306430000000  0.5813970000000 1.0
C      1  0.4977680000000  0.5620160000000  0.5245280000000 1.0
C      1  0.5930810000000  0.5161870000000  0.4995460000000 1.0
C      1  0.5036130000000  0.4510900000000  0.4408170000000 1.0
C      1  0.4561870000000  0.5298070000000  0.5498630000000 1.0
C      1  0.4355980000000  0.5110630000000  0.5896490000000 1.0
C      1  0.5213240000000  0.4713800000000  0.4551450000000 1.0
C      1  0.4626510000000  0.4214730000000  0.4204930000000 1.0
C      1  0.4024570000000  0.4682500000000  0.5475470000000 1.0
C      1  0.4264880000000  0.4382270000000  0.4556060000000 1.0
C      1  0.4665260000000  0.5003940000000  0.4064720000000 1.0
C      1  0.4782750000000  0.4518660000000  0.4888080000000 1.0
C      1  0.4960250000000  0.5124330000000  0.5847100000000 1.0
C      1  0.4818650000000  0.6079310000000  0.4771290000000 1.0
C      1  0.4622830000000  0.5538570000000  0.4331110000000 1.0
C      1  0.4990680000000  0.5729330000000  0.4814490000000 1.0
C      1  0.5624300000000  0.5246700000000  0.4046890000000 1.0
C      1  0.5725610000000  0.4544260000000  0.5665600000000 1.0
C      1  0.4291680000000  0.5139620000000  0.4949700000000 1.0
C      1  0.4089430000000  0.4402960000000  0.5360070000000 1.0
C      1  0.5309180000000  0.6195190000000  0.4645310000000 1.0
C      1  0.4748940000000  0.4969420000000  0.4806830000000 1.0
C      1  0.4802370000000  0.5954940000000  0.4489610000000 1.0
C      1  0.4722740000000  0.4583120000000  0.5171660000000 1.0
C      1  0.5568150000000  0.5018170000000  0.5391920000000 1.0
C      1  0.4349010000000  0.4304250000000  0.5830440000000 1.0
C      1  0.5431510000000  0.4381860000000  0.4194440000000 1.0
C      1  0.5203420000000  0.5634770000000  0.5715410000000 1.0
C      1  0.5396180000000  0.4281740000000  0.5868570000000 1.0
C      1  0.4059170000000  0.5204200000000  0.5121050000000 1.0
C      1  0.5145880000000  0.4407860000000  0.4151370000000 1.0
C      1  0.5349730000000  0.5593370000000  0.4083090000000 1.0
C      1  0.4437140000000  0.4839090000000  0.5485130000000 1.0
C      1  0.4361140000000  0.4659330000000  0.4698020000000 1.0
C      1  0.4548700000000  0.5159230000000  0.6142730000000 1.0
C      1  0.5516920000000  0.5794840000000  0.4458330000000 1.0
C      1  0.3961880000000  0.5551570000000  0.4759680000000 1.0
C      1  0.6096640000000  0.4702950000000  0.4897930000000 1.0
C      1  0.4438410000000  0.5031980000000  0.4494210000000 1.0
C      1  0.5375390000000  0.5453880000000  0.4556860000000 1.0
C      1  0.5064060000000  0.3866760000000  0.5252640000000 1.0
C      1  0.4154950000000  0.5532480000000  0.4322120000000 1.0
C      1  0.4140750000000  0.5795060000000  0.4737020000000 1.0
C      1  0.4807690000000  0.4568110000000  0.3918040000000 1.0
C      1  0.4857710000000  0.4730990000000  0.5568650000000 1.0
C      1  0.5317330000000  0.5182640000000  0.4393920000000 1.0
C      1  0.6051850000000  0.4392670000000  0.4930440000000 1.0
C      1  0.5458910000000  0.5202020000000  0.5602080000000 1.0
C      1  0.4773040000000  0.4076690000000  0.4419960000000 1.0
C      1  0.5138550000000  0.6138640000000  0.4867290000000 1.0
C      1  0.5137000000000  0.5008010000000  0.4563270000000 1.0
C      1  0.4906050000000  0.5550750000000  0.4224660000000 1.0
C      1  0.4353830000000  0.4142680000000  0.4999540000000 1.0
C      1  0.5615790000000  0.4200990000000  0.4916760000000 1.0
C      1  0.5205560000000  0.5158920000000  0.6014440000000 1.0
C      1  0.6023240000000  0.4820560000000  0.5375190000000 1.0
C      1  0.5631340000000  0.4336620000000  0.5189950000000 1.0
C      1  0.4179830000000  0.4871470000000  0.4174430000000 1.0
C      1  0.4170110000000  0.4174740000000  0.5513670000000 1.0
C      1  0.3987070000000  0.4642890000000  0.4589070000000 1.0
C      1  0.4711980000000  0.5235190000000  0.5250120000000 1.0
C      1  0.4894460000000  0.5530070000000  0.6012650000000 1.0
C      1  0.4996060000000  0.4290190000000  0.5384510000000 1.0
C      1  0.4762540000000  0.5484690000000  0.5117050000000 1.0
C      1  0.5875120000000  0.5343690000000  0.5223820000000 1.0
C      1  0.5531620000000  0.4744410000000  0.5838630000000 1.0
C      1  0.5005050000000  0.4235910000000  0.4543810000000 1.0
C      1  0.5457660000000  0.5059830000000  0.5873090000000 1.0
C      1  0.4644520000000  0.4710640000000  0.4123600000000 1.0
C      1  0.5739130000000  0.5605940000000  0.5213490000000 1.0
C      1  0.4699720000000  0.6025650000000  0.5233240000000 1.0
C      1  0.5926160000000  0.4718320000000  0.4655590000000 1.0
C      1  0.4054760000000  0.5357230000000  0.4549650000000 1.0
C      1  0.6013660000000  0.4892010000000  0.5094410000000 1.0
C      1  0.5304710000000  0.5777740000000  0.4994810000000 1.0
C      1  0.4260450000000  0.5398870000000  0.5841610000000 1.0
C      1  0.6034690000000  0.5578010000000  0.4748290000000 1.0
C      1  0.5480140000000  0.4213450000000  0.4447150000000 1.0
C      1  0.5437150000000  0.4750040000000  0.5410350000000 1.0
C      1  0.5877670000000  0.4427330000000  0.4633150000000 1.0
C      1  0.5083480000000  0.4733900000000  0.5126000000000 1.0
C      1  0.4319640000000  0.5461550000000  0.5555770000000 1.0
END
