TITL C-951338-5626-513 -2.34564527026876e-06 125000 -1059.30183026273 0 0 170 (C1) n - 1
REM
REM in /home/bkarasulu/work/CARBON/AIRSS/Generating-Clusters/EDIP-Nigel-Params/with-SteepDescent/Only-C1/SD-CG/HFTN-CG
REM
REM
REM
REM
REM
REM ./C.cell (11c1c37f851c82e70ff6c80c92926a4b)
REM
REM compiler GCC version 9.2.1 20190827 (Red Hat 9.2.1-1)
REM options -cpp -mtune=generic -march=x86-64 -g -O0 -fpre-include=/usr/include/finclude/math-vector-fortran.h
REM seed -1048928986 1648375859 -1734403001 -1134039474 1668881423 1611960664 1996460253 -851063442 309931524 -412754475 -1500182415 -1809975860 1523843373 -335626770 487747561 515655319 -389231679 -1165619653 1438951231 -1981306253 -89479796 -1131867288 -1155285902 -2073724040 -1785605311 -878248853 393805651 805199894 2064465098 -488855141 1356098352 381019540 1209891655
REM
CELL 1.54180   50.00000   50.00000   50.00000   90.00000   90.00000   90.00000
LATT -1
SFAC C  
C      1  0.4335090000000  0.4860480000000  0.5254460000000 1.0
C      1  0.5277600000000  0.4372680000000  0.5722010000000 1.0
C      1  0.4184390000000  0.5275380000000  0.5768020000000 1.0
C      1  0.5546320000000  0.5466300000000  0.5742820000000 1.0
C      1  0.5369480000000  0.4954110000000  0.5618250000000 1.0
C      1  0.4374760000000  0.5057590000000  0.4560740000000 1.0
C      1  0.4789480000000  0.4988650000000  0.3744380000000 1.0
C      1  0.4705530000000  0.4018370000000  0.5312160000000 1.0
C      1  0.4575680000000  0.4546540000000  0.5864170000000 1.0
C      1  0.5253900000000  0.5488940000000  0.5267190000000 1.0
C      1  0.5048340000000  0.3846840000000  0.4896290000000 1.0
C      1  0.4185800000000  0.5485470000000  0.5286640000000 1.0
C      1  0.4621440000000  0.5217980000000  0.5610050000000 1.0
C      1  0.5851700000000  0.5595580000000  0.4857400000000 1.0
C      1  0.4859430000000  0.5105800000000  0.4656430000000 1.0
C      1  0.5049740000000  0.5065300000000  0.5270310000000 1.0
C      1  0.5963710000000  0.5066490000000  0.4899930000000 1.0
C      1  0.4537220000000  0.5907310000000  0.4656180000000 1.0
C      1  0.4316050000000  0.4584610000000  0.4496240000000 1.0
C      1  0.5604250000000  0.5664810000000  0.5534750000000 1.0
C      1  0.5314350000000  0.5491110000000  0.5918770000000 1.0
C      1  0.4876340000000  0.5524450000000  0.4555230000000 1.0
C      1  0.4636060000000  0.5770040000000  0.5491100000000 1.0
C      1  0.5012040000000  0.4421830000000  0.3992980000000 1.0
C      1  0.5381990000000  0.4498870000000  0.4879200000000 1.0
C      1  0.5903190000000  0.4624350000000  0.5531420000000 1.0
C      1  0.4936800000000  0.4648290000000  0.5370530000000 1.0
C      1  0.4107680000000  0.5343590000000  0.5512370000000 1.0
C      1  0.5649870000000  0.4252050000000  0.5364780000000 1.0
C      1  0.5068990000000  0.4170120000000  0.5602140000000 1.0
C      1  0.4460110000000  0.5383700000000  0.5811130000000 1.0
C      1  0.5206960000000  0.5503780000000  0.4949270000000 1.0
C      1  0.6086940000000  0.5137640000000  0.5366500000000 1.0
C      1  0.4042530000000  0.4803090000000  0.5244310000000 1.0
C      1  0.4982080000000  0.4259610000000  0.5061090000000 1.0
C      1  0.5719090000000  0.4867320000000  0.4214450000000 1.0
C      1  0.4063770000000  0.4604190000000  0.5478910000000 1.0
C      1  0.4877700000000  0.5273000000000  0.5184930000000 1.0
C      1  0.4779740000000  0.4794980000000  0.4699370000000 1.0
C      1  0.5760410000000  0.4993770000000  0.5814190000000 1.0
C      1  0.4178880000000  0.5002880000000  0.5843600000000 1.0
C      1  0.5484730000000  0.5169590000000  0.4681440000000 1.0
C      1  0.5596020000000  0.5873730000000  0.4946790000000 1.0
C      1  0.5693220000000  0.5187140000000  0.5005790000000 1.0
C      1  0.5924480000000  0.5320830000000  0.5500300000000 1.0
C      1  0.5956810000000  0.4827850000000  0.5714490000000 1.0
C      1  0.4213400000000  0.4997500000000  0.4213250000000 1.0
C      1  0.5202910000000  0.5209150000000  0.4831000000000 1.0
C      1  0.5249470000000  0.4360060000000  0.5125120000000 1.0
C      1  0.4000160000000  0.4774520000000  0.4743360000000 1.0
C      1  0.5619920000000  0.4479630000000  0.5564130000000 1.0
C      1  0.5335440000000  0.5136270000000  0.5352590000000 1.0
C      1  0.5975970000000  0.5361480000000  0.4718100000000 1.0
C      1  0.4993220000000  0.4416930000000  0.4382320000000 1.0
C      1  0.5272020000000  0.5913420000000  0.4534040000000 1.0
C      1  0.4612320000000  0.5679870000000  0.4235120000000 1.0
C      1  0.5017310000000  0.5116930000000  0.3856980000000 1.0
C      1  0.4266910000000  0.4251930000000  0.5230630000000 1.0
C      1  0.4972460000000  0.4821670000000  0.5132910000000 1.0
C      1  0.4940460000000  0.5929720000000  0.4908510000000 1.0
C      1  0.5695710000000  0.4577730000000  0.4290830000000 1.0
C      1  0.6086240000000  0.4949140000000  0.5162660000000 1.0
C      1  0.4820830000000  0.5652060000000  0.5939900000000 1.0
C      1  0.4943850000000  0.3924850000000  0.4436310000000 1.0
C      1  0.4917310000000  0.5374160000000  0.3994600000000 1.0
C      1  0.4575400000000  0.5674030000000  0.5763650000000 1.0
C      1  0.5320830000000  0.3917200000000  0.4787610000000 1.0
C      1  0.5443360000000  0.5711190000000  0.4424330000000 1.0
C      1  0.4211880000000  0.4399300000000  0.4985020000000 1.0
C      1  0.5254140000000  0.4543180000000  0.4506370000000 1.0
C      1  0.4704130000000  0.4855870000000  0.4986830000000 1.0
C      1  0.5410700000000  0.4125470000000  0.5233070000000 1.0
C      1  0.5402210000000  0.4135290000000  0.4495620000000 1.0
C      1  0.4194520000000  0.5517570000000  0.4553120000000 1.0
C      1  0.4599990000000  0.5023710000000  0.6085680000000 1.0
C      1  0.5055050000000  0.5009980000000  0.5702380000000 1.0
C      1  0.4745000000000  0.4481940000000  0.4037540000000 1.0
C      1  0.4856960000000  0.4544060000000  0.5944420000000 1.0
C      1  0.4925010000000  0.5632620000000  0.4857750000000 1.0
C      1  0.4436490000000  0.4864640000000  0.5883490000000 1.0
C      1  0.4974100000000  0.3983960000000  0.5175160000000 1.0
C      1  0.4530000000000  0.4373310000000  0.5632760000000 1.0
C      1  0.4587790000000  0.5268060000000  0.4646030000000 1.0
C      1  0.5142830000000  0.4570130000000  0.5902980000000 1.0
C      1  0.4859820000000  0.4775010000000  0.5631900000000 1.0
C      1  0.4877960000000  0.4975650000000  0.6046100000000 1.0
C      1  0.5190440000000  0.3989020000000  0.5396000000000 1.0
C      1  0.5268130000000  0.4563080000000  0.4010000000000 1.0
C      1  0.5196830000000  0.4521730000000  0.5376700000000 1.0
C      1  0.4897490000000  0.5868640000000  0.5439570000000 1.0
C      1  0.5423790000000  0.4690720000000  0.5461600000000 1.0
C      1  0.4438080000000  0.4719770000000  0.5010420000000 1.0
C      1  0.4580280000000  0.4909880000000  0.5616030000000 1.0
C      1  0.4775370000000  0.4472100000000  0.4614420000000 1.0
C      1  0.5575820000000  0.4882890000000  0.4714140000000 1.0
C      1  0.5002600000000  0.5962980000000  0.4437180000000 1.0
C      1  0.5439630000000  0.4792140000000  0.4951870000000 1.0
C      1  0.4039210000000  0.5106720000000  0.5031520000000 1.0
C      1  0.5285760000000  0.4803680000000  0.6016980000000 1.0
C      1  0.5164130000000  0.4828710000000  0.4497160000000 1.0
C      1  0.4367700000000  0.5108070000000  0.3986320000000 1.0
C      1  0.4506440000000  0.5349100000000  0.4923490000000 1.0
C      1  0.5749870000000  0.5261890000000  0.5719980000000 1.0
C      1  0.5117400000000  0.4139930000000  0.4376350000000 1.0
C      1  0.5019400000000  0.5243520000000  0.4404260000000 1.0
C      1  0.4793830000000  0.5022280000000  0.4229080000000 1.0
C      1  0.5834460000000  0.4283210000000  0.5133580000000 1.0
C      1  0.5012030000000  0.4833190000000  0.4240790000000 1.0
C      1  0.5337900000000  0.5509190000000  0.4246730000000 1.0
C      1  0.4915610000000  0.5286370000000  0.5625960000000 1.0
C      1  0.5814280000000  0.5550270000000  0.5355260000000 1.0
C      1  0.5857930000000  0.5266530000000  0.4463800000000 1.0
C      1  0.4623670000000  0.4955030000000  0.3984270000000 1.0
C      1  0.4463770000000  0.5662000000000  0.4492620000000 1.0
C      1  0.4378890000000  0.4232070000000  0.4799340000000 1.0
C      1  0.5142700000000  0.5027870000000  0.6129630000000 1.0
C      1  0.5324010000000  0.5098210000000  0.4418540000000 1.0
C      1  0.5211590000000  0.4896240000000  0.4014210000000 1.0
C      1  0.5553310000000  0.4865830000000  0.5952700000000 1.0
C      1  0.4195380000000  0.5363030000000  0.5017610000000 1.0
C      1  0.4772950000000  0.5474830000000  0.6157640000000 1.0
C      1  0.3949910000000  0.5066810000000  0.4755430000000 1.0
C      1  0.5090860000000  0.5646960000000  0.5809630000000 1.0
C      1  0.4080290000000  0.5564580000000  0.4825480000000 1.0
C      1  0.5085340000000  0.5575430000000  0.4124850000000 1.0
C      1  0.4866770000000  0.3975530000000  0.4702180000000 1.0
C      1  0.4435470000000  0.5901570000000  0.5328540000000 1.0
C      1  0.4493460000000  0.4363040000000  0.4563710000000 1.0
C      1  0.5895100000000  0.4983230000000  0.4419990000000 1.0
C      1  0.5141740000000  0.5826450000000  0.5580820000000 1.0
C      1  0.5407790000000  0.5953110000000  0.5152990000000 1.0
C      1  0.4552930000000  0.5312400000000  0.6083330000000 1.0
C      1  0.3991300000000  0.4622560000000  0.5000840000000 1.0
C      1  0.4277490000000  0.4406680000000  0.5475510000000 1.0
C      1  0.5711040000000  0.5475490000000  0.5082530000000 1.0
C      1  0.5165450000000  0.4887840000000  0.4885210000000 1.0
C      1  0.4169390000000  0.5816470000000  0.4959100000000 1.0
C      1  0.4898410000000  0.5713760000000  0.4317470000000 1.0
C      1  0.4443360000000  0.5132870000000  0.5321880000000 1.0
C      1  0.4907780000000  0.4255090000000  0.4785480000000 1.0
C      1  0.5539300000000  0.5343370000000  0.4116030000000 1.0
C      1  0.5592200000000  0.4335980000000  0.4706630000000 1.0
C      1  0.4484560000000  0.4084980000000  0.5141570000000 1.0
C      1  0.4115430000000  0.5209600000000  0.4522380000000 1.0
C      1  0.5363960000000  0.5751920000000  0.5384810000000 1.0
C      1  0.5435750000000  0.5674480000000  0.4791220000000 1.0
C      1  0.4629280000000  0.5460810000000  0.4041370000000 1.0
C      1  0.5796430000000  0.4528070000000  0.4566220000000 1.0
C      1  0.4482240000000  0.5851100000000  0.4953030000000 1.0
C      1  0.4954100000000  0.5488240000000  0.5385090000000 1.0
C      1  0.5790140000000  0.5408890000000  0.4230890000000 1.0
C      1  0.4759860000000  0.4196320000000  0.5542350000000 1.0
C      1  0.4388580000000  0.5376880000000  0.3927000000000 1.0
C      1  0.5428030000000  0.4450980000000  0.4260550000000 1.0
C      1  0.5471330000000  0.5046610000000  0.4151270000000 1.0
C      1  0.6046310000000  0.4461510000000  0.5094640000000 1.0
C      1  0.4632320000000  0.5153690000000  0.5095020000000 1.0
C      1  0.5256960000000  0.5283670000000  0.6098790000000 1.0
C      1  0.4539310000000  0.4671390000000  0.4028870000000 1.0
C      1  0.4319690000000  0.4710840000000  0.4228300000000 1.0
C      1  0.4181350000000  0.5776170000000  0.5259090000000 1.0
C      1  0.5859580000000  0.4824460000000  0.4669860000000 1.0
C      1  0.5176140000000  0.6036810000000  0.5019040000000 1.0
C      1  0.4297140000000  0.4788020000000  0.4714090000000 1.0
C      1  0.4651160000000  0.5599780000000  0.4989390000000 1.0
C      1  0.5531310000000  0.5001810000000  0.5169230000000 1.0
C      1  0.4817860000000  0.6039090000000  0.4660250000000 1.0
C      1  0.5513490000000  0.3969600000000  0.4995130000000 1.0
C      1  0.5729490000000  0.4144790000000  0.4898500000000 1.0
C      1  0.5987380000000  0.4683350000000  0.5250960000000 1.0
END
