TITL C-951334-9093-347 -4.46197164514109e-06 125000 -1116.68683433973 0 0 178 (C1) n - 1
REM
REM in /home/bkarasulu/work/CARBON/AIRSS/Generating-Clusters/EDIP-Nigel-Params/with-SteepDescent/Only-C1/SD-CG/HFTN-CG
REM
REM
REM
REM
REM
REM ./C.cell (11c1c37f851c82e70ff6c80c92926a4b)
REM
REM compiler GCC version 9.2.1 20190827 (Red Hat 9.2.1-1)
REM options -cpp -mtune=generic -march=x86-64 -g -O0 -fpre-include=/usr/include/finclude/math-vector-fortran.h
REM seed 1494256563 2054549171 1303354285 -1188063729 149554451 485909472 -2063643116 -1266325900 2131998774 473254608 -1118401264 -786413163 1636567025 1199873683 -2000467146 506731410 -579910761 773491131 -377231422 1712184984 1172557500 -993672342 -920890892 1199849343 1678516821 1661911907 134224769 647718291 -955847574 -1250177710 -1522297735 -2023701825 -350098085
REM
CELL 1.54180   50.00000   50.00000   50.00000   90.00000   90.00000   90.00000
LATT -1
SFAC C  
C      1  0.4021240000000  0.5576170000000  0.4867350000000 1.0
C      1  0.4681290000000  0.4598550000000  0.4010220000000 1.0
C      1  0.5023240000000  0.5400280000000  0.4560520000000 1.0
C      1  0.4676580000000  0.5039140000000  0.4432630000000 1.0
C      1  0.4576840000000  0.4631440000000  0.4752370000000 1.0
C      1  0.5802990000000  0.4913980000000  0.4720260000000 1.0
C      1  0.5420290000000  0.4848740000000  0.3973000000000 1.0
C      1  0.5539590000000  0.5842120000000  0.4692510000000 1.0
C      1  0.4477270000000  0.3877680000000  0.4711340000000 1.0
C      1  0.4375560000000  0.5904540000000  0.4906350000000 1.0
C      1  0.4526470000000  0.5441030000000  0.5247980000000 1.0
C      1  0.5621860000000  0.5042860000000  0.4919670000000 1.0
C      1  0.5277340000000  0.4138070000000  0.4835320000000 1.0
C      1  0.4911230000000  0.4731860000000  0.5336670000000 1.0
C      1  0.5841150000000  0.4677070000000  0.4318940000000 1.0
C      1  0.5365820000000  0.5217570000000  0.4497260000000 1.0
C      1  0.5654930000000  0.5832340000000  0.4981280000000 1.0
C      1  0.6245880000000  0.5019420000000  0.5386270000000 1.0
C      1  0.4607810000000  0.5597970000000  0.4220580000000 1.0
C      1  0.5596660000000  0.5593350000000  0.4534490000000 1.0
C      1  0.5786280000000  0.4830540000000  0.5935930000000 1.0
C      1  0.5646730000000  0.5579630000000  0.5274260000000 1.0
C      1  0.4286430000000  0.5811530000000  0.5221760000000 1.0
C      1  0.4362100000000  0.4049230000000  0.4900250000000 1.0
C      1  0.4396620000000  0.4256390000000  0.5339050000000 1.0
C      1  0.5382260000000  0.4879460000000  0.4865970000000 1.0
C      1  0.5932760000000  0.4918030000000  0.4189890000000 1.0
C      1  0.4104840000000  0.4942080000000  0.5712740000000 1.0
C      1  0.5363960000000  0.4292830000000  0.4412740000000 1.0
C      1  0.4057190000000  0.5628670000000  0.5334120000000 1.0
C      1  0.5118350000000  0.6037200000000  0.5083730000000 1.0
C      1  0.5239710000000  0.5301170000000  0.5807390000000 1.0
C      1  0.4630450000000  0.5623740000000  0.4807550000000 1.0
C      1  0.5413760000000  0.5070020000000  0.5341240000000 1.0
C      1  0.4182100000000  0.5235440000000  0.5724220000000 1.0
C      1  0.5402130000000  0.5488800000000  0.4349260000000 1.0
C      1  0.3837290000000  0.4962460000000  0.4843560000000 1.0
C      1  0.5132170000000  0.5578670000000  0.4787860000000 1.0
C      1  0.4484920000000  0.4638960000000  0.4232630000000 1.0
C      1  0.5278430000000  0.4617070000000  0.4972400000000 1.0
C      1  0.4230590000000  0.4410690000000  0.4585890000000 1.0
C      1  0.5246240000000  0.5841210000000  0.4669930000000 1.0
C      1  0.4400270000000  0.5410490000000  0.4258520000000 1.0
C      1  0.4768890000000  0.4135360000000  0.5958550000000 1.0
C      1  0.5822430000000  0.4809220000000  0.5375730000000 1.0
C      1  0.5842080000000  0.4281970000000  0.4601820000000 1.0
C      1  0.4505720000000  0.5120280000000  0.4190820000000 1.0
C      1  0.4474890000000  0.5970150000000  0.4416630000000 1.0
C      1  0.5648490000000  0.5398390000000  0.4764800000000 1.0
C      1  0.4765280000000  0.4727570000000  0.5598620000000 1.0
C      1  0.5363390000000  0.4303950000000  0.4135260000000 1.0
C      1  0.4767480000000  0.5908380000000  0.5398430000000 1.0
C      1  0.5949060000000  0.5253480000000  0.4376680000000 1.0
C      1  0.4429460000000  0.4368130000000  0.4365030000000 1.0
C      1  0.4669820000000  0.4728330000000  0.4470690000000 1.0
C      1  0.5937980000000  0.4664790000000  0.4805180000000 1.0
C      1  0.4740160000000  0.5091030000000  0.3968090000000 1.0
C      1  0.5453320000000  0.5494410000000  0.5866220000000 1.0
C      1  0.6020300000000  0.5430780000000  0.5071820000000 1.0
C      1  0.3852830000000  0.4980180000000  0.5146050000000 1.0
C      1  0.5239750000000  0.5264190000000  0.3972620000000 1.0
C      1  0.5851980000000  0.5596580000000  0.4893450000000 1.0
C      1  0.4653280000000  0.5042160000000  0.5787350000000 1.0
C      1  0.4741370000000  0.6052300000000  0.4430220000000 1.0
C      1  0.5491510000000  0.5124450000000  0.3977830000000 1.0
C      1  0.4877960000000  0.4157460000000  0.4582160000000 1.0
C      1  0.4955030000000  0.5129090000000  0.4361110000000 1.0
C      1  0.4607540000000  0.5206560000000  0.4662780000000 1.0
C      1  0.4267410000000  0.4774120000000  0.5897340000000 1.0
C      1  0.3903170000000  0.4678830000000  0.4793040000000 1.0
C      1  0.5683510000000  0.4258640000000  0.5041560000000 1.0
C      1  0.4710710000000  0.5466630000000  0.4566670000000 1.0
C      1  0.5160030000000  0.4476870000000  0.5896680000000 1.0
C      1  0.6148890000000  0.4972450000000  0.5122200000000 1.0
C      1  0.5036430000000  0.5760720000000  0.4105020000000 1.0
C      1  0.4465060000000  0.5233960000000  0.5686710000000 1.0
C      1  0.4491920000000  0.4226270000000  0.5615520000000 1.0
C      1  0.5153700000000  0.4732310000000  0.3975440000000 1.0
C      1  0.5256350000000  0.5306790000000  0.5366810000000 1.0
C      1  0.4787570000000  0.4543410000000  0.5167370000000 1.0
C      1  0.4386790000000  0.4688630000000  0.4992480000000 1.0
C      1  0.4852050000000  0.5906560000000  0.5115940000000 1.0
C      1  0.4889380000000  0.3881730000000  0.4989930000000 1.0
C      1  0.5758850000000  0.4386460000000  0.5290910000000 1.0
C      1  0.4039930000000  0.5408540000000  0.4631610000000 1.0
C      1  0.6038960000000  0.4918670000000  0.5547440000000 1.0
C      1  0.4792020000000  0.5360810000000  0.5141390000000 1.0
C      1  0.4925190000000  0.4943850000000  0.4905100000000 1.0
C      1  0.4830430000000  0.6092380000000  0.4704510000000 1.0
C      1  0.5114070000000  0.4950470000000  0.6042710000000 1.0
C      1  0.5727800000000  0.5680880000000  0.5542250000000 1.0
C      1  0.5985380000000  0.5136620000000  0.4647730000000 1.0
C      1  0.6125460000000  0.5194640000000  0.4922020000000 1.0
C      1  0.5686310000000  0.5062910000000  0.5225150000000 1.0
C      1  0.4549080000000  0.5471590000000  0.5551750000000 1.0
C      1  0.4709120000000  0.4233480000000  0.4344110000000 1.0
C      1  0.4503470000000  0.4528090000000  0.5240050000000 1.0
C      1  0.4428110000000  0.5721790000000  0.5663250000000 1.0
C      1  0.4602600000000  0.4364000000000  0.6026820000000 1.0
C      1  0.5835600000000  0.5334910000000  0.5289890000000 1.0
C      1  0.5119590000000  0.6081840000000  0.4789290000000 1.0
C      1  0.5214960000000  0.4382780000000  0.5449550000000 1.0
C      1  0.4964090000000  0.5293460000000  0.5386540000000 1.0
C      1  0.5869570000000  0.5448360000000  0.5654900000000 1.0
C      1  0.5142120000000  0.4457950000000  0.4065970000000 1.0
C      1  0.5033700000000  0.4488340000000  0.4726360000000 1.0
C      1  0.4649490000000  0.6045240000000  0.4935310000000 1.0
C      1  0.6042480000000  0.4852980000000  0.5820250000000 1.0
C      1  0.4860360000000  0.4820860000000  0.3940750000000 1.0
C      1  0.4379740000000  0.5473650000000  0.4971330000000 1.0
C      1  0.5009560000000  0.5318140000000  0.5977620000000 1.0
C      1  0.4444250000000  0.4980680000000  0.5043490000000 1.0
C      1  0.4473430000000  0.5894010000000  0.5442190000000 1.0
C      1  0.5182440000000  0.4116990000000  0.4559550000000 1.0
C      1  0.5476880000000  0.5729450000000  0.5680510000000 1.0
C      1  0.4898050000000  0.5568150000000  0.5881300000000 1.0
C      1  0.4722860000000  0.3883160000000  0.5237530000000 1.0
C      1  0.4839220000000  0.4648880000000  0.4894230000000 1.0
C      1  0.4267210000000  0.5533510000000  0.4500480000000 1.0
C      1  0.4853030000000  0.5542370000000  0.4090090000000 1.0
C      1  0.5293030000000  0.5669890000000  0.4160530000000 1.0
C      1  0.5742930000000  0.5147530000000  0.4172970000000 1.0
C      1  0.4859920000000  0.4392440000000  0.4132500000000 1.0
C      1  0.5456270000000  0.4367590000000  0.4877990000000 1.0
C      1  0.5599850000000  0.4702910000000  0.5553020000000 1.0
C      1  0.5113440000000  0.4873090000000  0.4394820000000 1.0
C      1  0.6026420000000  0.4504460000000  0.5264390000000 1.0
C      1  0.5260030000000  0.5813840000000  0.5495860000000 1.0
C      1  0.5355000000000  0.5510250000000  0.5188860000000 1.0
C      1  0.4174680000000  0.4256370000000  0.4828760000000 1.0
C      1  0.5517410000000  0.4402970000000  0.5556990000000 1.0
C      1  0.5188060000000  0.5083930000000  0.4820140000000 1.0
C      1  0.5348880000000  0.4854290000000  0.5516530000000 1.0
C      1  0.5892670000000  0.4187140000000  0.4864340000000 1.0
C      1  0.5347790000000  0.5393330000000  0.4906720000000 1.0
C      1  0.4057120000000  0.4645430000000  0.4550450000000 1.0
C      1  0.5194260000000  0.4653320000000  0.5307830000000 1.0
C      1  0.4308390000000  0.5821800000000  0.4588620000000 1.0
C      1  0.4460450000000  0.4654590000000  0.5519290000000 1.0
C      1  0.5610720000000  0.5059830000000  0.5910370000000 1.0
C      1  0.5650870000000  0.4587810000000  0.5976600000000 1.0
C      1  0.4696640000000  0.5120010000000  0.4938390000000 1.0
C      1  0.4977010000000  0.4436940000000  0.5658270000000 1.0
C      1  0.4789800000000  0.4182710000000  0.5667330000000 1.0
C      1  0.5402110000000  0.4930570000000  0.4352720000000 1.0
C      1  0.5613680000000  0.4753640000000  0.4504520000000 1.0
C      1  0.4926210000000  0.5986210000000  0.4230190000000 1.0
C      1  0.5141170000000  0.4112810000000  0.5324230000000 1.0
C      1  0.5996170000000  0.4524950000000  0.4537610000000 1.0
C      1  0.3926660000000  0.5480560000000  0.5121220000000 1.0
C      1  0.5322660000000  0.5019420000000  0.5834490000000 1.0
C      1  0.4879410000000  0.5620060000000  0.4984140000000 1.0
C      1  0.4542060000000  0.4846840000000  0.5960470000000 1.0
C      1  0.4961410000000  0.5263730000000  0.4076930000000 1.0
C      1  0.4166480000000  0.4906740000000  0.4479960000000 1.0
C      1  0.6099330000000  0.4691560000000  0.5049190000000 1.0
C      1  0.4963310000000  0.4614270000000  0.4436090000000 1.0
C      1  0.4907290000000  0.3988400000000  0.5462010000000 1.0
C      1  0.5345420000000  0.5897090000000  0.5213360000000 1.0
C      1  0.4725970000000  0.4629740000000  0.6026670000000 1.0
C      1  0.4239400000000  0.5177480000000  0.4964180000000 1.0
C      1  0.4309400000000  0.4894260000000  0.4222280000000 1.0
C      1  0.5565740000000  0.4421790000000  0.4594010000000 1.0
C      1  0.4754560000000  0.3931380000000  0.4733440000000 1.0
C      1  0.4837090000000  0.5464820000000  0.5603380000000 1.0
C      1  0.5458090000000  0.4421040000000  0.5860730000000 1.0
C      1  0.4034880000000  0.5210700000000  0.5184470000000 1.0
C      1  0.5705250000000  0.5340150000000  0.5870420000000 1.0
C      1  0.4976540000000  0.5822600000000  0.5602080000000 1.0
C      1  0.4067810000000  0.5114110000000  0.4702770000000 1.0
C      1  0.4067030000000  0.5444010000000  0.5558940000000 1.0
C      1  0.5020670000000  0.4675250000000  0.6069170000000 1.0
C      1  0.5094070000000  0.4074970000000  0.5042750000000 1.0
C      1  0.3998450000000  0.4738050000000  0.5257610000000 1.0
C      1  0.4389820000000  0.4419980000000  0.5821260000000 1.0
C      1  0.4467140000000  0.4033360000000  0.5170650000000 1.0
C      1  0.4206890000000  0.4824950000000  0.5460000000000 1.0
C      1  0.4088210000000  0.4575550000000  0.5006020000000 1.0
END
