TITL C-950526-5686-62 -2.84355307197696e-06 125000 -1250.33106885345 0 0 200 (C1) n - 1
REM
REM in /home/bkarasulu/work/CARBON/AIRSS/Generating-Clusters/EDIP-Nigel-Params/with-SteepDescent/Only-C1/SD-CG/HFTN-CG
REM
REM
REM
REM
REM
REM ./C.cell (11c1c37f851c82e70ff6c80c92926a4b)
REM
REM compiler GCC version 9.2.1 20190827 (Red Hat 9.2.1-1)
REM options -cpp -mtune=generic -march=x86-64 -g -O0 -fpre-include=/usr/include/finclude/math-vector-fortran.h
REM seed -2050133031 -126272885 1501388767 189428631 -1199387178 1657752989 2002907563 1553609606 395176132 -1697994787 -1059918825 1298755276 1960785831 1257301127 -1305212647 -1069589559 8986364 2041607849 -1247909753 -21845069 -2089247887 -1455301203 1225055501 -295926214 2103389673 1023529435 258661224 -383984487 1019903925 -1689627436 1519650723 1451467476 -1411360380
REM
CELL 1.54180   50.00000   50.00000   50.00000   90.00000   90.00000   90.00000
LATT -1
SFAC C  
C      1  0.4360170000000  0.4557300000000  0.4230120000000 1.0
C      1  0.4167300000000  0.5709640000000  0.5230370000000 1.0
C      1  0.4123670000000  0.4682450000000  0.5403990000000 1.0
C      1  0.5924980000000  0.4835620000000  0.5591300000000 1.0
C      1  0.4253450000000  0.5564270000000  0.4982950000000 1.0
C      1  0.5842970000000  0.5262220000000  0.4374670000000 1.0
C      1  0.4783760000000  0.5261510000000  0.4954860000000 1.0
C      1  0.4814900000000  0.4198740000000  0.4280730000000 1.0
C      1  0.5394500000000  0.4102660000000  0.5641670000000 1.0
C      1  0.4588980000000  0.4091060000000  0.4402390000000 1.0
C      1  0.5710110000000  0.5115390000000  0.5277700000000 1.0
C      1  0.5367470000000  0.6074130000000  0.4647430000000 1.0
C      1  0.4615150000000  0.4487590000000  0.6024590000000 1.0
C      1  0.5009090000000  0.5247610000000  0.4757740000000 1.0
C      1  0.5237120000000  0.5129030000000  0.4391740000000 1.0
C      1  0.4095700000000  0.4586490000000  0.4836630000000 1.0
C      1  0.4206470000000  0.4261740000000  0.5205290000000 1.0
C      1  0.5177750000000  0.6201430000000  0.4823920000000 1.0
C      1  0.5634660000000  0.3973660000000  0.4638880000000 1.0
C      1  0.4512500000000  0.5412890000000  0.5469390000000 1.0
C      1  0.5987440000000  0.5217360000000  0.5208390000000 1.0
C      1  0.4122120000000  0.4973460000000  0.4179860000000 1.0
C      1  0.4907920000000  0.6082830000000  0.4756450000000 1.0
C      1  0.4891350000000  0.5724080000000  0.5878430000000 1.0
C      1  0.6011690000000  0.5510030000000  0.5366620000000 1.0
C      1  0.4516210000000  0.6060140000000  0.5077180000000 1.0
C      1  0.4853110000000  0.3862870000000  0.5120880000000 1.0
C      1  0.5203280000000  0.4806550000000  0.6073490000000 1.0
C      1  0.4809380000000  0.5427660000000  0.4136180000000 1.0
C      1  0.5345050000000  0.4533930000000  0.5546330000000 1.0
C      1  0.5445470000000  0.4313410000000  0.5845150000000 1.0
C      1  0.5440120000000  0.5471540000000  0.5310170000000 1.0
C      1  0.4617460000000  0.4337960000000  0.4901590000000 1.0
C      1  0.5075590000000  0.5918650000000  0.5457650000000 1.0
C      1  0.4856850000000  0.4325500000000  0.5644490000000 1.0
C      1  0.4302940000000  0.4783080000000  0.4052340000000 1.0
C      1  0.6036750000000  0.5068570000000  0.4440710000000 1.0
C      1  0.4776290000000  0.5215430000000  0.5913480000000 1.0
C      1  0.5610690000000  0.4953280000000  0.4059250000000 1.0
C      1  0.5529440000000  0.5880780000000  0.4804340000000 1.0
C      1  0.6083170000000  0.4890000000000  0.5321580000000 1.0
C      1  0.4231620000000  0.4812860000000  0.4953520000000 1.0
C      1  0.5144070000000  0.3975630000000  0.5521320000000 1.0
C      1  0.4749820000000  0.4993420000000  0.4405640000000 1.0
C      1  0.5075580000000  0.4914900000000  0.3997350000000 1.0
C      1  0.4306340000000  0.5269590000000  0.5013830000000 1.0
C      1  0.5082560000000  0.5616400000000  0.5045620000000 1.0
C      1  0.4806830000000  0.5706030000000  0.4709280000000 1.0
C      1  0.5483940000000  0.5455900000000  0.3991100000000 1.0
C      1  0.5334510000000  0.4639840000000  0.4491820000000 1.0
C      1  0.5365180000000  0.5849830000000  0.5787430000000 1.0
C      1  0.5306520000000  0.5249610000000  0.5157060000000 1.0
C      1  0.5213380000000  0.5381020000000  0.4929280000000 1.0
C      1  0.5058590000000  0.4375540000000  0.5131890000000 1.0
C      1  0.5881950000000  0.4404720000000  0.4560460000000 1.0
C      1  0.4146490000000  0.4805950000000  0.5659690000000 1.0
C      1  0.4817740000000  0.5774380000000  0.5606450000000 1.0
C      1  0.5125260000000  0.5079600000000  0.5682440000000 1.0
C      1  0.4021830000000  0.4646520000000  0.4556490000000 1.0
C      1  0.4917730000000  0.6096570000000  0.4441370000000 1.0
C      1  0.4704260000000  0.4849390000000  0.5570290000000 1.0
C      1  0.5956910000000  0.4303190000000  0.4827290000000 1.0
C      1  0.4067940000000  0.4923570000000  0.4462960000000 1.0
C      1  0.4868010000000  0.4497680000000  0.4291680000000 1.0
C      1  0.4168620000000  0.5647700000000  0.4714670000000 1.0
C      1  0.5367270000000  0.3863100000000  0.5060120000000 1.0
C      1  0.4966200000000  0.4737980000000  0.5451330000000 1.0
C      1  0.4621890000000  0.4615260000000  0.4704550000000 1.0
C      1  0.5463360000000  0.4819040000000  0.5927140000000 1.0
C      1  0.4860090000000  0.5095560000000  0.5209240000000 1.0
C      1  0.4776820000000  0.4897040000000  0.5866470000000 1.0
C      1  0.4240890000000  0.4697780000000  0.5915530000000 1.0
C      1  0.4184520000000  0.5557170000000  0.5707210000000 1.0
C      1  0.5699330000000  0.5215720000000  0.5740390000000 1.0
C      1  0.4599260000000  0.4739630000000  0.6170550000000 1.0
C      1  0.5774270000000  0.4005170000000  0.5353550000000 1.0
C      1  0.5969890000000  0.5009890000000  0.4713560000000 1.0
C      1  0.4529350000000  0.5161590000000  0.4812150000000 1.0
C      1  0.5056340000000  0.4072460000000  0.4386130000000 1.0
C      1  0.5410090000000  0.5356000000000  0.4401190000000 1.0
C      1  0.4028620000000  0.5156500000000  0.4631860000000 1.0
C      1  0.5612960000000  0.5701030000000  0.5709660000000 1.0
C      1  0.5369410000000  0.4813500000000  0.5186100000000 1.0
C      1  0.4568390000000  0.5207590000000  0.4510540000000 1.0
C      1  0.5503160000000  0.5045930000000  0.5079080000000 1.0
C      1  0.5065330000000  0.4844450000000  0.5192250000000 1.0
C      1  0.4133720000000  0.5418820000000  0.4531320000000 1.0
C      1  0.5438150000000  0.4284500000000  0.4828230000000 1.0
C      1  0.5012420000000  0.4704850000000  0.5888510000000 1.0
C      1  0.4958290000000  0.4997270000000  0.3740150000000 1.0
C      1  0.4887210000000  0.4034030000000  0.5660930000000 1.0
C      1  0.4780190000000  0.5567050000000  0.5006780000000 1.0
C      1  0.3777580000000  0.4959820000000  0.5391840000000 1.0
C      1  0.5106710000000  0.5091540000000  0.6078220000000 1.0
C      1  0.4588670000000  0.5733510000000  0.4492950000000 1.0
C      1  0.4127340000000  0.4469720000000  0.4367190000000 1.0
C      1  0.4434630000000  0.5865810000000  0.5292720000000 1.0
C      1  0.4882730000000  0.4443030000000  0.5916230000000 1.0
C      1  0.4382710000000  0.4341810000000  0.5908040000000 1.0
C      1  0.4395100000000  0.4120730000000  0.5700570000000 1.0
C      1  0.5643630000000  0.5293650000000  0.4599330000000 1.0
C      1  0.5376460000000  0.4856650000000  0.5629950000000 1.0
C      1  0.5053840000000  0.4461750000000  0.5457900000000 1.0
C      1  0.5347260000000  0.4927720000000  0.4569840000000 1.0
C      1  0.5580940000000  0.5019260000000  0.4746170000000 1.0
C      1  0.5275910000000  0.4114210000000  0.4218280000000 1.0
C      1  0.4310210000000  0.5310840000000  0.5783640000000 1.0
C      1  0.5617960000000  0.4553620000000  0.5893250000000 1.0
C      1  0.4409600000000  0.5195290000000  0.5296300000000 1.0
C      1  0.4936540000000  0.5714290000000  0.4139620000000 1.0
C      1  0.4338790000000  0.5864700000000  0.4614420000000 1.0
C      1  0.4542900000000  0.5455990000000  0.4339810000000 1.0
C      1  0.4601100000000  0.5620880000000  0.5253780000000 1.0
C      1  0.5722920000000  0.5721730000000  0.4643830000000 1.0
C      1  0.5535110000000  0.4550850000000  0.4698960000000 1.0
C      1  0.4498530000000  0.4650860000000  0.5631720000000 1.0
C      1  0.5682370000000  0.5725340000000  0.4359770000000 1.0
C      1  0.5487530000000  0.5708930000000  0.4148020000000 1.0
C      1  0.5674720000000  0.4210630000000  0.4459720000000 1.0
C      1  0.5654050000000  0.5522210000000  0.5118940000000 1.0
C      1  0.5353180000000  0.4339520000000  0.5105980000000 1.0
C      1  0.4389360000000  0.4910880000000  0.6081470000000 1.0
C      1  0.4611270000000  0.3955010000000  0.5552000000000 1.0
C      1  0.4913000000000  0.4685210000000  0.4735470000000 1.0
C      1  0.4488400000000  0.3950450000000  0.4607480000000 1.0
C      1  0.5114320000000  0.4125340000000  0.4687180000000 1.0
C      1  0.4986030000000  0.4636030000000  0.5013860000000 1.0
C      1  0.5679240000000  0.4998140000000  0.5548600000000 1.0
C      1  0.4422510000000  0.4126050000000  0.4813040000000 1.0
C      1  0.4357710000000  0.4020460000000  0.5086180000000 1.0
C      1  0.4340330000000  0.5789910000000  0.5739390000000 1.0
C      1  0.4970510000000  0.5485980000000  0.4574510000000 1.0
C      1  0.5359470000000  0.4903080000000  0.3950500000000 1.0
C      1  0.4472910000000  0.5191770000000  0.5989000000000 1.0
C      1  0.4980590000000  0.5238150000000  0.5455480000000 1.0
C      1  0.5486260000000  0.4547640000000  0.5274630000000 1.0
C      1  0.4611330000000  0.3967120000000  0.5250880000000 1.0
C      1  0.5228760000000  0.5573950000000  0.4484320000000 1.0
C      1  0.3870150000000  0.4705990000000  0.5275250000000 1.0
C      1  0.5666810000000  0.5237500000000  0.4127490000000 1.0
C      1  0.4157110000000  0.5237960000000  0.4096740000000 1.0
C      1  0.5269700000000  0.5385610000000  0.5795400000000 1.0
C      1  0.3995890000000  0.4414400000000  0.5053330000000 1.0
C      1  0.4386670000000  0.6038730000000  0.4829780000000 1.0
C      1  0.5873620000000  0.5690440000000  0.5166230000000 1.0
C      1  0.5342150000000  0.3908650000000  0.4761090000000 1.0
C      1  0.5122750000000  0.3896240000000  0.5234380000000 1.0
C      1  0.5261830000000  0.5727430000000  0.5256400000000 1.0
C      1  0.4070690000000  0.5100940000000  0.4924280000000 1.0
C      1  0.5351420000000  0.5262930000000  0.6056390000000 1.0
C      1  0.5507350000000  0.4269600000000  0.4227360000000 1.0
C      1  0.5261270000000  0.6174430000000  0.5105910000000 1.0
C      1  0.4915930000000  0.4967500000000  0.4646140000000 1.0
C      1  0.4537910000000  0.5908080000000  0.5581680000000 1.0
C      1  0.4535270000000  0.4888180000000  0.3911040000000 1.0
C      1  0.4730750000000  0.4693950000000  0.3830830000000 1.0
C      1  0.4483250000000  0.4859390000000  0.4817140000000 1.0
C      1  0.5857440000000  0.4598310000000  0.5743980000000 1.0
C      1  0.4352210000000  0.4718620000000  0.5217530000000 1.0
C      1  0.4581760000000  0.4961810000000  0.5303160000000 1.0
C      1  0.5462990000000  0.5936580000000  0.5112210000000 1.0
C      1  0.4976300000000  0.5120200000000  0.4226610000000 1.0
C      1  0.5520070000000  0.5431940000000  0.5636970000000 1.0
C      1  0.4787400000000  0.5381520000000  0.5629460000000 1.0
C      1  0.5736380000000  0.5950910000000  0.5277780000000 1.0
C      1  0.5803770000000  0.4045730000000  0.4872950000000 1.0
C      1  0.5001360000000  0.6124130000000  0.5248510000000 1.0
C      1  0.4243830000000  0.5451180000000  0.4254410000000 1.0
C      1  0.4616190000000  0.4646860000000  0.4384130000000 1.0
C      1  0.5844220000000  0.5795300000000  0.5540540000000 1.0
C      1  0.3907550000000  0.5250040000000  0.5370780000000 1.0
C      1  0.4553580000000  0.5153340000000  0.3818470000000 1.0
C      1  0.5977520000000  0.5256060000000  0.4894880000000 1.0
C      1  0.3840370000000  0.5179200000000  0.5091940000000 1.0
C      1  0.5060130000000  0.4532900000000  0.4528940000000 1.0
C      1  0.4904200000000  0.4185540000000  0.4935540000000 1.0
C      1  0.5215290000000  0.5766220000000  0.4268420000000 1.0
C      1  0.5236310000000  0.5383690000000  0.3862440000000 1.0
C      1  0.4079370000000  0.5505750000000  0.5434520000000 1.0
C      1  0.4472050000000  0.4430380000000  0.5207240000000 1.0
C      1  0.5255910000000  0.6060800000000  0.5642150000000 1.0
C      1  0.5973900000000  0.4669340000000  0.5152480000000 1.0
C      1  0.5621110000000  0.3958240000000  0.5576360000000 1.0
C      1  0.4749330000000  0.5898840000000  0.4292000000000 1.0
C      1  0.5207640000000  0.6037730000000  0.4391770000000 1.0
C      1  0.5455370000000  0.4564460000000  0.4215420000000 1.0
C      1  0.5632410000000  0.3996300000000  0.5105010000000 1.0
C      1  0.5162670000000  0.5655410000000  0.5859530000000 1.0
C      1  0.5590440000000  0.5095840000000  0.5991610000000 1.0
C      1  0.5794840000000  0.4713000000000  0.4527420000000 1.0
C      1  0.5911060000000  0.5519980000000  0.4762490000000 1.0
C      1  0.5793050000000  0.4512500000000  0.5318870000000 1.0
C      1  0.4576200000000  0.4391910000000  0.5513290000000 1.0
C      1  0.5901080000000  0.4250890000000  0.5356010000000 1.0
C      1  0.4738230000000  0.5364470000000  0.3852980000000 1.0
C      1  0.4800570000000  0.6068640000000  0.5039140000000 1.0
C      1  0.5703340000000  0.4728230000000  0.4226800000000 1.0
C      1  0.6108050000000  0.4468560000000  0.5004310000000 1.0
C      1  0.4948570000000  0.4632670000000  0.4023640000000 1.0
C      1  0.4998270000000  0.5286710000000  0.3735050000000 1.0
END
