TITL C-951346-9544-435 -6.78238816819118e-06 125000 -806.826625593471 0 0 132 (C1) n - 1
REM
REM in /home/bkarasulu/work/CARBON/AIRSS/Generating-Clusters/EDIP-Nigel-Params/with-SteepDescent/Only-C1/SD-CG/HFTN-CG
REM
REM
REM
REM
REM
REM ./C.cell (11c1c37f851c82e70ff6c80c92926a4b)
REM
REM compiler GCC version 9.2.1 20190827 (Red Hat 9.2.1-1)
REM options -cpp -mtune=generic -march=x86-64 -g -O0 -fpre-include=/usr/include/finclude/math-vector-fortran.h
REM seed 1556142956 2037372775 683194427 248282487 -80188265 -920238575 2021463122 911059166 1746324457 1268051815 -1297085788 -1843891723 -777263922 -2059989041 -805726716 13994788 1367751486 -2059320536 -671585066 -653056039 231178496 768263993 -1644909172 1729036196 418401297 -1387194746 -1272674752 841908119 994734094 -773698011 -193961540 -797929190 -126597239
REM
CELL 1.54180   50.00000   50.00000   50.00000   90.00000   90.00000   90.00000
LATT -1
SFAC C  
C      1  0.4429200000000  0.4702480000000  0.4320740000000 1.0
C      1  0.4312610000000  0.4805340000000  0.5006990000000 1.0
C      1  0.5555460000000  0.5035130000000  0.4389300000000 1.0
C      1  0.5178590000000  0.4893910000000  0.4660400000000 1.0
C      1  0.4900660000000  0.4694980000000  0.5049550000000 1.0
C      1  0.4230300000000  0.5041440000000  0.5874900000000 1.0
C      1  0.5419390000000  0.5828930000000  0.5338290000000 1.0
C      1  0.4469570000000  0.4597460000000  0.5812210000000 1.0
C      1  0.5790100000000  0.5241330000000  0.4801350000000 1.0
C      1  0.5230310000000  0.5843010000000  0.4815350000000 1.0
C      1  0.4935100000000  0.5340670000000  0.5840050000000 1.0
C      1  0.5848920000000  0.5091960000000  0.5060280000000 1.0
C      1  0.5478360000000  0.5059460000000  0.4098510000000 1.0
C      1  0.4602130000000  0.4921240000000  0.4975680000000 1.0
C      1  0.4702040000000  0.3993550000000  0.5027590000000 1.0
C      1  0.4205880000000  0.5350510000000  0.4464510000000 1.0
C      1  0.4180000000000  0.4766190000000  0.5460480000000 1.0
C      1  0.4671940000000  0.5198500000000  0.4524230000000 1.0
C      1  0.4124920000000  0.5378140000000  0.4723110000000 1.0
C      1  0.5201100000000  0.4930390000000  0.4069440000000 1.0
C      1  0.5166330000000  0.5362210000000  0.4423010000000 1.0
C      1  0.5691470000000  0.4420120000000  0.5506970000000 1.0
C      1  0.4947420000000  0.4450260000000  0.4897410000000 1.0
C      1  0.5140820000000  0.4637880000000  0.4180070000000 1.0
C      1  0.5255900000000  0.4499450000000  0.5895260000000 1.0
C      1  0.5575970000000  0.4740290000000  0.4389090000000 1.0
C      1  0.4829140000000  0.4973340000000  0.4400520000000 1.0
C      1  0.5094780000000  0.4193340000000  0.5033790000000 1.0
C      1  0.4676930000000  0.4788090000000  0.4208720000000 1.0
C      1  0.5347440000000  0.4661440000000  0.4568410000000 1.0
C      1  0.5190580000000  0.5347650000000  0.5708660000000 1.0
C      1  0.5437430000000  0.5142300000000  0.5308180000000 1.0
C      1  0.4789270000000  0.5694870000000  0.4384370000000 1.0
C      1  0.4428440000000  0.5662280000000  0.4868990000000 1.0
C      1  0.4677830000000  0.5413370000000  0.5320130000000 1.0
C      1  0.5396830000000  0.5279910000000  0.5894520000000 1.0
C      1  0.4363580000000  0.5717380000000  0.5303730000000 1.0
C      1  0.5690140000000  0.4451830000000  0.4751250000000 1.0
C      1  0.5413440000000  0.5796130000000  0.5038040000000 1.0
C      1  0.4312770000000  0.4358130000000  0.4840720000000 1.0
C      1  0.5307760000000  0.4419620000000  0.4263040000000 1.0
C      1  0.4834720000000  0.5269600000000  0.4006610000000 1.0
C      1  0.5575910000000  0.5644470000000  0.5711200000000 1.0
C      1  0.5320460000000  0.5129950000000  0.4559830000000 1.0
C      1  0.4333160000000  0.4630330000000  0.5244220000000 1.0
C      1  0.5414490000000  0.4878790000000  0.5113330000000 1.0
C      1  0.4796950000000  0.5860800000000  0.5098000000000 1.0
C      1  0.5895310000000  0.4800950000000  0.5098540000000 1.0
C      1  0.4612410000000  0.4951460000000  0.3947100000000 1.0
C      1  0.4788540000000  0.4287710000000  0.4286710000000 1.0
C      1  0.5664070000000  0.5710320000000  0.5449470000000 1.0
C      1  0.4695590000000  0.4029630000000  0.4736980000000 1.0
C      1  0.4367120000000  0.4354280000000  0.5133890000000 1.0
C      1  0.4259500000000  0.5287650000000  0.5740970000000 1.0
C      1  0.5794590000000  0.5079860000000  0.4569450000000 1.0
C      1  0.4779940000000  0.5114610000000  0.5257360000000 1.0
C      1  0.4892850000000  0.5521160000000  0.4820550000000 1.0
C      1  0.5166450000000  0.5486450000000  0.5226410000000 1.0
C      1  0.5715640000000  0.4355560000000  0.5231790000000 1.0
C      1  0.5683140000000  0.5515730000000  0.4726460000000 1.0
C      1  0.5510230000000  0.5323140000000  0.4021710000000 1.0
C      1  0.4628550000000  0.5438700000000  0.4956020000000 1.0
C      1  0.4710550000000  0.5464790000000  0.5676730000000 1.0
C      1  0.4618170000000  0.4222500000000  0.5199650000000 1.0
C      1  0.4874460000000  0.5442590000000  0.4528110000000 1.0
C      1  0.4466220000000  0.5465140000000  0.5815530000000 1.0
C      1  0.4244450000000  0.5463810000000  0.5251670000000 1.0
C      1  0.4757860000000  0.4466750000000  0.4693170000000 1.0
C      1  0.4746780000000  0.4353140000000  0.5449810000000 1.0
C      1  0.5574910000000  0.4859170000000  0.5697650000000 1.0
C      1  0.4868140000000  0.5055480000000  0.3788300000000 1.0
C      1  0.5116120000000  0.4930280000000  0.3794190000000 1.0
C      1  0.5192050000000  0.4492220000000  0.5335410000000 1.0
C      1  0.5529310000000  0.5602920000000  0.4486700000000 1.0
C      1  0.5347310000000  0.4763870000000  0.5873450000000 1.0
C      1  0.5289980000000  0.3993530000000  0.5293150000000 1.0
C      1  0.4513990000000  0.5744420000000  0.4358110000000 1.0
C      1  0.5577990000000  0.4865060000000  0.4802410000000 1.0
C      1  0.4288420000000  0.4805750000000  0.5727050000000 1.0
C      1  0.5519820000000  0.5388720000000  0.5112180000000 1.0
C      1  0.4512610000000  0.5235090000000  0.4064610000000 1.0
C      1  0.4901370000000  0.5652040000000  0.5295910000000 1.0
C      1  0.4862960000000  0.4555290000000  0.4174010000000 1.0
C      1  0.4190400000000  0.5310040000000  0.4993130000000 1.0
C      1  0.4508890000000  0.4263820000000  0.4364030000000 1.0
C      1  0.5131480000000  0.4886710000000  0.4962820000000 1.0
C      1  0.5628940000000  0.5366530000000  0.5777090000000 1.0
C      1  0.5772130000000  0.4680980000000  0.5581550000000 1.0
C      1  0.5771870000000  0.4538520000000  0.5018340000000 1.0
C      1  0.4965610000000  0.3919660000000  0.5100010000000 1.0
C      1  0.5269440000000  0.5719070000000  0.4544510000000 1.0
C      1  0.4761770000000  0.5736020000000  0.5728430000000 1.0
C      1  0.4890050000000  0.5902960000000  0.4543880000000 1.0
C      1  0.4548680000000  0.4273330000000  0.4659580000000 1.0
C      1  0.4437610000000  0.5240270000000  0.4348520000000 1.0
C      1  0.5162960000000  0.5224470000000  0.5431480000000 1.0
C      1  0.4224400000000  0.5263500000000  0.5457170000000 1.0
C      1  0.4963870000000  0.4154220000000  0.4491850000000 1.0
C      1  0.4220750000000  0.4628870000000  0.4780640000000 1.0
C      1  0.4708580000000  0.4684940000000  0.5919050000000 1.0
C      1  0.4421270000000  0.5777990000000  0.4612220000000 1.0
C      1  0.4922360000000  0.5072130000000  0.5958880000000 1.0
C      1  0.5250560000000  0.4244020000000  0.4482690000000 1.0
C      1  0.5551520000000  0.5471720000000  0.4242270000000 1.0
C      1  0.5108670000000  0.5376940000000  0.4959220000000 1.0
C      1  0.5211730000000  0.4227000000000  0.5458250000000 1.0
C      1  0.5370820000000  0.4126040000000  0.4944370000000 1.0
C      1  0.4092090000000  0.5026860000000  0.5355450000000 1.0
C      1  0.5745290000000  0.5464460000000  0.5293500000000 1.0
C      1  0.4962510000000  0.5806240000000  0.5540230000000 1.0
C      1  0.4913600000000  0.4928760000000  0.5485700000000 1.0
C      1  0.4988610000000  0.5128810000000  0.5033980000000 1.0
C      1  0.5932430000000  0.4788790000000  0.5376920000000 1.0
C      1  0.4774950000000  0.4915900000000  0.5764930000000 1.0
C      1  0.5908000000000  0.5224600000000  0.5314080000000 1.0
C      1  0.5637450000000  0.5133540000000  0.5567940000000 1.0
C      1  0.4571590000000  0.5173690000000  0.4811740000000 1.0
C      1  0.4116740000000  0.5031660000000  0.5064290000000 1.0
C      1  0.5451860000000  0.4263190000000  0.4709530000000 1.0
C      1  0.4925320000000  0.4631180000000  0.5348740000000 1.0
C      1  0.4523700000000  0.4407430000000  0.5620790000000 1.0
C      1  0.5251400000000  0.5813910000000  0.5580430000000 1.0
C      1  0.4934840000000  0.5822000000000  0.4826850000000 1.0
C      1  0.4962690000000  0.4204480000000  0.5612290000000 1.0
C      1  0.4249310000000  0.4702440000000  0.4517080000000 1.0
C      1  0.5044190000000  0.4331260000000  0.5853970000000 1.0
C      1  0.5782410000000  0.4641610000000  0.4559130000000 1.0
C      1  0.5444230000000  0.4625100000000  0.5292290000000 1.0
C      1  0.5663180000000  0.5707100000000  0.4935050000000 1.0
C      1  0.5014940000000  0.5133680000000  0.4222360000000 1.0
C      1  0.4496620000000  0.5845200000000  0.5087760000000 1.0
C      1  0.5173760000000  0.4940120000000  0.6012750000000 1.0
END
