TITL C-950535-5962-21 -2.81105100391502e-06 125000 -926.525989377062 0 0 149 (C1) n - 1
REM
REM in /home/bkarasulu/work/CARBON/AIRSS/Generating-Clusters/EDIP-Nigel-Params/with-SteepDescent/Only-C1/SD-CG/HFTN-CG
REM
REM
REM
REM
REM
REM ./C.cell (11c1c37f851c82e70ff6c80c92926a4b)
REM
REM compiler GCC version 9.2.1 20190827 (Red Hat 9.2.1-1)
REM options -cpp -mtune=generic -march=x86-64 -g -O0 -fpre-include=/usr/include/finclude/math-vector-fortran.h
REM seed 254516734 -333714784 -1015668264 -104926188 48138807 545873318 -361347153 1281259024 2094016478 483688876 -1880864 -100288932 503166764 -1095783086 -1080044620 -1044463754 -930622099 -105693806 -539091236 1764639659 1427201533 -1986926668 1340067183 -627619854 -1885152670 1819208458 192734297 769227754 2056910047 1586035536 -1175312816 1377807956 -370530971
REM
CELL 1.54180   50.00000   50.00000   50.00000   90.00000   90.00000   90.00000
LATT -1
SFAC C  
C      1  0.4500040000000  0.4909640000000  0.4819740000000 1.0
C      1  0.5109850000000  0.4010410000000  0.4645600000000 1.0
C      1  0.4953020000000  0.5164060000000  0.5733630000000 1.0
C      1  0.4447600000000  0.5223740000000  0.5215140000000 1.0
C      1  0.4208230000000  0.4376950000000  0.5106040000000 1.0
C      1  0.5197970000000  0.3943260000000  0.4920800000000 1.0
C      1  0.4680780000000  0.5080830000000  0.5621840000000 1.0
C      1  0.4980340000000  0.4429250000000  0.4158460000000 1.0
C      1  0.5743690000000  0.4349900000000  0.4827060000000 1.0
C      1  0.4921790000000  0.5906810000000  0.5497690000000 1.0
C      1  0.5343660000000  0.5162050000000  0.5938990000000 1.0
C      1  0.5051100000000  0.4411280000000  0.5006470000000 1.0
C      1  0.4844340000000  0.4237580000000  0.5578270000000 1.0
C      1  0.4617840000000  0.3980930000000  0.5379330000000 1.0
C      1  0.5766860000000  0.4869500000000  0.4453020000000 1.0
C      1  0.5949510000000  0.5031400000000  0.5228960000000 1.0
C      1  0.5229240000000  0.5915860000000  0.4465570000000 1.0
C      1  0.4037440000000  0.4837470000000  0.5256220000000 1.0
C      1  0.5060050000000  0.4760850000000  0.5870750000000 1.0
C      1  0.3971990000000  0.5303820000000  0.5186970000000 1.0
C      1  0.4936880000000  0.5913190000000  0.4417240000000 1.0
C      1  0.5493620000000  0.3945750000000  0.4864320000000 1.0
C      1  0.4962230000000  0.5626900000000  0.5600610000000 1.0
C      1  0.4706540000000  0.5463950000000  0.4138590000000 1.0
C      1  0.4782850000000  0.5326190000000  0.4784110000000 1.0
C      1  0.5200860000000  0.4812960000000  0.4748360000000 1.0
C      1  0.4308110000000  0.4273930000000  0.4650290000000 1.0
C      1  0.5325680000000  0.5102690000000  0.4364410000000 1.0
C      1  0.4609260000000  0.5487100000000  0.5255470000000 1.0
C      1  0.5152150000000  0.5400790000000  0.3950470000000 1.0
C      1  0.4799010000000  0.4240810000000  0.4578120000000 1.0
C      1  0.5360460000000  0.5745720000000  0.4266180000000 1.0
C      1  0.4744070000000  0.4328890000000  0.4299950000000 1.0
C      1  0.4807650000000  0.3942210000000  0.4612670000000 1.0
C      1  0.5619520000000  0.4029480000000  0.5118600000000 1.0
C      1  0.4783870000000  0.4679280000000  0.5789950000000 1.0
C      1  0.4767910000000  0.5028520000000  0.4745800000000 1.0
C      1  0.4372820000000  0.4808610000000  0.4575670000000 1.0
C      1  0.4194030000000  0.5261240000000  0.5387840000000 1.0
C      1  0.5145900000000  0.5767750000000  0.4942450000000 1.0
C      1  0.4930720000000  0.4057540000000  0.5343300000000 1.0
C      1  0.5867330000000  0.4173830000000  0.5045430000000 1.0
C      1  0.5140250000000  0.4151370000000  0.5140950000000 1.0
C      1  0.6021930000000  0.5294580000000  0.4817470000000 1.0
C      1  0.5627920000000  0.4794330000000  0.5593800000000 1.0
C      1  0.5607980000000  0.4827940000000  0.4922160000000 1.0
C      1  0.5847490000000  0.5811900000000  0.5190610000000 1.0
C      1  0.5740770000000  0.5759690000000  0.4766330000000 1.0
C      1  0.4299480000000  0.4797460000000  0.5650590000000 1.0
C      1  0.5433900000000  0.5053140000000  0.4665540000000 1.0
C      1  0.5548580000000  0.5543170000000  0.4360590000000 1.0
C      1  0.6008240000000  0.4777830000000  0.5108650000000 1.0
C      1  0.4569100000000  0.4089080000000  0.4956900000000 1.0
C      1  0.5421030000000  0.4196650000000  0.5258990000000 1.0
C      1  0.5551950000000  0.5269840000000  0.4249700000000 1.0
C      1  0.4136510000000  0.4984950000000  0.5490340000000 1.0
C      1  0.4783040000000  0.4565880000000  0.5014680000000 1.0
C      1  0.5286300000000  0.5439320000000  0.5934490000000 1.0
C      1  0.4835670000000  0.5375390000000  0.5975440000000 1.0
C      1  0.4112160000000  0.4413770000000  0.4837840000000 1.0
C      1  0.5110560000000  0.5513640000000  0.5119250000000 1.0
C      1  0.4354260000000  0.4297250000000  0.5664330000000 1.0
C      1  0.4850670000000  0.5375180000000  0.5075910000000 1.0
C      1  0.4274570000000  0.4425170000000  0.4377560000000 1.0
C      1  0.5259680000000  0.4502740000000  0.4811090000000 1.0
C      1  0.4667320000000  0.3851700000000  0.4840800000000 1.0
C      1  0.4663340000000  0.5903790000000  0.5360200000000 1.0
C      1  0.3938960000000  0.5144740000000  0.4750970000000 1.0
C      1  0.5130480000000  0.4988190000000  0.6028330000000 1.0
C      1  0.4416880000000  0.5193460000000  0.4907570000000 1.0
C      1  0.5428880000000  0.5362830000000  0.4793130000000 1.0
C      1  0.4926320000000  0.5100030000000  0.5215240000000 1.0
C      1  0.5752750000000  0.5213990000000  0.5648430000000 1.0
C      1  0.4885840000000  0.5907770000000  0.4892570000000 1.0
C      1  0.4240030000000  0.5512130000000  0.5578620000000 1.0
C      1  0.4930500000000  0.5268800000000  0.4073640000000 1.0
C      1  0.5255760000000  0.4360760000000  0.4286900000000 1.0
C      1  0.4500990000000  0.5356910000000  0.4314340000000 1.0
C      1  0.4565800000000  0.4122400000000  0.5646810000000 1.0
C      1  0.5212680000000  0.4801050000000  0.4235590000000 1.0
C      1  0.4666610000000  0.5883160000000  0.5072120000000 1.0
C      1  0.5885770000000  0.5491760000000  0.5254720000000 1.0
C      1  0.4236520000000  0.5026220000000  0.4450070000000 1.0
C      1  0.4133830000000  0.4617000000000  0.4585970000000 1.0
C      1  0.5510920000000  0.4872250000000  0.5233820000000 1.0
C      1  0.4704800000000  0.5465590000000  0.5544330000000 1.0
C      1  0.5238120000000  0.4743220000000  0.5232160000000 1.0
C      1  0.4323580000000  0.5730430000000  0.5379970000000 1.0
C      1  0.5884540000000  0.5342480000000  0.4579650000000 1.0
C      1  0.4478020000000  0.5756020000000  0.4640650000000 1.0
C      1  0.5929610000000  0.5022370000000  0.5516710000000 1.0
C      1  0.5052430000000  0.4774620000000  0.4501620000000 1.0
C      1  0.5021310000000  0.5211380000000  0.4360400000000 1.0
C      1  0.4772360000000  0.5832670000000  0.4638850000000 1.0
C      1  0.5289640000000  0.4269080000000  0.4581590000000 1.0
C      1  0.5261200000000  0.4558080000000  0.5825350000000 1.0
C      1  0.5301280000000  0.5302960000000  0.5037570000000 1.0
C      1  0.5649580000000  0.4638810000000  0.4380430000000 1.0
C      1  0.5424930000000  0.4590350000000  0.4224840000000 1.0
C      1  0.4902160000000  0.5675460000000  0.4244200000000 1.0
C      1  0.4559280000000  0.5445580000000  0.5994390000000 1.0
C      1  0.5776140000000  0.5143920000000  0.4397750000000 1.0
C      1  0.4530900000000  0.4524990000000  0.4278630000000 1.0
C      1  0.4091690000000  0.4545390000000  0.5312560000000 1.0
C      1  0.5889090000000  0.4709450000000  0.4842490000000 1.0
C      1  0.4667150000000  0.4990850000000  0.5329370000000 1.0
C      1  0.3916420000000  0.5040280000000  0.5048020000000 1.0
C      1  0.5957680000000  0.4325580000000  0.5266170000000 1.0
C      1  0.5824670000000  0.4573060000000  0.5217690000000 1.0
C      1  0.5132670000000  0.4605510000000  0.5463690000000 1.0
C      1  0.4422450000000  0.5086260000000  0.4235040000000 1.0
C      1  0.5128980000000  0.5192780000000  0.5458840000000 1.0
C      1  0.4937630000000  0.4726670000000  0.4079260000000 1.0
C      1  0.4846050000000  0.4545680000000  0.5519740000000 1.0
C      1  0.5040430000000  0.4853620000000  0.5033400000000 1.0
C      1  0.5788510000000  0.5610430000000  0.4516130000000 1.0
C      1  0.5646160000000  0.5369090000000  0.5416820000000 1.0
C      1  0.4592890000000  0.4324290000000  0.4782580000000 1.0
C      1  0.6011060000000  0.5278750000000  0.5093970000000 1.0
C      1  0.5038840000000  0.5567820000000  0.5889080000000 1.0
C      1  0.4688210000000  0.4671840000000  0.5286950000000 1.0
C      1  0.4495810000000  0.5531090000000  0.5735460000000 1.0
C      1  0.5148350000000  0.5652300000000  0.4083520000000 1.0
C      1  0.4655330000000  0.4861720000000  0.4238240000000 1.0
C      1  0.4850560000000  0.4972910000000  0.4465740000000 1.0
C      1  0.3949770000000  0.4998330000000  0.4501890000000 1.0
C      1  0.4973190000000  0.5451530000000  0.4554960000000 1.0
C      1  0.5547500000000  0.5042050000000  0.5761690000000 1.0
C      1  0.4228550000000  0.4526100000000  0.5572190000000 1.0
C      1  0.4062440000000  0.5501040000000  0.4988160000000 1.0
C      1  0.5931380000000  0.5891300000000  0.4929130000000 1.0
C      1  0.5171990000000  0.5504130000000  0.5424590000000 1.0
C      1  0.4554520000000  0.4875090000000  0.5790500000000 1.0
C      1  0.4248360000000  0.5688660000000  0.5099620000000 1.0
C      1  0.5521520000000  0.4518480000000  0.4973060000000 1.0
C      1  0.5510180000000  0.4533820000000  0.5682580000000 1.0
C      1  0.5457170000000  0.5598130000000  0.5459780000000 1.0
C      1  0.5311960000000  0.5935830000000  0.5127970000000 1.0
C      1  0.5499800000000  0.4322630000000  0.5497430000000 1.0
C      1  0.5534530000000  0.5750160000000  0.5205520000000 1.0
C      1  0.5138270000000  0.6001220000000  0.5341340000000 1.0
C      1  0.5450220000000  0.5173990000000  0.5263730000000 1.0
C      1  0.4180170000000  0.5342210000000  0.4761310000000 1.0
C      1  0.5673590000000  0.5511640000000  0.4928930000000 1.0
C      1  0.5564930000000  0.4160660000000  0.4658300000000 1.0
C      1  0.4354410000000  0.4126680000000  0.5148370000000 1.0
C      1  0.5233180000000  0.5597360000000  0.4662840000000 1.0
C      1  0.4432880000000  0.5811390000000  0.4925660000000 1.0
C      1  0.4339900000000  0.5512000000000  0.4523200000000 1.0
END
