TITL C-951344-124-706 -6.24978137869505e-06 125000 -165.074234230635 0 0 28 (C1) n - 1
REM
REM in /home/bkarasulu/work/CARBON/AIRSS/Generating-Clusters/EDIP-Nigel-Params/with-SteepDescent/Only-C1/SD-CG/HFTN-CG
REM
REM
REM
REM
REM
REM ./C.cell (11c1c37f851c82e70ff6c80c92926a4b)
REM
REM compiler GCC version 9.2.1 20190827 (Red Hat 9.2.1-1)
REM options -cpp -mtune=generic -march=x86-64 -g -O0 -fpre-include=/usr/include/finclude/math-vector-fortran.h
REM seed -942610439 886334298 1117649054 188014805 1135681227 -60059023 -775403968 389121963 -648208502 1224934304 -1482190348 -947161251 975092285 1999514003 -824633383 -280725881 -1988842686 -1446625838 -324569317 124356693 766020334 852197345 1172145274 -356614894 -2097498164 911783 -250366015 1453814789 -1745123326 279404163 -1871654666 764455588 -1813068795
REM
CELL 1.54180   50.00000   50.00000   50.00000   90.00000   90.00000   90.00000
LATT -1
SFAC C  
C      1  0.4938100000000  0.5266730000000  0.4818060000000 1.0
C      1  0.4931740000000  0.4984960000000  0.4930320000000 1.0
C      1  0.4962590000000  0.4592630000000  0.5648740000000 1.0
C      1  0.4818070000000  0.5461280000000  0.4975010000000 1.0
C      1  0.5012770000000  0.4533550000000  0.4759670000000 1.0
C      1  0.4780190000000  0.5459980000000  0.5249340000000 1.0
C      1  0.4995760000000  0.4516770000000  0.5365980000000 1.0
C      1  0.5381370000000  0.5164310000000  0.4625220000000 1.0
C      1  0.5129670000000  0.4799040000000  0.5365760000000 1.0
C      1  0.4833500000000  0.5705290000000  0.5388740000000 1.0
C      1  0.5071910000000  0.4930490000000  0.4333860000000 1.0
C      1  0.4788590000000  0.4494430000000  0.5184000000000 1.0
C      1  0.4965740000000  0.4495200000000  0.4482140000000 1.0
C      1  0.5169800000000  0.5337850000000  0.4682200000000 1.0
C      1  0.5556810000000  0.5114820000000  0.4842270000000 1.0
C      1  0.5373970000000  0.4776850000000  0.5000570000000 1.0
C      1  0.5610960000000  0.4909940000000  0.5012710000000 1.0
C      1  0.4881290000000  0.5228120000000  0.5361400000000 1.0
C      1  0.5153460000000  0.4800240000000  0.4811270000000 1.0
C      1  0.4951260000000  0.4993770000000  0.5230450000000 1.0
C      1  0.4869410000000  0.4747810000000  0.4398440000000 1.0
C      1  0.4659800000000  0.4848150000000  0.4559670000000 1.0
C      1  0.4756130000000  0.4545730000000  0.4911850000000 1.0
C      1  0.4695110000000  0.5789970000000  0.5621550000000 1.0
C      1  0.4688420000000  0.4828510000000  0.4840430000000 1.0
C      1  0.4657700000000  0.5928000000000  0.5392940000000 1.0
C      1  0.5255330000000  0.4912200000000  0.4547880000000 1.0
C      1  0.5110550000000  0.4833380000000  0.5659530000000 1.0
END
