TITL C-950534-5965-739 -2.96085322940756e-07 125000 -619.261168713003 0 0 101 (C1) n - 1
REM
REM in /home/bkarasulu/work/CARBON/AIRSS/Generating-Clusters/EDIP-Nigel-Params/with-SteepDescent/Only-C1/SD-CG/HFTN-CG
REM
REM
REM
REM
REM
REM ./C.cell (11c1c37f851c82e70ff6c80c92926a4b)
REM
REM compiler GCC version 9.2.1 20190827 (Red Hat 9.2.1-1)
REM options -cpp -mtune=generic -march=x86-64 -g -O0 -fpre-include=/usr/include/finclude/math-vector-fortran.h
REM seed 555075715 -691325749 -2138686776 -1348603885 -1924622256 830034167 728149969 1081180033 1318469698 -1969308134 -1218312284 1099520978 348336022 2076220197 741142329 265920534 -100187775 -1047655858 -756380170 507808365 -920400270 -762536038 -1155746479 1538499348 480974063 -751149996 -887585237 -1656367222 -1376172829 906539741 -2080561753 473215828 -1199726715
REM
CELL 1.54180   50.00000   50.00000   50.00000   90.00000   90.00000   90.00000
LATT -1
SFAC C  
C      1  0.4224900000000  0.4994300000000  0.4723490000000 1.0
C      1  0.5279950000000  0.4742040000000  0.5813760000000 1.0
C      1  0.5092270000000  0.4825050000000  0.4215040000000 1.0
C      1  0.4685500000000  0.5699830000000  0.4560360000000 1.0
C      1  0.5021870000000  0.4291090000000  0.4460380000000 1.0
C      1  0.5295400000000  0.4756830000000  0.4739730000000 1.0
C      1  0.5003910000000  0.4786860000000  0.5109460000000 1.0
C      1  0.4953030000000  0.5437260000000  0.5647420000000 1.0
C      1  0.4504940000000  0.5546380000000  0.5465860000000 1.0
C      1  0.5381360000000  0.5053950000000  0.5120250000000 1.0
C      1  0.5083140000000  0.5094810000000  0.4094820000000 1.0
C      1  0.4664230000000  0.5376710000000  0.5639800000000 1.0
C      1  0.4922230000000  0.5238240000000  0.5314920000000 1.0
C      1  0.4729830000000  0.5757620000000  0.4857500000000 1.0
C      1  0.5184200000000  0.4934440000000  0.4935310000000 1.0
C      1  0.4227170000000  0.4480340000000  0.4863940000000 1.0
C      1  0.5189810000000  0.5101800000000  0.5370470000000 1.0
C      1  0.4555980000000  0.4404350000000  0.4500620000000 1.0
C      1  0.4766400000000  0.5441420000000  0.4913500000000 1.0
C      1  0.4325320000000  0.5030280000000  0.4452540000000 1.0
C      1  0.4843700000000  0.4668820000000  0.4222080000000 1.0
C      1  0.5473520000000  0.5313870000000  0.4954620000000 1.0
C      1  0.4366960000000  0.4511580000000  0.5319110000000 1.0
C      1  0.4334050000000  0.5094670000000  0.5709690000000 1.0
C      1  0.4313610000000  0.5411090000000  0.5273390000000 1.0
C      1  0.4834880000000  0.4882590000000  0.5915180000000 1.0
C      1  0.5286000000000  0.5150790000000  0.4490400000000 1.0
C      1  0.5677120000000  0.5477210000000  0.5081990000000 1.0
C      1  0.5292600000000  0.4511070000000  0.5648300000000 1.0
C      1  0.5591010000000  0.5049530000000  0.5683460000000 1.0
C      1  0.4375770000000  0.4802820000000  0.4292710000000 1.0
C      1  0.6053940000000  0.4829020000000  0.4705610000000 1.0
C      1  0.5395670000000  0.5828650000000  0.5250160000000 1.0
C      1  0.4865620000000  0.4071670000000  0.5296660000000 1.0
C      1  0.5741510000000  0.4666280000000  0.5050270000000 1.0
C      1  0.5227990000000  0.5757630000000  0.4782000000000 1.0
C      1  0.4147440000000  0.4733960000000  0.4783230000000 1.0
C      1  0.5118410000000  0.5881070000000  0.5231230000000 1.0
C      1  0.5421970000000  0.4388020000000  0.4405610000000 1.0
C      1  0.5331120000000  0.4607200000000  0.5349960000000 1.0
C      1  0.5081860000000  0.4796380000000  0.5382860000000 1.0
C      1  0.4916760000000  0.5048180000000  0.4555220000000 1.0
C      1  0.4977570000000  0.5445180000000  0.5112550000000 1.0
C      1  0.4629150000000  0.4859730000000  0.4178480000000 1.0
C      1  0.5727420000000  0.4912780000000  0.5483490000000 1.0
C      1  0.4578620000000  0.5215300000000  0.4972750000000 1.0
C      1  0.4718500000000  0.4762960000000  0.5046600000000 1.0
C      1  0.4505400000000  0.5250980000000  0.4390910000000 1.0
C      1  0.5993400000000  0.4793580000000  0.4976900000000 1.0
C      1  0.5567050000000  0.4805390000000  0.5255430000000 1.0
C      1  0.4284850000000  0.5215740000000  0.4930620000000 1.0
C      1  0.5252830000000  0.4302550000000  0.4612330000000 1.0
C      1  0.5424260000000  0.5273160000000  0.5697320000000 1.0
C      1  0.6073310000000  0.4988220000000  0.5158160000000 1.0
C      1  0.5099260000000  0.4953820000000  0.5868250000000 1.0
C      1  0.5003190000000  0.4139310000000  0.5515920000000 1.0
C      1  0.5020920000000  0.4389200000000  0.5635890000000 1.0
C      1  0.4820370000000  0.4512780000000  0.4474360000000 1.0
C      1  0.5740630000000  0.5157720000000  0.4476850000000 1.0
C      1  0.5161490000000  0.4509620000000  0.4807280000000 1.0
C      1  0.5400160000000  0.5417570000000  0.5455700000000 1.0
C      1  0.4948840000000  0.5750680000000  0.5430910000000 1.0
C      1  0.4485090000000  0.5867810000000  0.4985930000000 1.0
C      1  0.4522070000000  0.5249770000000  0.5847210000000 1.0
C      1  0.5249200000000  0.4416450000000  0.5104820000000 1.0
C      1  0.5336880000000  0.5223630000000  0.4199710000000 1.0
C      1  0.5369430000000  0.4088160000000  0.4774880000000 1.0
C      1  0.4589090000000  0.4167740000000  0.4911890000000 1.0
C      1  0.4277770000000  0.5670720000000  0.4996300000000 1.0
C      1  0.4730050000000  0.4250970000000  0.5135890000000 1.0
C      1  0.4267800000000  0.5476030000000  0.4782810000000 1.0
C      1  0.4659470000000  0.5053160000000  0.5199670000000 1.0
C      1  0.5844320000000  0.4893780000000  0.4529620000000 1.0
C      1  0.4547270000000  0.5981110000000  0.5233170000000 1.0
C      1  0.4443350000000  0.4332980000000  0.4742840000000 1.0
C      1  0.4480940000000  0.5484030000000  0.4568940000000 1.0
C      1  0.4189670000000  0.4412850000000  0.5129920000000 1.0
C      1  0.4409280000000  0.4823250000000  0.5676480000000 1.0
C      1  0.4361310000000  0.5100160000000  0.5337890000000 1.0
C      1  0.5679300000000  0.4404670000000  0.4973650000000 1.0
C      1  0.5217220000000  0.5482070000000  0.4918540000000 1.0
C      1  0.4862820000000  0.4742950000000  0.4701880000000 1.0
C      1  0.4950330000000  0.5353520000000  0.4676180000000 1.0
C      1  0.5291970000000  0.4833920000000  0.4450430000000 1.0
C      1  0.4847070000000  0.4605110000000  0.5507490000000 1.0
C      1  0.5016620000000  0.5888050000000  0.4944670000000 1.0
C      1  0.5458640000000  0.4237290000000  0.5002300000000 1.0
C      1  0.5548260000000  0.5599660000000  0.5297730000000 1.0
C      1  0.5972670000000  0.5012880000000  0.5405480000000 1.0
C      1  0.4692540000000  0.4762920000000  0.5708290000000 1.0
C      1  0.5521350000000  0.5241310000000  0.4658250000000 1.0
C      1  0.4939580000000  0.5579240000000  0.4470400000000 1.0
C      1  0.5754980000000  0.4753180000000  0.4295790000000 1.0
C      1  0.4666300000000  0.5769160000000  0.5377260000000 1.0
C      1  0.5486610000000  0.4648570000000  0.4310860000000 1.0
C      1  0.5157570000000  0.5751870000000  0.4509040000000 1.0
C      1  0.5618240000000  0.5105410000000  0.4208560000000 1.0
C      1  0.4657820000000  0.4518940000000  0.5250150000000 1.0
C      1  0.5150540000000  0.5233490000000  0.5785470000000 1.0
C      1  0.4273270000000  0.4740010000000  0.5445490000000 1.0
C      1  0.4763120000000  0.5111260000000  0.4280520000000 1.0
END
