TITL C-951337-3020-474 -2.00125105103055e-07 125000 -671.269038519589 0 0 109 (C1) n - 1
REM
REM in /home/bkarasulu/work/CARBON/AIRSS/Generating-Clusters/EDIP-Nigel-Params/with-SteepDescent/Only-C1/SD-CG/HFTN-CG
REM
REM
REM
REM
REM
REM ./C.cell (11c1c37f851c82e70ff6c80c92926a4b)
REM
REM compiler GCC version 9.2.1 20190827 (Red Hat 9.2.1-1)
REM options -cpp -mtune=generic -march=x86-64 -g -O0 -fpre-include=/usr/include/finclude/math-vector-fortran.h
REM seed -1855501950 1941422585 164971176 -1563221385 -1966129551 1735720335 654924254 492080916 1639832499 1920592331 634909049 -1497857514 -1760540617 -1350187646 -665552970 -1006144421 1217101464 1703066527 1640920763 -1830283674 -1290575063 2042686334 -527393317 1471752643 210330564 -1725685023 1513514649 -1565922416 -1739812259 -1762979586 1343492450 -1536482175 1823729960
REM
CELL 1.54180   50.00000   50.00000   50.00000   90.00000   90.00000   90.00000
LATT -1
SFAC C  
C      1  0.4750440000000  0.4584470000000  0.4293680000000 1.0
C      1  0.4376540000000  0.5810610000000  0.4636480000000 1.0
C      1  0.4911140000000  0.4403450000000  0.5080540000000 1.0
C      1  0.4902290000000  0.5762010000000  0.4903900000000 1.0
C      1  0.4323470000000  0.5381920000000  0.5109350000000 1.0
C      1  0.5636610000000  0.4391000000000  0.5404010000000 1.0
C      1  0.4224090000000  0.5104960000000  0.4757450000000 1.0
C      1  0.4247730000000  0.4617440000000  0.4849230000000 1.0
C      1  0.4606030000000  0.5714160000000  0.4477600000000 1.0
C      1  0.5104020000000  0.5770960000000  0.4444080000000 1.0
C      1  0.4319690000000  0.4394340000000  0.5325020000000 1.0
C      1  0.5353730000000  0.5641100000000  0.4458050000000 1.0
C      1  0.5404900000000  0.5201740000000  0.4808490000000 1.0
C      1  0.4502570000000  0.5612030000000  0.5233290000000 1.0
C      1  0.5026650000000  0.4249710000000  0.5639550000000 1.0
C      1  0.4386300000000  0.5243480000000  0.5745520000000 1.0
C      1  0.4151160000000  0.5215150000000  0.5296450000000 1.0
C      1  0.4936820000000  0.4784840000000  0.4181520000000 1.0
C      1  0.5102900000000  0.5649520000000  0.5646650000000 1.0
C      1  0.5014880000000  0.5413380000000  0.5250700000000 1.0
C      1  0.5408920000000  0.4970290000000  0.4169470000000 1.0
C      1  0.4872170000000  0.5803640000000  0.4597370000000 1.0
C      1  0.5577660000000  0.4987310000000  0.4413560000000 1.0
C      1  0.5766950000000  0.4391390000000  0.4651400000000 1.0
C      1  0.4517770000000  0.4988320000000  0.5821600000000 1.0
C      1  0.5491440000000  0.5519800000000  0.5429450000000 1.0
C      1  0.5638810000000  0.5370930000000  0.4702930000000 1.0
C      1  0.5678580000000  0.4528790000000  0.4426660000000 1.0
C      1  0.5448370000000  0.5425150000000  0.4276820000000 1.0
C      1  0.4325360000000  0.4390970000000  0.5023570000000 1.0
C      1  0.5444240000000  0.5202240000000  0.5116140000000 1.0
C      1  0.4562590000000  0.4739330000000  0.4495460000000 1.0
C      1  0.4781110000000  0.4056200000000  0.4790260000000 1.0
C      1  0.5270300000000  0.4656820000000  0.5779570000000 1.0
C      1  0.5830190000000  0.4853890000000  0.5112770000000 1.0
C      1  0.4949400000000  0.5461610000000  0.4932570000000 1.0
C      1  0.4719610000000  0.5291610000000  0.4526730000000 1.0
C      1  0.4434750000000  0.5524300000000  0.4304990000000 1.0
C      1  0.4168270000000  0.5230070000000  0.5572270000000 1.0
C      1  0.4567900000000  0.5449980000000  0.5640420000000 1.0
C      1  0.5683550000000  0.4378470000000  0.4914230000000 1.0
C      1  0.5190260000000  0.4741290000000  0.5069430000000 1.0
C      1  0.4734900000000  0.5020540000000  0.5440590000000 1.0
C      1  0.5041350000000  0.4470950000000  0.5839700000000 1.0
C      1  0.4989880000000  0.4814190000000  0.4679980000000 1.0
C      1  0.5609640000000  0.4985860000000  0.5258970000000 1.0
C      1  0.5053330000000  0.4947670000000  0.4423830000000 1.0
C      1  0.4316210000000  0.4607430000000  0.4574260000000 1.0
C      1  0.4436930000000  0.4729800000000  0.5704590000000 1.0
C      1  0.5748610000000  0.4545210000000  0.5150290000000 1.0
C      1  0.4458180000000  0.5669130000000  0.5504200000000 1.0
C      1  0.4529130000000  0.5181890000000  0.4981040000000 1.0
C      1  0.4437700000000  0.5907480000000  0.4888670000000 1.0
C      1  0.5019000000000  0.5256050000000  0.4460480000000 1.0
C      1  0.5496400000000  0.5271560000000  0.5600980000000 1.0
C      1  0.5803680000000  0.4797180000000  0.4414660000000 1.0
C      1  0.5418620000000  0.4935390000000  0.4672570000000 1.0
C      1  0.4555590000000  0.4718750000000  0.5147780000000 1.0
C      1  0.5867010000000  0.5421810000000  0.5127620000000 1.0
C      1  0.5197760000000  0.4329900000000  0.5409910000000 1.0
C      1  0.5172580000000  0.5164550000000  0.5252560000000 1.0
C      1  0.5159960000000  0.5876160000000  0.5312580000000 1.0
C      1  0.5163060000000  0.4934670000000  0.5829140000000 1.0
C      1  0.4347300000000  0.4678250000000  0.5427530000000 1.0
C      1  0.5206600000000  0.5614820000000  0.5391430000000 1.0
C      1  0.5252930000000  0.4717990000000  0.4177430000000 1.0
C      1  0.5426680000000  0.4742650000000  0.5257380000000 1.0
C      1  0.4742960000000  0.4511500000000  0.5316030000000 1.0
C      1  0.5880210000000  0.5295410000000  0.4874080000000 1.0
C      1  0.4681310000000  0.4440810000000  0.4881090000000 1.0
C      1  0.5476160000000  0.4190900000000  0.4986110000000 1.0
C      1  0.4805290000000  0.5314280000000  0.5517030000000 1.0
C      1  0.5383810000000  0.4508620000000  0.4365150000000 1.0
C      1  0.4464610000000  0.5247090000000  0.4239290000000 1.0
C      1  0.4706900000000  0.4982100000000  0.5150550000000 1.0
C      1  0.5155690000000  0.5879770000000  0.5027280000000 1.0
C      1  0.4204910000000  0.5578110000000  0.4611610000000 1.0
C      1  0.5682690000000  0.5075240000000  0.5524130000000 1.0
C      1  0.4754530000000  0.4168790000000  0.4545580000000 1.0
C      1  0.5588750000000  0.5461260000000  0.5163140000000 1.0
C      1  0.4635750000000  0.5822300000000  0.5062890000000 1.0
C      1  0.4990080000000  0.4136120000000  0.4968470000000 1.0
C      1  0.5236910000000  0.4709340000000  0.4776720000000 1.0
C      1  0.5437830000000  0.4178220000000  0.5285850000000 1.0
C      1  0.4707130000000  0.5337690000000  0.4819530000000 1.0
C      1  0.4202300000000  0.4888760000000  0.4943530000000 1.0
C      1  0.4519440000000  0.4218970000000  0.5450250000000 1.0
C      1  0.4170170000000  0.5385850000000  0.4828240000000 1.0
C      1  0.4722640000000  0.4706860000000  0.4738150000000 1.0
C      1  0.5929330000000  0.4997950000000  0.4874000000000 1.0
C      1  0.5663180000000  0.5277030000000  0.4420910000000 1.0
C      1  0.5238620000000  0.4176430000000  0.4806180000000 1.0
C      1  0.5524650000000  0.5658720000000  0.4697830000000 1.0
C      1  0.5974810000000  0.4858000000000  0.4630680000000 1.0
C      1  0.5151990000000  0.5349510000000  0.4725330000000 1.0
C      1  0.5013240000000  0.4975610000000  0.5092720000000 1.0
C      1  0.4532430000000  0.5047550000000  0.4442930000000 1.0
C      1  0.4757310000000  0.4180220000000  0.5590430000000 1.0
C      1  0.4102650000000  0.4960490000000  0.5193470000000 1.0
C      1  0.5193990000000  0.4426250000000  0.4591910000000 1.0
C      1  0.5021710000000  0.5377710000000  0.5717870000000 1.0
C      1  0.5217570000000  0.5168030000000  0.5643210000000 1.0
C      1  0.5383670000000  0.4560320000000  0.5503060000000 1.0
C      1  0.4914150000000  0.4371160000000  0.4438970000000 1.0
C      1  0.4879300000000  0.4923220000000  0.5926070000000 1.0
C      1  0.5395070000000  0.5777030000000  0.4918520000000 1.0
C      1  0.5260950000000  0.5225390000000  0.4171330000000 1.0
C      1  0.4834560000000  0.4737510000000  0.5507850000000 1.0
C      1  0.4807530000000  0.4665360000000  0.5794610000000 1.0
END
