TITL C-951334-9093-379 3.54760326017068e-08 125000 -161.66907641301 0 0 27 (C1) n - 1
REM
REM in /home/bkarasulu/work/CARBON/AIRSS/Generating-Clusters/EDIP-Nigel-Params/with-SteepDescent/Only-C1/SD-CG/HFTN-CG
REM
REM
REM
REM
REM
REM ./C.cell (11c1c37f851c82e70ff6c80c92926a4b)
REM
REM compiler GCC version 9.2.1 20190827 (Red Hat 9.2.1-1)
REM options -cpp -mtune=generic -march=x86-64 -g -O0 -fpre-include=/usr/include/finclude/math-vector-fortran.h
REM seed 1034395115 -2000063075 167299625 -1917997804 -1477467056 -1903993921 -1364360419 1248020481 -974523531 -1744315294 -1119752254 92650833 -640144854 -1347824720 -656241270 -2014623932 -453042753 2060403072 2145163117 341174220 1302288854 -166639966 1879062406 1379442771 1654514770 1307077336 1017271545 455291719 208129872 1970680928 156113277 -194735701 -1015125936
REM
CELL 1.54180   50.00000   50.00000   50.00000   90.00000   90.00000   90.00000
LATT -1
SFAC C  
C      1  0.5285210000000  0.5256010000000  0.5316090000000 1.0
C      1  0.5011520000000  0.5362680000000  0.5272590000000 1.0
C      1  0.5062040000000  0.5015440000000  0.4877440000000 1.0
C      1  0.4824240000000  0.5293300000000  0.5470050000000 1.0
C      1  0.4469520000000  0.5394100000000  0.5046370000000 1.0
C      1  0.5035970000000  0.4527760000000  0.4760150000000 1.0
C      1  0.5276100000000  0.4943800000000  0.5371750000000 1.0
C      1  0.4610470000000  0.4939570000000  0.5190390000000 1.0
C      1  0.4767910000000  0.5023590000000  0.5419340000000 1.0
C      1  0.4918280000000  0.4606180000000  0.5260340000000 1.0
C      1  0.4992190000000  0.4829630000000  0.5451820000000 1.0
C      1  0.5077100000000  0.4694310000000  0.4538650000000 1.0
C      1  0.5213230000000  0.5457310000000  0.4858290000000 1.0
C      1  0.5258550000000  0.5394090000000  0.4587260000000 1.0
C      1  0.5412020000000  0.5306530000000  0.5043990000000 1.0
C      1  0.5101660000000  0.4660520000000  0.5027120000000 1.0
C      1  0.4589340000000  0.4511790000000  0.4921330000000 1.0
C      1  0.4446260000000  0.5118810000000  0.5037820000000 1.0
C      1  0.4641510000000  0.4651000000000  0.5159240000000 1.0
C      1  0.4783800000000  0.4409160000000  0.4765000000000 1.0
C      1  0.5492500000000  0.4996650000000  0.4651620000000 1.0
C      1  0.5050010000000  0.4970790000000  0.4579790000000 1.0
C      1  0.4968530000000  0.5306780000000  0.4974020000000 1.0
C      1  0.5286830000000  0.5127850000000  0.4498440000000 1.0
C      1  0.4691100000000  0.5371240000000  0.4882020000000 1.0
C      1  0.5373050000000  0.5029580000000  0.4921930000000 1.0
C      1  0.5361050000000  0.4801520000000  0.5117140000000 1.0
END
