TITL C-951344-124-658 -7.42357077907014e-08 125000 -135.034538544166 0 0 24 (C1) n - 1
REM
REM in /home/bkarasulu/work/CARBON/AIRSS/Generating-Clusters/EDIP-Nigel-Params/with-SteepDescent/Only-C1/SD-CG/HFTN-CG
REM
REM
REM
REM
REM
REM ./C.cell (11c1c37f851c82e70ff6c80c92926a4b)
REM
REM compiler GCC version 9.2.1 20190827 (Red Hat 9.2.1-1)
REM options -cpp -mtune=generic -march=x86-64 -g -O0 -fpre-include=/usr/include/finclude/math-vector-fortran.h
REM seed 1740234017 1832199628 1652439467 1385492732 392963028 1342453284 1811610438 -1132749122 1850277181 -534299854 584780279 -1415928723 -1033982343 1071039709 -600482050 -1020817560 1513319974 -2126964752 -835224887 -133856773 291843781 -1869099045 273418016 621651178 -239421575 469807747 565586584 900001932 12279306 1517993087 2068274575 896212789 -357624430
REM
CELL 1.54180   50.00000   50.00000   50.00000   90.00000   90.00000   90.00000
LATT -1
SFAC C  
C      1  0.4798400000000  0.5098570000000  0.4905500000000 1.0
C      1  0.4817600000000  0.5074890000000  0.5208200000000 1.0
C      1  0.5043110000000  0.5001500000000  0.4777530000000 1.0
C      1  0.5014080000000  0.4821590000000  0.4564700000000 1.0
C      1  0.5135360000000  0.5505560000000  0.5102560000000 1.0
C      1  0.4545720000000  0.4975960000000  0.4789000000000 1.0
C      1  0.4942450000000  0.4817220000000  0.5322860000000 1.0
C      1  0.5445730000000  0.4790040000000  0.5297500000000 1.0
C      1  0.4595100000000  0.4934620000000  0.4395490000000 1.0
C      1  0.4736410000000  0.4548790000000  0.4964720000000 1.0
C      1  0.4451540000000  0.5109410000000  0.4549830000000 1.0
C      1  0.5713480000000  0.5118770000000  0.5038580000000 1.0
C      1  0.4757460000000  0.4721170000000  0.4501370000000 1.0
C      1  0.5543690000000  0.4982600000000  0.4843120000000 1.0
C      1  0.4556590000000  0.5162420000000  0.5362550000000 1.0
C      1  0.4583980000000  0.5400310000000  0.5511530000000 1.0
C      1  0.5580690000000  0.5345520000000  0.5150410000000 1.0
C      1  0.5294190000000  0.5120030000000  0.4856020000000 1.0
C      1  0.4825490000000  0.5344980000000  0.5376670000000 1.0
C      1  0.4824650000000  0.4572750000000  0.5223730000000 1.0
C      1  0.5316550000000  0.5317420000000  0.5062230000000 1.0
C      1  0.4599300000000  0.4670080000000  0.4753390000000 1.0
C      1  0.5193680000000  0.4693720000000  0.5253100000000 1.0
C      1  0.5684770000000  0.4872070000000  0.5189420000000 1.0
END
