TITL C-950523-3027-328 1.04217866451987e-06 125000 -200.141777440578 0 0 34 (C1) n - 1
REM
REM in /home/bkarasulu/work/CARBON/AIRSS/Generating-Clusters/EDIP-Nigel-Params/with-SteepDescent/Only-C1/SD-CG/HFTN-CG
REM
REM
REM
REM
REM
REM ./C.cell (11c1c37f851c82e70ff6c80c92926a4b)
REM
REM compiler GCC version 9.2.1 20190827 (Red Hat 9.2.1-1)
REM options -cpp -mtune=generic -march=x86-64 -g -O0 -fpre-include=/usr/include/finclude/math-vector-fortran.h
REM seed -47400989 -227789307 528121506 341583255 741804622 1447132206 521986651 1300672067 -488360887 426626109 -548501246 -1361933751 -358282232 964434584 -1470253673 1328682302 1595401199 -1732979949 271101247 656890611 -1135295627 87259656 451101929 1635550897 931011489 -445779370 -1656960515 1195761804 1397914489 -1624718889 1600093736 -4506776 -1522438412
REM
CELL 1.54180   50.00000   50.00000   50.00000   90.00000   90.00000   90.00000
LATT -1
SFAC C  
C      1  0.4895460000000  0.5558150000000  0.5184070000000 1.0
C      1  0.4716770000000  0.4805120000000  0.5205690000000 1.0
C      1  0.4888940000000  0.4863490000000  0.5439120000000 1.0
C      1  0.4820720000000  0.4371850000000  0.5005760000000 1.0
C      1  0.4379290000000  0.5506310000000  0.4421700000000 1.0
C      1  0.4842350000000  0.4739100000000  0.4706920000000 1.0
C      1  0.5293830000000  0.4573010000000  0.4671490000000 1.0
C      1  0.5616500000000  0.5016650000000  0.4782910000000 1.0
C      1  0.4980180000000  0.5282970000000  0.5636270000000 1.0
C      1  0.5471120000000  0.5059170000000  0.4561700000000 1.0
C      1  0.5197720000000  0.5027640000000  0.4506020000000 1.0
C      1  0.5161070000000  0.5471500000000  0.5229740000000 1.0
C      1  0.5577180000000  0.4942590000000  0.5044200000000 1.0
C      1  0.5135250000000  0.4755600000000  0.5502790000000 1.0
C      1  0.5380920000000  0.4704630000000  0.5398350000000 1.0
C      1  0.4849900000000  0.4906330000000  0.4949620000000 1.0
C      1  0.5240320000000  0.5228940000000  0.5065930000000 1.0
C      1  0.5219090000000  0.5332120000000  0.5494650000000 1.0
C      1  0.4537260000000  0.5148630000000  0.5455930000000 1.0
C      1  0.5352310000000  0.5087600000000  0.5326670000000 1.0
C      1  0.4759080000000  0.4471360000000  0.4751420000000 1.0
C      1  0.5022290000000  0.5225270000000  0.4624140000000 1.0
C      1  0.5101340000000  0.4750390000000  0.4558160000000 1.0
C      1  0.5428990000000  0.4707680000000  0.5118420000000 1.0
C      1  0.4982130000000  0.5175930000000  0.4912020000000 1.0
C      1  0.4804190000000  0.5402960000000  0.4970660000000 1.0
C      1  0.4632120000000  0.5399920000000  0.4495300000000 1.0
C      1  0.4786450000000  0.5092600000000  0.5571890000000 1.0
C      1  0.4780540000000  0.5517850000000  0.4707420000000 1.0
C      1  0.5098320000000  0.4354160000000  0.5045000000000 1.0
C      1  0.5311230000000  0.4506300000000  0.4943660000000 1.0
C      1  0.4585370000000  0.5536790000000  0.4250990000000 1.0
C      1  0.4476230000000  0.4959350000000  0.5266290000000 1.0
C      1  0.4675540000000  0.4518030000000  0.5195110000000 1.0
END
