TITL C-951334-9093-584 -6.0030343072044e-06 125000 -598.683148008739 0 0 98 (C1) n - 1
REM
REM in /home/bkarasulu/work/CARBON/AIRSS/Generating-Clusters/EDIP-Nigel-Params/with-SteepDescent/Only-C1/SD-CG/HFTN-CG
REM
REM
REM
REM
REM
REM ./C.cell (11c1c37f851c82e70ff6c80c92926a4b)
REM
REM compiler GCC version 9.2.1 20190827 (Red Hat 9.2.1-1)
REM options -cpp -mtune=generic -march=x86-64 -g -O0 -fpre-include=/usr/include/finclude/math-vector-fortran.h
REM seed 1311772811 -982337480 -1812411875 -71196124 -985046552 246459734 -925167483 -199169314 1582560539 176990501 -450949794 108503520 -789939120 -597176208 -715148243 -1452829321 1993001591 1167006989 -1209593169 -33823160 -1774941004 1387122560 -2004966187 -1972618255 1919567700 -1450485781 -1050499225 -1280478637 724655574 1414174418 1795875903 -1989351941 -1067443239
REM
CELL 1.54180   50.00000   50.00000   50.00000   90.00000   90.00000   90.00000
LATT -1
SFAC C  
C      1  0.4187760000000  0.4780420000000  0.5055960000000 1.0
C      1  0.5592440000000  0.4452570000000  0.4720010000000 1.0
C      1  0.4841740000000  0.4572000000000  0.5085940000000 1.0
C      1  0.4239870000000  0.4700540000000  0.4788670000000 1.0
C      1  0.4679020000000  0.5722480000000  0.5215110000000 1.0
C      1  0.4977470000000  0.5801320000000  0.4785740000000 1.0
C      1  0.4647950000000  0.4254330000000  0.4959680000000 1.0
C      1  0.5348120000000  0.4911230000000  0.5711170000000 1.0
C      1  0.4835640000000  0.4244240000000  0.5518100000000 1.0
C      1  0.4192230000000  0.5071710000000  0.5165730000000 1.0
C      1  0.5189540000000  0.4977180000000  0.4534420000000 1.0
C      1  0.4929260000000  0.4146210000000  0.5021430000000 1.0
C      1  0.5355340000000  0.4849480000000  0.4333280000000 1.0
C      1  0.5017520000000  0.4133630000000  0.5307580000000 1.0
C      1  0.4512980000000  0.5467920000000  0.5120310000000 1.0
C      1  0.4937060000000  0.5301980000000  0.4690180000000 1.0
C      1  0.5734300000000  0.5623290000000  0.4814430000000 1.0
C      1  0.4780200000000  0.5297340000000  0.4223160000000 1.0
C      1  0.5618060000000  0.5262960000000  0.4388240000000 1.0
C      1  0.5399610000000  0.4326970000000  0.4884170000000 1.0
C      1  0.4686980000000  0.4436460000000  0.4706830000000 1.0
C      1  0.5472410000000  0.4312180000000  0.5162170000000 1.0
C      1  0.4636930000000  0.4971070000000  0.4917400000000 1.0
C      1  0.5283380000000  0.5798020000000  0.5158330000000 1.0
C      1  0.5003180000000  0.4300820000000  0.4560640000000 1.0
C      1  0.5657750000000  0.5247350000000  0.5170140000000 1.0
C      1  0.5158120000000  0.4892780000000  0.5933650000000 1.0
C      1  0.5050320000000  0.5173660000000  0.5912690000000 1.0
C      1  0.4547040000000  0.4232470000000  0.5456940000000 1.0
C      1  0.4934950000000  0.4445390000000  0.5702600000000 1.0
C      1  0.5748650000000  0.4718600000000  0.5089870000000 1.0
C      1  0.5129040000000  0.4230460000000  0.4814350000000 1.0
C      1  0.4478820000000  0.4352920000000  0.5197830000000 1.0
C      1  0.5834660000000  0.4888700000000  0.4643210000000 1.0
C      1  0.4384140000000  0.4322740000000  0.5668600000000 1.0
C      1  0.4776530000000  0.4892190000000  0.3966000000000 1.0
C      1  0.4406870000000  0.5048650000000  0.5790530000000 1.0
C      1  0.4626080000000  0.4959370000000  0.5385780000000 1.0
C      1  0.4508660000000  0.4838220000000  0.5634430000000 1.0
C      1  0.5568120000000  0.5374050000000  0.5419020000000 1.0
C      1  0.4612690000000  0.4911040000000  0.4629710000000 1.0
C      1  0.5054820000000  0.4569670000000  0.5315510000000 1.0
C      1  0.5123710000000  0.4905330000000  0.5495290000000 1.0
C      1  0.4881790000000  0.5116660000000  0.4949040000000 1.0
C      1  0.4737230000000  0.5452590000000  0.4886890000000 1.0
C      1  0.5219910000000  0.4811600000000  0.5229390000000 1.0
C      1  0.4634790000000  0.5425490000000  0.5777380000000 1.0
C      1  0.4392540000000  0.5298660000000  0.5633880000000 1.0
C      1  0.5356410000000  0.5501570000000  0.5563560000000 1.0
C      1  0.5899120000000  0.5379620000000  0.4774560000000 1.0
C      1  0.5180160000000  0.4364910000000  0.4337970000000 1.0
C      1  0.4266960000000  0.5482620000000  0.4941520000000 1.0
C      1  0.5668730000000  0.4549760000000  0.5535920000000 1.0
C      1  0.4469920000000  0.4649340000000  0.4633790000000 1.0
C      1  0.4882960000000  0.5096590000000  0.5483480000000 1.0
C      1  0.4994010000000  0.4674880000000  0.5844360000000 1.0
C      1  0.4538400000000  0.5199630000000  0.4314490000000 1.0
C      1  0.4388210000000  0.4591340000000  0.5664410000000 1.0
C      1  0.4433350000000  0.5197620000000  0.5333700000000 1.0
C      1  0.4296090000000  0.4578710000000  0.5229850000000 1.0
C      1  0.4774330000000  0.5633200000000  0.5663250000000 1.0
C      1  0.4549980000000  0.5679010000000  0.4590340000000 1.0
C      1  0.4829260000000  0.5705270000000  0.4538080000000 1.0
C      1  0.4999660000000  0.4652280000000  0.4814550000000 1.0
C      1  0.5180380000000  0.5165850000000  0.3960410000000 1.0
C      1  0.5303280000000  0.5395440000000  0.4058660000000 1.0
C      1  0.5325780000000  0.5025680000000  0.4802730000000 1.0
C      1  0.5742790000000  0.4974230000000  0.5202650000000 1.0
C      1  0.4090460000000  0.5270440000000  0.4995890000000 1.0
C      1  0.5765000000000  0.5161210000000  0.4622560000000 1.0
C      1  0.4891390000000  0.5617500000000  0.5406500000000 1.0
C      1  0.5273430000000  0.4253570000000  0.5355530000000 1.0
C      1  0.5186460000000  0.5707060000000  0.5409710000000 1.0
C      1  0.5896050000000  0.5383240000000  0.5066760000000 1.0
C      1  0.5482280000000  0.5074000000000  0.4182300000000 1.0
C      1  0.4915360000000  0.4823670000000  0.4555420000000 1.0
C      1  0.5198050000000  0.5332550000000  0.5166920000000 1.0
C      1  0.5114590000000  0.4906380000000  0.4967280000000 1.0
C      1  0.5746350000000  0.4674620000000  0.4803580000000 1.0
C      1  0.4617230000000  0.4773020000000  0.5138090000000 1.0
C      1  0.5451690000000  0.5544250000000  0.4778820000000 1.0
C      1  0.5200960000000  0.4629820000000  0.4203540000000 1.0
C      1  0.4953320000000  0.5338510000000  0.5318120000000 1.0
C      1  0.4908830000000  0.4643180000000  0.4309260000000 1.0
C      1  0.5443270000000  0.5478890000000  0.4483280000000 1.0
C      1  0.4361320000000  0.5475680000000  0.4661500000000 1.0
C      1  0.4907290000000  0.5127330000000  0.4028650000000 1.0
C      1  0.5407110000000  0.5281900000000  0.4963740000000 1.0
C      1  0.4947440000000  0.5453530000000  0.4421460000000 1.0
C      1  0.4780800000000  0.5156090000000  0.5774160000000 1.0
C      1  0.5259630000000  0.5758730000000  0.4880050000000 1.0
C      1  0.4794300000000  0.5855380000000  0.4993720000000 1.0
C      1  0.4390550000000  0.5210350000000  0.4543040000000 1.0
C      1  0.5537260000000  0.4707530000000  0.5706300000000 1.0
C      1  0.5227110000000  0.5355940000000  0.5775840000000 1.0
C      1  0.4711650000000  0.4669470000000  0.4099300000000 1.0
C      1  0.5673160000000  0.4497530000000  0.5262300000000 1.0
C      1  0.5221650000000  0.5516110000000  0.4306670000000 1.0
END
