TITL C-950530-3293-51 -1.25915193048773e-06 125000 -435.291793340317 0 0 71 (C1) n - 1
REM
REM in /home/bkarasulu/work/CARBON/AIRSS/Generating-Clusters/EDIP-Nigel-Params/with-SteepDescent/Only-C1/SD-CG/HFTN-CG
REM
REM
REM
REM
REM
REM ./C.cell (11c1c37f851c82e70ff6c80c92926a4b)
REM
REM compiler GCC version 9.2.1 20190827 (Red Hat 9.2.1-1)
REM options -cpp -mtune=generic -march=x86-64 -g -O0 -fpre-include=/usr/include/finclude/math-vector-fortran.h
REM seed 1115850453 1250022121 -440010292 1096545085 -1210551936 366700916 -30733268 -321316792 -37718054 1683608559 -1647253982 1329966508 -391262206 1059591623 -1177106788 2013909600 -1794610973 965615793 46716957 2002834326 -579443716 1598117139 1534973524 1984459845 -735506572 -815386545 -2039165234 1477240253 -81387605 -918048338 333884805 1897745216 -513529323
REM
CELL 1.54180   50.00000   50.00000   50.00000   90.00000   90.00000   90.00000
LATT -1
SFAC C  
C      1  0.5035690000000  0.4876620000000  0.4313630000000 1.0
C      1  0.5231900000000  0.5186510000000  0.5179250000000 1.0
C      1  0.4290090000000  0.5157280000000  0.5359290000000 1.0
C      1  0.5015940000000  0.4107200000000  0.4932340000000 1.0
C      1  0.5186930000000  0.4935180000000  0.5669230000000 1.0
C      1  0.5666220000000  0.4917410000000  0.4536570000000 1.0
C      1  0.4966110000000  0.5463290000000  0.5581610000000 1.0
C      1  0.4352370000000  0.4625140000000  0.4796310000000 1.0
C      1  0.4557700000000  0.5100970000000  0.5544270000000 1.0
C      1  0.5719550000000  0.4601790000000  0.4859370000000 1.0
C      1  0.4554450000000  0.4971240000000  0.4496310000000 1.0
C      1  0.4765750000000  0.5268610000000  0.4177010000000 1.0
C      1  0.4554340000000  0.5193300000000  0.4714800000000 1.0
C      1  0.5509120000000  0.4420250000000  0.4871770000000 1.0
C      1  0.5269810000000  0.5032090000000  0.4263290000000 1.0
C      1  0.4661740000000  0.4840940000000  0.5395730000000 1.0
C      1  0.5379530000000  0.5727640000000  0.5437990000000 1.0
C      1  0.4709270000000  0.5039790000000  0.5814300000000 1.0
C      1  0.4705900000000  0.4357040000000  0.5202480000000 1.0
C      1  0.5640270000000  0.4846960000000  0.5327940000000 1.0
C      1  0.4641020000000  0.5465010000000  0.5226590000000 1.0
C      1  0.5313580000000  0.5550000000000  0.4526690000000 1.0
C      1  0.5048180000000  0.4544110000000  0.5512650000000 1.0
C      1  0.4359340000000  0.5392380000000  0.5168910000000 1.0
C      1  0.4375230000000  0.4724600000000  0.5055760000000 1.0
C      1  0.4943970000000  0.4300170000000  0.5387600000000 1.0
C      1  0.4612660000000  0.5471910000000  0.4586340000000 1.0
C      1  0.4806980000000  0.4929900000000  0.5123830000000 1.0
C      1  0.5572490000000  0.5336000000000  0.4882710000000 1.0
C      1  0.4864930000000  0.5869140000000  0.4730460000000 1.0
C      1  0.5001020000000  0.5098970000000  0.5831510000000 1.0
C      1  0.5665730000000  0.5068750000000  0.5009860000000 1.0
C      1  0.5070680000000  0.5389480000000  0.4516230000000 1.0
C      1  0.4824160000000  0.5458780000000  0.4375600000000 1.0
C      1  0.5134390000000  0.5463780000000  0.5122770000000 1.0
C      1  0.5397740000000  0.5573700000000  0.4988130000000 1.0
C      1  0.5163480000000  0.4191100000000  0.5188280000000 1.0
C      1  0.4755370000000  0.4999590000000  0.4266260000000 1.0
C      1  0.4788910000000  0.4646170000000  0.4674800000000 1.0
C      1  0.5131820000000  0.5605880000000  0.5385450000000 1.0
C      1  0.5739030000000  0.4869530000000  0.4799540000000 1.0
C      1  0.4834430000000  0.5444710000000  0.5004690000000 1.0
C      1  0.5057630000000  0.5377640000000  0.5832940000000 1.0
C      1  0.4440340000000  0.4709430000000  0.4546970000000 1.0
C      1  0.4502710000000  0.4592850000000  0.5286170000000 1.0
C      1  0.5462310000000  0.5003670000000  0.5565930000000 1.0
C      1  0.5037260000000  0.5079920000000  0.4729520000000 1.0
C      1  0.5478780000000  0.5196260000000  0.5330650000000 1.0
C      1  0.5507260000000  0.5341300000000  0.4591590000000 1.0
C      1  0.5072480000000  0.4956010000000  0.5243090000000 1.0
C      1  0.4612520000000  0.4201440000000  0.4718100000000 1.0
C      1  0.5464770000000  0.4605450000000  0.5306140000000 1.0
C      1  0.5495230000000  0.5101260000000  0.4424020000000 1.0
C      1  0.4723360000000  0.5640590000000  0.4801870000000 1.0
C      1  0.4855040000000  0.4742270000000  0.5617800000000 1.0
C      1  0.4721630000000  0.4146850000000  0.4973390000000 1.0
C      1  0.5520550000000  0.5723310000000  0.5204380000000 1.0
C      1  0.4727070000000  0.5341050000000  0.5467620000000 1.0
C      1  0.5458120000000  0.4341280000000  0.5152090000000 1.0
C      1  0.4235580000000  0.4974980000000  0.5106150000000 1.0
C      1  0.4310550000000  0.5212510000000  0.4916370000000 1.0
C      1  0.4816630000000  0.4357230000000  0.4595340000000 1.0
C      1  0.5236430000000  0.4515420000000  0.4773210000000 1.0
C      1  0.5043920000000  0.4807050000000  0.4602160000000 1.0
C      1  0.5123660000000  0.5931160000000  0.4749800000000 1.0
C      1  0.4805910000000  0.4656080000000  0.4978000000000 1.0
C      1  0.5074040000000  0.4534610000000  0.5037990000000 1.0
C      1  0.5083920000000  0.4267780000000  0.4684680000000 1.0
C      1  0.5180190000000  0.4677490000000  0.5284040000000 1.0
C      1  0.4803270000000  0.5156700000000  0.4894180000000 1.0
C      1  0.5331020000000  0.5745520000000  0.4747690000000 1.0
END
