TITL C-951334-9093-107 6.0763513004003e-05 125000 -283.706434500012 0 0 48 (C1) n - 1
REM
REM in /home/bkarasulu/work/CARBON/AIRSS/Generating-Clusters/EDIP-Nigel-Params/with-SteepDescent/Only-C1/SD-CG/HFTN-CG
REM
REM
REM
REM
REM
REM ./C.cell (11c1c37f851c82e70ff6c80c92926a4b)
REM
REM compiler GCC version 9.2.1 20190827 (Red Hat 9.2.1-1)
REM options -cpp -mtune=generic -march=x86-64 -g -O0 -fpre-include=/usr/include/finclude/math-vector-fortran.h
REM seed 1031512133 777965837 -476063785 -405332800 1061331876 462112846 -1033037491 1591561399 1827601798 1647867652 191230810 240544271 -1763689920 711164569 -1204513570 -1046678774 -488470304 895137688 1710386180 -11880193 -1875610574 2058744615 -236929299 1182575055 -1660668342 -1765238047 879644854 1775459934 -276384984 584604711 1379956096 1946297212 1081467710
REM
CELL 1.54180   50.00000   50.00000   50.00000   90.00000   90.00000   90.00000
LATT -1
SFAC C  
C      1  0.5034180000000  0.4815030000000  0.4671450000000 1.0
C      1  0.5152500000000  0.4913920000000  0.5361260000000 1.0
C      1  0.5417070000000  0.5131220000000  0.5262330000000 1.0
C      1  0.5587100000000  0.5092190000000  0.4792540000000 1.0
C      1  0.5005670000000  0.5321160000000  0.5277950000000 1.0
C      1  0.4992990000000  0.5590750000000  0.4610820000000 1.0
C      1  0.4381730000000  0.4996460000000  0.5161330000000 1.0
C      1  0.4719410000000  0.4643590000000  0.5227030000000 1.0
C      1  0.4690510000000  0.5482600000000  0.5007570000000 1.0
C      1  0.5452730000000  0.5440860000000  0.5351290000000 1.0
C      1  0.4876620000000  0.4909280000000  0.5173370000000 1.0
C      1  0.5771090000000  0.4970450000000  0.4978040000000 1.0
C      1  0.4862300000000  0.5065350000000  0.5731460000000 1.0
C      1  0.4896830000000  0.4422740000000  0.5123620000000 1.0
C      1  0.4573260000000  0.4838500000000  0.4791550000000 1.0
C      1  0.5193290000000  0.5670820000000  0.5076100000000 1.0
C      1  0.4615380000000  0.5232540000000  0.4592460000000 1.0
C      1  0.4818760000000  0.5700600000000  0.4179370000000 1.0
C      1  0.5067070000000  0.5249320000000  0.4963170000000 1.0
C      1  0.5063620000000  0.4880860000000  0.5650500000000 1.0
C      1  0.4975170000000  0.5539880000000  0.4891680000000 1.0
C      1  0.5660750000000  0.4954730000000  0.5242730000000 1.0
C      1  0.5580180000000  0.4693670000000  0.5302010000000 1.0
C      1  0.5301220000000  0.4663510000000  0.5298030000000 1.0
C      1  0.5552830000000  0.4575270000000  0.4801690000000 1.0
C      1  0.4858370000000  0.4961870000000  0.4843870000000 1.0
C      1  0.4630060000000  0.5085370000000  0.5311090000000 1.0
C      1  0.4471740000000  0.4733550000000  0.5053570000000 1.0
C      1  0.5106150000000  0.4581620000000  0.4555760000000 1.0
C      1  0.5175620000000  0.4505500000000  0.5091390000000 1.0
C      1  0.4937260000000  0.4625210000000  0.5673130000000 1.0
C      1  0.4955560000000  0.5499150000000  0.4345980000000 1.0
C      1  0.5170300000000  0.5552530000000  0.5361720000000 1.0
C      1  0.4563610000000  0.4653280000000  0.4597900000000 1.0
C      1  0.5349840000000  0.4394940000000  0.4880590000000 1.0
C      1  0.4800190000000  0.4234510000000  0.4942490000000 1.0
C      1  0.4691750000000  0.4673260000000  0.5533610000000 1.0
C      1  0.5376150000000  0.5233160000000  0.4967420000000 1.0
C      1  0.5562420000000  0.4825390000000  0.4680200000000 1.0
C      1  0.4636290000000  0.4965870000000  0.5586630000000 1.0
C      1  0.4301530000000  0.5178200000000  0.4961470000000 1.0
C      1  0.4958570000000  0.4171560000000  0.4733090000000 1.0
C      1  0.4717160000000  0.5378980000000  0.5285930000000 1.0
C      1  0.4596600000000  0.5525310000000  0.4190540000000 1.0
C      1  0.5177750000000  0.4325850000000  0.4649180000000 1.0
C      1  0.4544900000000  0.5276470000000  0.4857620000000 1.0
C      1  0.4714580000000  0.5300790000000  0.4342660000000 1.0
C      1  0.5461350000000  0.5522350000000  0.5034850000000 1.0
END
