TITL C-950522-5749-483 -2.25197635222958e-06 125000 -1129.50384395763 0 0 180 (C1) n - 1
REM
REM in /home/bkarasulu/work/CARBON/AIRSS/Generating-Clusters/EDIP-Nigel-Params/with-SteepDescent/Only-C1/SD-CG/HFTN-CG
REM
REM
REM
REM
REM
REM ./C.cell (11c1c37f851c82e70ff6c80c92926a4b)
REM
REM compiler GCC version 9.2.1 20190827 (Red Hat 9.2.1-1)
REM options -cpp -mtune=generic -march=x86-64 -g -O0 -fpre-include=/usr/include/finclude/math-vector-fortran.h
REM seed 389024528 1797254129 -1265578546 884256325 1015863301 -1707618388 -1644853140 -674333566 2068352782 -2059178770 174151962 -77074853 -463909335 -1097614749 1940736119 1130850676 1483209254 -1717420209 -68849962 102755252 847140423 -166896834 963263820 -914897467 -1463272946 1835917144 348876327 -1085648111 -138442628 -880819315 1815758172 1329894672 -1744494032
REM
CELL 1.54180   50.00000   50.00000   50.00000   90.00000   90.00000   90.00000
LATT -1
SFAC C  
C      1  0.6126200000000  0.5243200000000  0.5178810000000 1.0
C      1  0.5627350000000  0.5175680000000  0.4111920000000 1.0
C      1  0.4410690000000  0.5471000000000  0.4818150000000 1.0
C      1  0.4254780000000  0.5466830000000  0.4253050000000 1.0
C      1  0.4306000000000  0.5180250000000  0.4723850000000 1.0
C      1  0.4955230000000  0.5121930000000  0.4110100000000 1.0
C      1  0.4176520000000  0.4955440000000  0.4042100000000 1.0
C      1  0.4562840000000  0.5636770000000  0.5268470000000 1.0
C      1  0.6194410000000  0.4969100000000  0.5160730000000 1.0
C      1  0.5086460000000  0.4142400000000  0.5531100000000 1.0
C      1  0.5238890000000  0.5015420000000  0.5921780000000 1.0
C      1  0.4231970000000  0.4668500000000  0.4055900000000 1.0
C      1  0.5719480000000  0.4977310000000  0.4841980000000 1.0
C      1  0.4268220000000  0.4278540000000  0.4608070000000 1.0
C      1  0.5341460000000  0.4377740000000  0.5888650000000 1.0
C      1  0.4662420000000  0.3950480000000  0.4669180000000 1.0
C      1  0.4425410000000  0.4616900000000  0.4263070000000 1.0
C      1  0.5238190000000  0.4468270000000  0.4991980000000 1.0
C      1  0.5854050000000  0.5149370000000  0.4287270000000 1.0
C      1  0.4767050000000  0.4338700000000  0.4092770000000 1.0
C      1  0.5489780000000  0.4837940000000  0.4723710000000 1.0
C      1  0.4717210000000  0.4438080000000  0.4703610000000 1.0
C      1  0.5215570000000  0.5814360000000  0.5650250000000 1.0
C      1  0.4008560000000  0.4739360000000  0.5500730000000 1.0
C      1  0.5666080000000  0.5247050000000  0.4975660000000 1.0
C      1  0.4870810000000  0.4768430000000  0.5601360000000 1.0
C      1  0.4928610000000  0.5862580000000  0.5673650000000 1.0
C      1  0.5605880000000  0.5629910000000  0.5805530000000 1.0
C      1  0.5488150000000  0.4954890000000  0.3978870000000 1.0
C      1  0.4441040000000  0.4884150000000  0.5375620000000 1.0
C      1  0.5295210000000  0.5490310000000  0.4285990000000 1.0
C      1  0.4188740000000  0.4459350000000  0.4849830000000 1.0
C      1  0.5210750000000  0.4336960000000  0.4488100000000 1.0
C      1  0.5778060000000  0.5716050000000  0.5614910000000 1.0
C      1  0.3920990000000  0.5250780000000  0.5096650000000 1.0
C      1  0.4740580000000  0.5205190000000  0.5593320000000 1.0
C      1  0.5049420000000  0.5665940000000  0.4227060000000 1.0
C      1  0.4422670000000  0.4505980000000  0.5071410000000 1.0
C      1  0.4456890000000  0.5135970000000  0.3971580000000 1.0
C      1  0.5550950000000  0.4555850000000  0.5732990000000 1.0
C      1  0.4597460000000  0.4352580000000  0.5774420000000 1.0
C      1  0.5693220000000  0.5804290000000  0.4933680000000 1.0
C      1  0.5728200000000  0.5571820000000  0.4495290000000 1.0
C      1  0.4326390000000  0.5130880000000  0.4415170000000 1.0
C      1  0.3683410000000  0.5206770000000  0.4676690000000 1.0
C      1  0.4165970000000  0.5355060000000  0.5225660000000 1.0
C      1  0.5354640000000  0.4581420000000  0.6127400000000 1.0
C      1  0.3963580000000  0.5604540000000  0.4737220000000 1.0
C      1  0.5185500000000  0.4984040000000  0.3971890000000 1.0
C      1  0.4196120000000  0.5408040000000  0.5507030000000 1.0
C      1  0.4762670000000  0.5675810000000  0.5824600000000 1.0
C      1  0.5321510000000  0.4010710000000  0.5099600000000 1.0
C      1  0.4395700000000  0.3905640000000  0.5066720000000 1.0
C      1  0.5336570000000  0.5626830000000  0.5265490000000 1.0
C      1  0.5519930000000  0.4993430000000  0.5967620000000 1.0
C      1  0.5280800000000  0.5246510000000  0.4491450000000 1.0
C      1  0.5721120000000  0.4482630000000  0.5493260000000 1.0
C      1  0.4841830000000  0.4319210000000  0.5912590000000 1.0
C      1  0.5283990000000  0.6032430000000  0.4570430000000 1.0
C      1  0.4306610000000  0.4664410000000  0.5525920000000 1.0
C      1  0.5021210000000  0.5327770000000  0.5597970000000 1.0
C      1  0.5163780000000  0.4883970000000  0.5633210000000 1.0
C      1  0.5067220000000  0.4706190000000  0.4202480000000 1.0
C      1  0.4347310000000  0.5532460000000  0.5091490000000 1.0
C      1  0.5676290000000  0.5025440000000  0.5553270000000 1.0
C      1  0.5925810000000  0.5367550000000  0.4470490000000 1.0
C      1  0.5023330000000  0.4440450000000  0.4100600000000 1.0
C      1  0.4651290000000  0.3935820000000  0.4960920000000 1.0
C      1  0.5145530000000  0.5385280000000  0.5880060000000 1.0
C      1  0.4435620000000  0.5571950000000  0.5544880000000 1.0
C      1  0.4735750000000  0.5252900000000  0.6076820000000 1.0
C      1  0.5892330000000  0.4892290000000  0.4404510000000 1.0
C      1  0.5823630000000  0.5554510000000  0.5379670000000 1.0
C      1  0.5466500000000  0.5002480000000  0.4415030000000 1.0
C      1  0.5083050000000  0.4303410000000  0.5772960000000 1.0
C      1  0.4618720000000  0.5105040000000  0.5857750000000 1.0
C      1  0.5061960000000  0.5550780000000  0.5400660000000 1.0
C      1  0.4206210000000  0.4935700000000  0.4907290000000 1.0
C      1  0.4807520000000  0.4888710000000  0.4515850000000 1.0
C      1  0.5586080000000  0.4021720000000  0.4962420000000 1.0
C      1  0.5526590000000  0.4357300000000  0.4595940000000 1.0
C      1  0.5371810000000  0.5343020000000  0.4849820000000 1.0
C      1  0.5543520000000  0.5638110000000  0.4287310000000 1.0
C      1  0.4736250000000  0.5569900000000  0.4194510000000 1.0
C      1  0.5599570000000  0.4722630000000  0.5992650000000 1.0
C      1  0.5268980000000  0.6015060000000  0.4865760000000 1.0
C      1  0.5544300000000  0.4676810000000  0.4121920000000 1.0
C      1  0.5545300000000  0.5973500000000  0.4473520000000 1.0
C      1  0.5963760000000  0.4871270000000  0.4690060000000 1.0
C      1  0.6117210000000  0.4761750000000  0.5333970000000 1.0
C      1  0.4307580000000  0.5704900000000  0.4405610000000 1.0
C      1  0.4659560000000  0.4874670000000  0.4986930000000 1.0
C      1  0.5128630000000  0.4100210000000  0.4655090000000 1.0
C      1  0.4887890000000  0.4577700000000  0.5323420000000 1.0
C      1  0.6031790000000  0.5338820000000  0.5438980000000 1.0
C      1  0.4488770000000  0.5400420000000  0.4107560000000 1.0
C      1  0.3923990000000  0.4956140000000  0.5016580000000 1.0
C      1  0.4693510000000  0.4977380000000  0.4059350000000 1.0
C      1  0.4564030000000  0.4218370000000  0.4566990000000 1.0
C      1  0.5897110000000  0.5669100000000  0.5094620000000 1.0
C      1  0.4907640000000  0.5237390000000  0.5052210000000 1.0
C      1  0.5329960000000  0.5630530000000  0.5844280000000 1.0
C      1  0.5784860000000  0.4494240000000  0.4995480000000 1.0
C      1  0.4358330000000  0.4410360000000  0.5353070000000 1.0
C      1  0.5204570000000  0.5140860000000  0.5498600000000 1.0
C      1  0.4766060000000  0.5997870000000  0.4953300000000 1.0
C      1  0.5181460000000  0.4811540000000  0.6115910000000 1.0
C      1  0.4829520000000  0.4153650000000  0.5075110000000 1.0
C      1  0.5207400000000  0.4261060000000  0.4208380000000 1.0
C      1  0.5510710000000  0.6001240000000  0.5045580000000 1.0
C      1  0.5957890000000  0.5110040000000  0.5626630000000 1.0
C      1  0.5043700000000  0.5928840000000  0.4410830000000 1.0
C      1  0.6199390000000  0.5045590000000  0.4723490000000 1.0
C      1  0.4637430000000  0.5930840000000  0.5225420000000 1.0
C      1  0.5962980000000  0.4563680000000  0.4744160000000 1.0
C      1  0.4831610000000  0.4145140000000  0.5376700000000 1.0
C      1  0.3837280000000  0.5376820000000  0.4840200000000 1.0
C      1  0.4943570000000  0.4595120000000  0.4601200000000 1.0
C      1  0.5809360000000  0.4648030000000  0.4272450000000 1.0
C      1  0.6127730000000  0.4880060000000  0.5591470000000 1.0
C      1  0.4209850000000  0.4443760000000  0.4371870000000 1.0
C      1  0.5681420000000  0.4929850000000  0.5276000000000 1.0
C      1  0.5188450000000  0.4496850000000  0.5301480000000 1.0
C      1  0.4990730000000  0.5686320000000  0.4949000000000 1.0
C      1  0.5957980000000  0.5385240000000  0.4971650000000 1.0
C      1  0.4618430000000  0.4220480000000  0.4284230000000 1.0
C      1  0.4168790000000  0.4729010000000  0.4708310000000 1.0
C      1  0.4486090000000  0.5694030000000  0.5793680000000 1.0
C      1  0.4600820000000  0.4285130000000  0.5491420000000 1.0
C      1  0.6090150000000  0.5310130000000  0.4707480000000 1.0
C      1  0.5343360000000  0.4712520000000  0.5443040000000 1.0
C      1  0.5031640000000  0.6121420000000  0.5003310000000 1.0
C      1  0.5479190000000  0.5241200000000  0.5532390000000 1.0
C      1  0.5099410000000  0.6093400000000  0.5284630000000 1.0
C      1  0.4640330000000  0.5009360000000  0.4743040000000 1.0
C      1  0.4954300000000  0.5637410000000  0.4655700000000 1.0
C      1  0.3973100000000  0.4432420000000  0.5095070000000 1.0
C      1  0.4889110000000  0.5473320000000  0.5999400000000 1.0
C      1  0.4230700000000  0.5673430000000  0.4686340000000 1.0
C      1  0.5648100000000  0.4223520000000  0.5383900000000 1.0
C      1  0.5406180000000  0.4889710000000  0.5201760000000 1.0
C      1  0.4108220000000  0.4252000000000  0.5293240000000 1.0
C      1  0.5375580000000  0.5942610000000  0.5319840000000 1.0
C      1  0.4709470000000  0.4430170000000  0.4999260000000 1.0
C      1  0.4561450000000  0.4888410000000  0.4322400000000 1.0
C      1  0.4593070000000  0.5770320000000  0.4363190000000 1.0
C      1  0.4121880000000  0.5204280000000  0.5700160000000 1.0
C      1  0.4052200000000  0.5030860000000  0.4322630000000 1.0
C      1  0.4726750000000  0.5282260000000  0.4808980000000 1.0
C      1  0.5833990000000  0.4669380000000  0.5272350000000 1.0
C      1  0.5125370000000  0.4171760000000  0.4944640000000 1.0
C      1  0.4458260000000  0.4616000000000  0.5802700000000 1.0
C      1  0.4768070000000  0.5885920000000  0.4579490000000 1.0
C      1  0.5330540000000  0.4729970000000  0.4325490000000 1.0
C      1  0.5070030000000  0.4687310000000  0.4867610000000 1.0
C      1  0.4415600000000  0.4806260000000  0.5097590000000 1.0
C      1  0.5508780000000  0.4537630000000  0.4843230000000 1.0
C      1  0.4908950000000  0.4797750000000  0.5097070000000 1.0
C      1  0.3902620000000  0.4701960000000  0.5219060000000 1.0
C      1  0.4686650000000  0.4804300000000  0.5853410000000 1.0
C      1  0.4333640000000  0.5142810000000  0.5869000000000 1.0
C      1  0.5204090000000  0.5133980000000  0.5009980000000 1.0
C      1  0.5738140000000  0.5821250000000  0.4642090000000 1.0
C      1  0.4179440000000  0.4006520000000  0.5186240000000 1.0
C      1  0.4726350000000  0.4963500000000  0.5416020000000 1.0
C      1  0.5348380000000  0.4146020000000  0.5362370000000 1.0
C      1  0.3962540000000  0.4993990000000  0.5607700000000 1.0
C      1  0.5810500000000  0.4451560000000  0.4499890000000 1.0
C      1  0.4857160000000  0.5369550000000  0.4568920000000 1.0
C      1  0.4991000000000  0.5140930000000  0.4421490000000 1.0
C      1  0.5220540000000  0.4923230000000  0.4805360000000 1.0
C      1  0.5563000000000  0.5416890000000  0.5310050000000 1.0
C      1  0.4925730000000  0.3925380000000  0.4576530000000 1.0
C      1  0.5291060000000  0.5628360000000  0.4965350000000 1.0
C      1  0.4852850000000  0.6006000000000  0.5425600000000 1.0
C      1  0.4866540000000  0.5510880000000  0.5171530000000 1.0
C      1  0.5571510000000  0.4091860000000  0.4692550000000 1.0
C      1  0.3771830000000  0.4947120000000  0.4746920000000 1.0
C      1  0.3946150000000  0.4822580000000  0.4529490000000 1.0
C      1  0.5764380000000  0.4205510000000  0.5111600000000 1.0
END
