TITL C-951335-1172-238 -3.42550783856769e-06 125000 -1218.9253190796 0 0 195 (C1) n - 1
REM
REM in /home/bkarasulu/work/CARBON/AIRSS/Generating-Clusters/EDIP-Nigel-Params/with-SteepDescent/Only-C1/SD-CG/HFTN-CG
REM
REM
REM
REM
REM
REM ./C.cell (11c1c37f851c82e70ff6c80c92926a4b)
REM
REM compiler GCC version 9.2.1 20190827 (Red Hat 9.2.1-1)
REM options -cpp -mtune=generic -march=x86-64 -g -O0 -fpre-include=/usr/include/finclude/math-vector-fortran.h
REM seed 1366477267 -199533530 928556375 -1837333574 1543434304 1718370847 -1998595422 120123789 2054761550 79919050 1434461874 1205535651 -98642509 1577932503 2037552988 -2144505573 -978645223 1127408951 -366516744 658915744 -1123410255 2117397920 -279853218 1056891843 -1923673258 -200123678 -2058564249 1323536974 -1787726514 2065632658 -185929037 234290550 1630938168
REM
CELL 1.54180   50.00000   50.00000   50.00000   90.00000   90.00000   90.00000
LATT -1
SFAC C  
C      1  0.5507310000000  0.5964200000000  0.5027370000000 1.0
C      1  0.3773580000000  0.4799930000000  0.5406390000000 1.0
C      1  0.5350300000000  0.5571510000000  0.5925280000000 1.0
C      1  0.4589730000000  0.5358650000000  0.4231710000000 1.0
C      1  0.4882920000000  0.5833250000000  0.5156710000000 1.0
C      1  0.4212980000000  0.4539660000000  0.5744180000000 1.0
C      1  0.5893840000000  0.4561220000000  0.4072480000000 1.0
C      1  0.4837050000000  0.5196140000000  0.4373630000000 1.0
C      1  0.4454610000000  0.5408610000000  0.5791440000000 1.0
C      1  0.5586770000000  0.4621040000000  0.4674400000000 1.0
C      1  0.5261400000000  0.5380470000000  0.4629220000000 1.0
C      1  0.4523260000000  0.4789450000000  0.4413880000000 1.0
C      1  0.5911540000000  0.5152180000000  0.5712250000000 1.0
C      1  0.5088870000000  0.4488060000000  0.4512610000000 1.0
C      1  0.4583780000000  0.4151430000000  0.4873650000000 1.0
C      1  0.4869700000000  0.5623470000000  0.5919650000000 1.0
C      1  0.4418050000000  0.5613510000000  0.5582220000000 1.0
C      1  0.4374450000000  0.4384890000000  0.4823970000000 1.0
C      1  0.5583670000000  0.4914440000000  0.3992720000000 1.0
C      1  0.3784670000000  0.5017480000000  0.5208320000000 1.0
C      1  0.5335870000000  0.6137760000000  0.4887950000000 1.0
C      1  0.6133900000000  0.5074630000000  0.5535960000000 1.0
C      1  0.5234430000000  0.4372370000000  0.5248920000000 1.0
C      1  0.3924870000000  0.4576560000000  0.5305830000000 1.0
C      1  0.4174480000000  0.4813940000000  0.4931800000000 1.0
C      1  0.4578090000000  0.4686980000000  0.5160050000000 1.0
C      1  0.5598670000000  0.4343270000000  0.5711800000000 1.0
C      1  0.5876880000000  0.4513110000000  0.4615850000000 1.0
C      1  0.3824250000000  0.4624420000000  0.4745250000000 1.0
C      1  0.5311640000000  0.5527550000000  0.5121390000000 1.0
C      1  0.5911260000000  0.4470970000000  0.5329090000000 1.0
C      1  0.5301240000000  0.4719540000000  0.4961110000000 1.0
C      1  0.4003930000000  0.5204370000000  0.4415160000000 1.0
C      1  0.4506470000000  0.4510840000000  0.5831160000000 1.0
C      1  0.5914070000000  0.4188480000000  0.5268630000000 1.0
C      1  0.3802390000000  0.4908880000000  0.4714870000000 1.0
C      1  0.5976720000000  0.4948770000000  0.4311790000000 1.0
C      1  0.4839750000000  0.4515230000000  0.4650900000000 1.0
C      1  0.5092050000000  0.5959460000000  0.5320990000000 1.0
C      1  0.5451290000000  0.4437400000000  0.4125760000000 1.0
C      1  0.4389700000000  0.4757100000000  0.5389680000000 1.0
C      1  0.5523680000000  0.5113430000000  0.6049350000000 1.0
C      1  0.5246290000000  0.5064540000000  0.6254210000000 1.0
C      1  0.4952270000000  0.5579300000000  0.3977650000000 1.0
C      1  0.5009030000000  0.5741520000000  0.4893360000000 1.0
C      1  0.5495990000000  0.5951170000000  0.4379960000000 1.0
C      1  0.4615880000000  0.4503850000000  0.4455150000000 1.0
C      1  0.5414250000000  0.4732020000000  0.4195800000000 1.0
C      1  0.3912160000000  0.4939920000000  0.5624050000000 1.0
C      1  0.4675140000000  0.5602010000000  0.4080580000000 1.0
C      1  0.5102560000000  0.4758010000000  0.4231970000000 1.0
C      1  0.4646590000000  0.4629260000000  0.3995110000000 1.0
C      1  0.5012360000000  0.5388300000000  0.5449940000000 1.0
C      1  0.5164350000000  0.3900950000000  0.5318000000000 1.0
C      1  0.5327640000000  0.5049050000000  0.5818510000000 1.0
C      1  0.4332680000000  0.5654680000000  0.4557000000000 1.0
C      1  0.5051010000000  0.4203480000000  0.4388090000000 1.0
C      1  0.4250490000000  0.5204290000000  0.5739520000000 1.0
C      1  0.5089200000000  0.4822850000000  0.6226240000000 1.0
C      1  0.5730660000000  0.4352130000000  0.4163960000000 1.0
C      1  0.5781860000000  0.5415540000000  0.5743380000000 1.0
C      1  0.5179980000000  0.3990990000000  0.4786590000000 1.0
C      1  0.5349410000000  0.4116710000000  0.5345870000000 1.0
C      1  0.5318410000000  0.5203490000000  0.4199980000000 1.0
C      1  0.5052560000000  0.5140470000000  0.5009260000000 1.0
C      1  0.5033040000000  0.4388360000000  0.5030750000000 1.0
C      1  0.4940650000000  0.6050370000000  0.4584240000000 1.0
C      1  0.3984940000000  0.4576980000000  0.5005820000000 1.0
C      1  0.4969540000000  0.5070530000000  0.3897650000000 1.0
C      1  0.5840930000000  0.5592500000000  0.4965490000000 1.0
C      1  0.4474550000000  0.5560490000000  0.4802090000000 1.0
C      1  0.5814540000000  0.5016550000000  0.4782570000000 1.0
C      1  0.5890530000000  0.5615000000000  0.5250720000000 1.0
C      1  0.4646870000000  0.6011040000000  0.5029200000000 1.0
C      1  0.5930660000000  0.4157670000000  0.4987900000000 1.0
C      1  0.5703790000000  0.4833570000000  0.4999600000000 1.0
C      1  0.5546630000000  0.4578380000000  0.5894030000000 1.0
C      1  0.5536250000000  0.4149210000000  0.4577330000000 1.0
C      1  0.4661720000000  0.5859580000000  0.4243560000000 1.0
C      1  0.5061710000000  0.4408800000000  0.3913580000000 1.0
C      1  0.4653670000000  0.4376310000000  0.4166590000000 1.0
C      1  0.5290710000000  0.4471450000000  0.4751790000000 1.0
C      1  0.4368170000000  0.5955160000000  0.5128450000000 1.0
C      1  0.4945670000000  0.4690160000000  0.3959440000000 1.0
C      1  0.5105580000000  0.5548680000000  0.6081170000000 1.0
C      1  0.5582310000000  0.4065260000000  0.5129800000000 1.0
C      1  0.5774490000000  0.5595070000000  0.4397410000000 1.0
C      1  0.5617650000000  0.5056100000000  0.4547760000000 1.0
C      1  0.5593520000000  0.5543280000000  0.4165160000000 1.0
C      1  0.5472400000000  0.5716680000000  0.5492920000000 1.0
C      1  0.4241970000000  0.5917350000000  0.5416150000000 1.0
C      1  0.5406670000000  0.5778920000000  0.4173530000000 1.0
C      1  0.4269060000000  0.4258110000000  0.5267550000000 1.0
C      1  0.5916990000000  0.4620570000000  0.5077750000000 1.0
C      1  0.4406140000000  0.4184410000000  0.4401400000000 1.0
C      1  0.4040210000000  0.5669140000000  0.5380070000000 1.0
C      1  0.5116370000000  0.5753340000000  0.4157940000000 1.0
C      1  0.4223420000000  0.4353400000000  0.4568760000000 1.0
C      1  0.4366750000000  0.5659650000000  0.5075660000000 1.0
C      1  0.5467580000000  0.5298530000000  0.4440030000000 1.0
C      1  0.5614070000000  0.5749120000000  0.4836360000000 1.0
C      1  0.5692020000000  0.4562780000000  0.5493200000000 1.0
C      1  0.5966190000000  0.5411520000000  0.4513210000000 1.0
C      1  0.4242500000000  0.5000370000000  0.5953380000000 1.0
C      1  0.4921430000000  0.3945030000000  0.5198770000000 1.0
C      1  0.5770680000000  0.4284570000000  0.4449240000000 1.0
C      1  0.5347830000000  0.5807180000000  0.5244450000000 1.0
C      1  0.5363470000000  0.4179120000000  0.5654120000000 1.0
C      1  0.4662930000000  0.5441260000000  0.5992760000000 1.0
C      1  0.5974810000000  0.4419280000000  0.4877330000000 1.0
C      1  0.4978030000000  0.5393020000000  0.4552500000000 1.0
C      1  0.4368160000000  0.5278550000000  0.4834140000000 1.0
C      1  0.4364730000000  0.5174630000000  0.4567210000000 1.0
C      1  0.5335290000000  0.4359500000000  0.3884220000000 1.0
C      1  0.5999240000000  0.5403350000000  0.4803880000000 1.0
C      1  0.4800710000000  0.4898510000000  0.5480220000000 1.0
C      1  0.3969150000000  0.4478970000000  0.4549570000000 1.0
C      1  0.4076440000000  0.5564100000000  0.5094770000000 1.0
C      1  0.4501590000000  0.5884700000000  0.4496720000000 1.0
C      1  0.4154700000000  0.4332800000000  0.5007530000000 1.0
C      1  0.5588210000000  0.5411880000000  0.5998410000000 1.0
C      1  0.4684530000000  0.4406730000000  0.5608240000000 1.0
C      1  0.4818850000000  0.5516150000000  0.4774500000000 1.0
C      1  0.3871150000000  0.5216140000000  0.5519770000000 1.0
C      1  0.4068450000000  0.4923370000000  0.4317410000000 1.0
C      1  0.5339380000000  0.4815270000000  0.5430310000000 1.0
C      1  0.4262230000000  0.5056070000000  0.5380600000000 1.0
C      1  0.6056060000000  0.4760470000000  0.4525550000000 1.0
C      1  0.4711700000000  0.4033470000000  0.5369540000000 1.0
C      1  0.5504840000000  0.4806340000000  0.4472560000000 1.0
C      1  0.4256480000000  0.4876000000000  0.4554930000000 1.0
C      1  0.4796440000000  0.4777130000000  0.4781930000000 1.0
C      1  0.5404140000000  0.4610740000000  0.5235350000000 1.0
C      1  0.4212720000000  0.4883210000000  0.4076960000000 1.0
C      1  0.4813600000000  0.5864390000000  0.5758730000000 1.0
C      1  0.6182210000000  0.4910520000000  0.4745610000000 1.0
C      1  0.6065520000000  0.5213340000000  0.4342730000000 1.0
C      1  0.4874040000000  0.5154820000000  0.5620670000000 1.0
C      1  0.4937340000000  0.4790470000000  0.5970370000000 1.0
C      1  0.3897250000000  0.5179610000000  0.4697380000000 1.0
C      1  0.5166590000000  0.5963780000000  0.4743010000000 1.0
C      1  0.4846740000000  0.4047200000000  0.4521070000000 1.0
C      1  0.5418290000000  0.5092760000000  0.5354360000000 1.0
C      1  0.4541700000000  0.5873300000000  0.5655390000000 1.0
C      1  0.4191080000000  0.4516600000000  0.5440730000000 1.0
C      1  0.5012590000000  0.5973570000000  0.5590710000000 1.0
C      1  0.4923480000000  0.4245360000000  0.4116600000000 1.0
C      1  0.4491380000000  0.5215030000000  0.5281040000000 1.0
C      1  0.5111070000000  0.4294090000000  0.5786120000000 1.0
C      1  0.4080010000000  0.5281820000000  0.4938500000000 1.0
C      1  0.4578060000000  0.4029800000000  0.4591330000000 1.0
C      1  0.4072660000000  0.5046540000000  0.5126190000000 1.0
C      1  0.4623220000000  0.4771140000000  0.5924400000000 1.0
C      1  0.4521790000000  0.5512750000000  0.5311990000000 1.0
C      1  0.5348470000000  0.5575650000000  0.4836830000000 1.0
C      1  0.5199950000000  0.5273280000000  0.5226400000000 1.0
C      1  0.5893380000000  0.5230200000000  0.5278250000000 1.0
C      1  0.4791420000000  0.5233870000000  0.6148390000000 1.0
C      1  0.4008380000000  0.5458280000000  0.5581710000000 1.0
C      1  0.4560540000000  0.4915430000000  0.5659760000000 1.0
C      1  0.5303350000000  0.4046260000000  0.4433920000000 1.0
C      1  0.4895410000000  0.4614610000000  0.5504490000000 1.0
C      1  0.4563110000000  0.5144640000000  0.5009240000000 1.0
C      1  0.4828930000000  0.4545510000000  0.5211390000000 1.0
C      1  0.5057610000000  0.5300810000000  0.6251430000000 1.0
C      1  0.6168460000000  0.5118790000000  0.5236930000000 1.0
C      1  0.5668350000000  0.5061120000000  0.5196480000000 1.0
C      1  0.4807890000000  0.5585170000000  0.5316290000000 1.0
C      1  0.4682000000000  0.5983370000000  0.4718840000000 1.0
C      1  0.4854240000000  0.4180960000000  0.5690840000000 1.0
C      1  0.5455420000000  0.4078400000000  0.4851380000000 1.0
C      1  0.5344930000000  0.4750450000000  0.5722340000000 1.0
C      1  0.4087360000000  0.4802840000000  0.5822100000000 1.0
C      1  0.4811850000000  0.5296060000000  0.4983980000000 1.0
C      1  0.5296340000000  0.5520400000000  0.5631770000000 1.0
C      1  0.5871280000000  0.4840330000000  0.4055960000000 1.0
C      1  0.4995340000000  0.5339770000000  0.3833130000000 1.0
C      1  0.4465860000000  0.4682080000000  0.4893650000000 1.0
C      1  0.4943090000000  0.4106540000000  0.4950620000000 1.0
C      1  0.5787330000000  0.4721420000000  0.5835190000000 1.0
C      1  0.4319950000000  0.5412760000000  0.4369490000000 1.0
C      1  0.4741280000000  0.4957730000000  0.4535340000000 1.0
C      1  0.5520130000000  0.5199720000000  0.3996330000000 1.0
C      1  0.5721460000000  0.5575140000000  0.5485460000000 1.0
C      1  0.4938010000000  0.5948320000000  0.4297090000000 1.0
C      1  0.5014540000000  0.5082400000000  0.5875410000000 1.0
C      1  0.5083410000000  0.4604500000000  0.5762620000000 1.0
C      1  0.5030440000000  0.4856990000000  0.4968730000000 1.0
C      1  0.5051540000000  0.5062210000000  0.4181500000000 1.0
C      1  0.5449670000000  0.5246880000000  0.5614120000000 1.0
C      1  0.4487570000000  0.4839760000000  0.4125390000000 1.0
C      1  0.4503150000000  0.4098890000000  0.5179990000000 1.0
C      1  0.6146920000000  0.5160410000000  0.4923250000000 1.0
C      1  0.5680550000000  0.5822440000000  0.4550830000000 1.0
C      1  0.5792780000000  0.4987710000000  0.5923120000000 1.0
END
