TITL C-950534-5965-277 3.71951306158236e-07 125000 -212.118103844078 0 0 35 (C1) n - 1
REM
REM in /home/bkarasulu/work/CARBON/AIRSS/Generating-Clusters/EDIP-Nigel-Params/with-SteepDescent/Only-C1/SD-CG/HFTN-CG
REM
REM
REM
REM
REM
REM ./C.cell (11c1c37f851c82e70ff6c80c92926a4b)
REM
REM compiler GCC version 9.2.1 20190827 (Red Hat 9.2.1-1)
REM options -cpp -mtune=generic -march=x86-64 -g -O0 -fpre-include=/usr/include/finclude/math-vector-fortran.h
REM seed -1347810078 -963607419 271146737 -429760520 -235950790 300833255 -917571617 -142417257 404934349 2090327188 1963834707 -1405200014 1651024967 -1694765624 1924101657 1679623803 37798413 1258696648 -577278198 207248456 -827587414 -2031522539 -326554045 -2120116908 855345890 -1021791440 -1603461888 -1185717237 1263550994 222664538 -804384357 765219222 -1260870674
REM
CELL 1.54180   50.00000   50.00000   50.00000   90.00000   90.00000   90.00000
LATT -1
SFAC C  
C      1  0.5650660000000  0.4914880000000  0.4668230000000 1.0
C      1  0.4338030000000  0.4958100000000  0.4683040000000 1.0
C      1  0.5200770000000  0.4729640000000  0.5447430000000 1.0
C      1  0.4736600000000  0.5269430000000  0.4476030000000 1.0
C      1  0.4340570000000  0.5077350000000  0.4922820000000 1.0
C      1  0.4549310000000  0.5177730000000  0.5076800000000 1.0
C      1  0.5353470000000  0.4839910000000  0.5015490000000 1.0
C      1  0.4675070000000  0.4614640000000  0.5241880000000 1.0
C      1  0.4964920000000  0.4850340000000  0.5577110000000 1.0
C      1  0.5448020000000  0.5115610000000  0.4660390000000 1.0
C      1  0.5517990000000  0.4697650000000  0.4792500000000 1.0
C      1  0.5032000000000  0.5083840000000  0.5726500000000 1.0
C      1  0.5486790000000  0.5004330000000  0.5246110000000 1.0
C      1  0.4630140000000  0.4581780000000  0.4644700000000 1.0
C      1  0.4712240000000  0.5396910000000  0.4971820000000 1.0
C      1  0.4872990000000  0.4627870000000  0.4776820000000 1.0
C      1  0.4889920000000  0.4638550000000  0.5063370000000 1.0
C      1  0.5096000000000  0.5318350000000  0.5292130000000 1.0
C      1  0.4997590000000  0.4867000000000  0.4374730000000 1.0
C      1  0.4751420000000  0.4995940000000  0.4426230000000 1.0
C      1  0.5518020000000  0.5368770000000  0.4755200000000 1.0
C      1  0.5328540000000  0.4584250000000  0.4610580000000 1.0
C      1  0.4713800000000  0.5422730000000  0.4695620000000 1.0
C      1  0.5097010000000  0.4766980000000  0.4630810000000 1.0
C      1  0.4710660000000  0.4838200000000  0.5416300000000 1.0
C      1  0.4574620000000  0.5103100000000  0.5363020000000 1.0
C      1  0.4946370000000  0.5466730000000  0.5107760000000 1.0
C      1  0.5202770000000  0.5007650000000  0.4795250000000 1.0
C      1  0.4548540000000  0.4832060000000  0.4552180000000 1.0
C      1  0.5472930000000  0.5422000000000  0.5014830000000 1.0
C      1  0.5159540000000  0.4666030000000  0.5163370000000 1.0
C      1  0.4685830000000  0.5312700000000  0.5520930000000 1.0
C      1  0.4964240000000  0.5293270000000  0.5551710000000 1.0
C      1  0.5387020000000  0.5288430000000  0.5246020000000 1.0
C      1  0.5445620000000  0.4867230000000  0.5492310000000 1.0
END
