TITL C-950524-1808-758 -1.03530074881255e-06 125000 -1035.72518846926 0 0 167 (C1) n - 1
REM
REM in /home/bkarasulu/work/CARBON/AIRSS/Generating-Clusters/EDIP-Nigel-Params/with-SteepDescent/Only-C1/SD-CG/HFTN-CG
REM
REM
REM
REM
REM
REM ./C.cell (11c1c37f851c82e70ff6c80c92926a4b)
REM
REM compiler GCC version 9.2.1 20190827 (Red Hat 9.2.1-1)
REM options -cpp -mtune=generic -march=x86-64 -g -O0 -fpre-include=/usr/include/finclude/math-vector-fortran.h
REM seed -321308833 -420004874 1443948964 -462632156 1283176949 1410477614 2062877636 1113347402 850650677 2028947135 1368671389 1574254536 1553836902 2017039200 -710383340 892764574 870619042 1469287079 1132507837 1910909732 602907617 -394786687 1277555035 -632022722 1584622674 -1685304533 -464379251 1160427632 1530605460 515240975 -1597591509 -1041411648 -1369172342
REM
CELL 1.54180   50.00000   50.00000   50.00000   90.00000   90.00000   90.00000
LATT -1
SFAC C  
C      1  0.4942780000000  0.5906910000000  0.5597020000000 1.0
C      1  0.4953470000000  0.6020370000000  0.5038100000000 1.0
C      1  0.4450080000000  0.4124130000000  0.5358590000000 1.0
C      1  0.4566760000000  0.5631750000000  0.4198870000000 1.0
C      1  0.4064930000000  0.5055080000000  0.5508600000000 1.0
C      1  0.5185470000000  0.5123970000000  0.5495710000000 1.0
C      1  0.5856100000000  0.4525260000000  0.4554040000000 1.0
C      1  0.4853920000000  0.5747200000000  0.4804600000000 1.0
C      1  0.5282640000000  0.5690900000000  0.4276570000000 1.0
C      1  0.4083650000000  0.4551790000000  0.4858820000000 1.0
C      1  0.5558020000000  0.5530350000000  0.5877390000000 1.0
C      1  0.5471200000000  0.5421360000000  0.4995980000000 1.0
C      1  0.5552780000000  0.5460850000000  0.4708240000000 1.0
C      1  0.4219060000000  0.5708900000000  0.5150900000000 1.0
C      1  0.4759260000000  0.4854820000000  0.5389640000000 1.0
C      1  0.4455040000000  0.5436910000000  0.3993210000000 1.0
C      1  0.5828040000000  0.4539900000000  0.5061650000000 1.0
C      1  0.5215050000000  0.5067140000000  0.4063130000000 1.0
C      1  0.4796280000000  0.4955240000000  0.6055650000000 1.0
C      1  0.4966270000000  0.4667880000000  0.3832170000000 1.0
C      1  0.5046610000000  0.4868290000000  0.5459010000000 1.0
C      1  0.5431410000000  0.6045070000000  0.4856750000000 1.0
C      1  0.3982820000000  0.5323390000000  0.5402640000000 1.0
C      1  0.4780260000000  0.5800710000000  0.5834800000000 1.0
C      1  0.4529380000000  0.5772870000000  0.5654850000000 1.0
C      1  0.4530830000000  0.4800860000000  0.4049500000000 1.0
C      1  0.4316170000000  0.5001520000000  0.4189650000000 1.0
C      1  0.5368500000000  0.4677950000000  0.4668390000000 1.0
C      1  0.4775250000000  0.4964930000000  0.5120750000000 1.0
C      1  0.5758710000000  0.5539720000000  0.5678670000000 1.0
C      1  0.4629230000000  0.4356060000000  0.4305380000000 1.0
C      1  0.5044000000000  0.5375270000000  0.5386040000000 1.0
C      1  0.3912700000000  0.4970610000000  0.5085810000000 1.0
C      1  0.4106820000000  0.4584600000000  0.5361350000000 1.0
C      1  0.4441190000000  0.4249880000000  0.4625570000000 1.0
C      1  0.5359360000000  0.4085960000000  0.5165280000000 1.0
C      1  0.5205780000000  0.4702400000000  0.5887000000000 1.0
C      1  0.4387920000000  0.5516610000000  0.5668980000000 1.0
C      1  0.4565390000000  0.5031020000000  0.4935130000000 1.0
C      1  0.5672240000000  0.5482620000000  0.4264200000000 1.0
C      1  0.5073900000000  0.5441740000000  0.5866210000000 1.0
C      1  0.5194130000000  0.4651670000000  0.5575430000000 1.0
C      1  0.4453430000000  0.5811840000000  0.4990400000000 1.0
C      1  0.5970600000000  0.4681830000000  0.5282970000000 1.0
C      1  0.4517050000000  0.4729720000000  0.4501600000000 1.0
C      1  0.5523330000000  0.5595590000000  0.5255320000000 1.0
C      1  0.4092390000000  0.4833360000000  0.4343110000000 1.0
C      1  0.5459180000000  0.5094220000000  0.5382530000000 1.0
C      1  0.3897800000000  0.5261550000000  0.5126440000000 1.0
C      1  0.4375800000000  0.5645190000000  0.4424090000000 1.0
C      1  0.5535270000000  0.5915230000000  0.4628390000000 1.0
C      1  0.4918080000000  0.5405120000000  0.6112100000000 1.0
C      1  0.5909150000000  0.4665230000000  0.4794980000000 1.0
C      1  0.4369790000000  0.4793710000000  0.5081220000000 1.0
C      1  0.4859310000000  0.3959470000000  0.5163630000000 1.0
C      1  0.5056350000000  0.4963820000000  0.3807880000000 1.0
C      1  0.5535040000000  0.4689410000000  0.4184460000000 1.0
C      1  0.5111580000000  0.4626960000000  0.5090740000000 1.0
C      1  0.4710940000000  0.4550260000000  0.5824220000000 1.0
C      1  0.4666020000000  0.4400280000000  0.5185020000000 1.0
C      1  0.4543990000000  0.4633390000000  0.5323470000000 1.0
C      1  0.5653480000000  0.4211270000000  0.4473130000000 1.0
C      1  0.5199370000000  0.5524440000000  0.4969830000000 1.0
C      1  0.5535770000000  0.5295510000000  0.6045840000000 1.0
C      1  0.5830780000000  0.4248050000000  0.5064240000000 1.0
C      1  0.4811530000000  0.5903280000000  0.4312740000000 1.0
C      1  0.4054010000000  0.5562030000000  0.4960660000000 1.0
C      1  0.3948050000000  0.4836320000000  0.5345820000000 1.0
C      1  0.5412300000000  0.4487300000000  0.5976870000000 1.0
C      1  0.4714960000000  0.5078040000000  0.4656990000000 1.0
C      1  0.4192160000000  0.4417060000000  0.4622600000000 1.0
C      1  0.4013200000000  0.4987110000000  0.4589700000000 1.0
C      1  0.4343750000000  0.5029680000000  0.5377770000000 1.0
C      1  0.5339390000000  0.4522480000000  0.4926200000000 1.0
C      1  0.5490100000000  0.4625650000000  0.5428300000000 1.0
C      1  0.5383880000000  0.6003510000000  0.5354940000000 1.0
C      1  0.4934680000000  0.4460390000000  0.4654320000000 1.0
C      1  0.4981530000000  0.4057330000000  0.4234580000000 1.0
C      1  0.4718930000000  0.5821450000000  0.5405950000000 1.0
C      1  0.4161040000000  0.5441380000000  0.4378430000000 1.0
C      1  0.5341850000000  0.4463720000000  0.4108490000000 1.0
C      1  0.5046530000000  0.5151750000000  0.4292320000000 1.0
C      1  0.5259420000000  0.5583130000000  0.5404820000000 1.0
C      1  0.5681730000000  0.5054560000000  0.6036200000000 1.0
C      1  0.4617920000000  0.5291770000000  0.5740600000000 1.0
C      1  0.5042740000000  0.4501960000000  0.4060430000000 1.0
C      1  0.5281080000000  0.4191940000000  0.5587820000000 1.0
C      1  0.5098130000000  0.4688180000000  0.4549060000000 1.0
C      1  0.5695740000000  0.4578460000000  0.5913090000000 1.0
C      1  0.5549650000000  0.4603160000000  0.5126330000000 1.0
C      1  0.4672920000000  0.5248960000000  0.4005320000000 1.0
C      1  0.4856970000000  0.5363370000000  0.4200400000000 1.0
C      1  0.5232180000000  0.4030310000000  0.4348940000000 1.0
C      1  0.4678600000000  0.5946410000000  0.5150420000000 1.0
C      1  0.5371650000000  0.4225010000000  0.5859630000000 1.0
C      1  0.5081930000000  0.4152200000000  0.5092480000000 1.0
C      1  0.5962080000000  0.5377910000000  0.4975420000000 1.0
C      1  0.5881510000000  0.4951280000000  0.4759810000000 1.0
C      1  0.4465060000000  0.4708900000000  0.5749530000000 1.0
C      1  0.5257090000000  0.4022410000000  0.4643670000000 1.0
C      1  0.4280330000000  0.4541050000000  0.5594380000000 1.0
C      1  0.4908510000000  0.4708170000000  0.5975700000000 1.0
C      1  0.4427810000000  0.5295660000000  0.5287380000000 1.0
C      1  0.4744060000000  0.5480570000000  0.4954210000000 1.0
C      1  0.4515710000000  0.4502010000000  0.4914980000000 1.0
C      1  0.4298480000000  0.4170850000000  0.5114190000000 1.0
C      1  0.5165040000000  0.5085760000000  0.4957950000000 1.0
C      1  0.4706660000000  0.5895480000000  0.4587860000000 1.0
C      1  0.5109940000000  0.4239890000000  0.4798860000000 1.0
C      1  0.5794140000000  0.5702000000000  0.4433090000000 1.0
C      1  0.4264190000000  0.4594730000000  0.4404930000000 1.0
C      1  0.5847290000000  0.5103630000000  0.5008920000000 1.0
C      1  0.4235780000000  0.5362120000000  0.4855140000000 1.0
C      1  0.4804670000000  0.4321570000000  0.5655280000000 1.0
C      1  0.5837510000000  0.5067250000000  0.4507240000000 1.0
C      1  0.5228480000000  0.5821610000000  0.5575770000000 1.0
C      1  0.4489030000000  0.5312050000000  0.5004520000000 1.0
C      1  0.5491340000000  0.4990090000000  0.4158890000000 1.0
C      1  0.4693320000000  0.4822110000000  0.3794580000000 1.0
C      1  0.5693050000000  0.4860240000000  0.5821520000000 1.0
C      1  0.4857110000000  0.5478470000000  0.5645110000000 1.0
C      1  0.4675150000000  0.3934290000000  0.4952290000000 1.0
C      1  0.5304630000000  0.4990680000000  0.5971820000000 1.0
C      1  0.4974560000000  0.4842390000000  0.4944980000000 1.0
C      1  0.5125640000000  0.5653370000000  0.4727140000000 1.0
C      1  0.4464480000000  0.5116110000000  0.4475680000000 1.0
C      1  0.5824970000000  0.4414020000000  0.5700240000000 1.0
C      1  0.4552040000000  0.4981890000000  0.5600380000000 1.0
C      1  0.4716740000000  0.5223900000000  0.6024190000000 1.0
C      1  0.4199830000000  0.5230900000000  0.4590320000000 1.0
C      1  0.5832360000000  0.5805610000000  0.5169090000000 1.0
C      1  0.5464800000000  0.5119840000000  0.5077370000000 1.0
C      1  0.4218040000000  0.5301210000000  0.4113500000000 1.0
C      1  0.5370690000000  0.5676820000000  0.4567180000000 1.0
C      1  0.5982590000000  0.4972920000000  0.5245220000000 1.0
C      1  0.4132730000000  0.4420410000000  0.5114960000000 1.0
C      1  0.4999800000000  0.5343510000000  0.5071520000000 1.0
C      1  0.5659040000000  0.5184300000000  0.4324100000000 1.0
C      1  0.5292990000000  0.5664070000000  0.5840050000000 1.0
C      1  0.4706790000000  0.4646280000000  0.4747480000000 1.0
C      1  0.5570980000000  0.4352610000000  0.5552680000000 1.0
C      1  0.4240410000000  0.5491280000000  0.5391810000000 1.0
C      1  0.5255730000000  0.6039500000000  0.5082790000000 1.0
C      1  0.4720350000000  0.4041880000000  0.5416540000000 1.0
C      1  0.5196580000000  0.5183960000000  0.5783070000000 1.0
C      1  0.4911190000000  0.4926350000000  0.4452700000000 1.0
C      1  0.4005160000000  0.4833880000000  0.4844280000000 1.0
C      1  0.5667640000000  0.5940910000000  0.5355320000000 1.0
C      1  0.5863830000000  0.5404770000000  0.5455690000000 1.0
C      1  0.4687860000000  0.4667850000000  0.4265590000000 1.0
C      1  0.4778860000000  0.5119860000000  0.3767780000000 1.0
C      1  0.4979680000000  0.4399460000000  0.5222700000000 1.0
C      1  0.4854570000000  0.4281160000000  0.4135330000000 1.0
C      1  0.5827660000000  0.5546860000000  0.4676220000000 1.0
C      1  0.5996500000000  0.4563690000000  0.5535970000000 1.0
C      1  0.5432010000000  0.4223390000000  0.4265510000000 1.0
C      1  0.5653920000000  0.4887570000000  0.5513240000000 1.0
C      1  0.5573480000000  0.4152380000000  0.4986840000000 1.0
C      1  0.5466400000000  0.5579340000000  0.4096930000000 1.0
C      1  0.4435160000000  0.5817360000000  0.4673200000000 1.0
C      1  0.5538560000000  0.4068830000000  0.4710360000000 1.0
C      1  0.5058850000000  0.4382960000000  0.5516770000000 1.0
C      1  0.4444210000000  0.4072660000000  0.4873010000000 1.0
C      1  0.5953630000000  0.5545150000000  0.5214200000000 1.0
C      1  0.5946070000000  0.5129730000000  0.5482300000000 1.0
C      1  0.5000740000000  0.5716220000000  0.4208290000000 1.0
C      1  0.5577410000000  0.4584270000000  0.4466340000000 1.0
END
