TITL C-951335-1172-396 -9.42650616532226e-07 125000 -517.376194021857 0 0 84 (C1) n - 1
REM
REM in /home/bkarasulu/work/CARBON/AIRSS/Generating-Clusters/EDIP-Nigel-Params/with-SteepDescent/Only-C1/SD-CG/HFTN-CG
REM
REM
REM
REM
REM
REM ./C.cell (11c1c37f851c82e70ff6c80c92926a4b)
REM
REM compiler GCC version 9.2.1 20190827 (Red Hat 9.2.1-1)
REM options -cpp -mtune=generic -march=x86-64 -g -O0 -fpre-include=/usr/include/finclude/math-vector-fortran.h
REM seed -1610433492 -90619588 1430411507 -1044372750 -1046308149 799962634 169998092 1244391723 497835626 -1507085532 255194002 -88422491 1200035938 1286149320 -1681281031 -2003674849 1382273840 -1198942169 -1852493816 1686801472 1707111220 1951505526 1184314581 1024149779 -903910314 -1167322154 -986725811 -605349571 1527899593 1991857761 902069405 27575187 -783349626
REM
CELL 1.54180   50.00000   50.00000   50.00000   90.00000   90.00000   90.00000
LATT -1
SFAC C  
C      1  0.4560900000000  0.4322290000000  0.5005380000000 1.0
C      1  0.5507860000000  0.4884780000000  0.5325770000000 1.0
C      1  0.4293200000000  0.4652350000000  0.4665470000000 1.0
C      1  0.4993130000000  0.5024230000000  0.5893600000000 1.0
C      1  0.4834150000000  0.4881710000000  0.4194910000000 1.0
C      1  0.5398410000000  0.5401440000000  0.5504650000000 1.0
C      1  0.5155140000000  0.4618240000000  0.5704270000000 1.0
C      1  0.5010960000000  0.4181940000000  0.4903720000000 1.0
C      1  0.4814400000000  0.5246060000000  0.5138950000000 1.0
C      1  0.5715220000000  0.5561550000000  0.5158300000000 1.0
C      1  0.5056360000000  0.4751100000000  0.5471730000000 1.0
C      1  0.4712060000000  0.5326480000000  0.5419650000000 1.0
C      1  0.5278620000000  0.5533580000000  0.5105380000000 1.0
C      1  0.5713400000000  0.5381190000000  0.4693080000000 1.0
C      1  0.5355030000000  0.4517180000000  0.4749170000000 1.0
C      1  0.5256400000000  0.5430690000000  0.4813170000000 1.0
C      1  0.4957430000000  0.4114160000000  0.5182610000000 1.0
C      1  0.4634810000000  0.5024080000000  0.5028560000000 1.0
C      1  0.4414390000000  0.5380340000000  0.5413650000000 1.0
C      1  0.5148070000000  0.4815330000000  0.4882710000000 1.0
C      1  0.5297390000000  0.4958490000000  0.5097130000000 1.0
C      1  0.4432770000000  0.4568320000000  0.5116370000000 1.0
C      1  0.4725200000000  0.5061260000000  0.5618330000000 1.0
C      1  0.4811680000000  0.4395730000000  0.4834500000000 1.0
C      1  0.4996090000000  0.5328870000000  0.4715500000000 1.0
C      1  0.5836160000000  0.5480840000000  0.4921760000000 1.0
C      1  0.4537710000000  0.5511820000000  0.4778900000000 1.0
C      1  0.4618980000000  0.4579070000000  0.5608630000000 1.0
C      1  0.4434800000000  0.4792770000000  0.4469530000000 1.0
C      1  0.4220000000000  0.4675240000000  0.4937430000000 1.0
C      1  0.5147700000000  0.5467340000000  0.5631530000000 1.0
C      1  0.5703150000000  0.5083270000000  0.4655930000000 1.0
C      1  0.5548900000000  0.5063690000000  0.4399210000000 1.0
C      1  0.4924890000000  0.5563060000000  0.5461280000000 1.0
C      1  0.5140280000000  0.5269630000000  0.4253750000000 1.0
C      1  0.4924240000000  0.5393870000000  0.4424510000000 1.0
C      1  0.5501720000000  0.5734030000000  0.5120640000000 1.0
C      1  0.5447050000000  0.5507630000000  0.4595140000000 1.0
C      1  0.5207160000000  0.5773810000000  0.4538970000000 1.0
C      1  0.5441380000000  0.4592400000000  0.4272780000000 1.0
C      1  0.4767000000000  0.4784210000000  0.5456710000000 1.0
C      1  0.5409640000000  0.5318830000000  0.4360710000000 1.0
C      1  0.5119350000000  0.4977240000000  0.4208030000000 1.0
C      1  0.5401990000000  0.4985780000000  0.5653740000000 1.0
C      1  0.4953340000000  0.5689740000000  0.4417510000000 1.0
C      1  0.4808290000000  0.4443630000000  0.4524630000000 1.0
C      1  0.4272620000000  0.5135000000000  0.5501690000000 1.0
C      1  0.5775690000000  0.4670600000000  0.5023180000000 1.0
C      1  0.4330260000000  0.5408120000000  0.4926800000000 1.0
C      1  0.4735080000000  0.4938500000000  0.4759030000000 1.0
C      1  0.4652630000000  0.5252450000000  0.4358070000000 1.0
C      1  0.5228730000000  0.4842200000000  0.5866850000000 1.0
C      1  0.4440800000000  0.4980250000000  0.5688440000000 1.0
C      1  0.5004250000000  0.5031120000000  0.4725010000000 1.0
C      1  0.5045330000000  0.5289440000000  0.5825150000000 1.0
C      1  0.5049450000000  0.4364830000000  0.4411430000000 1.0
C      1  0.4681320000000  0.4189010000000  0.5244980000000 1.0
C      1  0.5567820000000  0.4754220000000  0.4816340000000 1.0
C      1  0.4703110000000  0.4693440000000  0.4396970000000 1.0
C      1  0.5283000000000  0.4283180000000  0.4931360000000 1.0
C      1  0.4672220000000  0.4758160000000  0.5161770000000 1.0
C      1  0.5047220000000  0.5694310000000  0.5215460000000 1.0
C      1  0.5653920000000  0.4621890000000  0.5288050000000 1.0
C      1  0.5834770000000  0.4972350000000  0.5005780000000 1.0
C      1  0.5614760000000  0.5349170000000  0.5322510000000 1.0
C      1  0.4360910000000  0.5118230000000  0.4899120000000 1.0
C      1  0.4667750000000  0.5100290000000  0.4121860000000 1.0
C      1  0.5135640000000  0.5049350000000  0.5491470000000 1.0
C      1  0.4882350000000  0.5733890000000  0.4978020000000 1.0
C      1  0.4306670000000  0.5496010000000  0.5186130000000 1.0
C      1  0.5142870000000  0.5195840000000  0.5206710000000 1.0
C      1  0.4901380000000  0.4645990000000  0.4985940000000 1.0
C      1  0.4131190000000  0.4993830000000  0.5301800000000 1.0
C      1  0.4791530000000  0.5460790000000  0.4905080000000 1.0
C      1  0.4147850000000  0.4950170000000  0.5024410000000 1.0
C      1  0.5527740000000  0.4379240000000  0.5329010000000 1.0
C      1  0.4620180000000  0.4327680000000  0.5484080000000 1.0
C      1  0.5309690000000  0.4442350000000  0.4465960000000 1.0
C      1  0.4389750000000  0.4701550000000  0.5713080000000 1.0
C      1  0.5311030000000  0.4257130000000  0.5218260000000 1.0
C      1  0.4514330000000  0.5065100000000  0.4566700000000 1.0
C      1  0.5713410000000  0.5082910000000  0.5257650000000 1.0
C      1  0.5363940000000  0.4855680000000  0.4316030000000 1.0
C      1  0.5021970000000  0.5866410000000  0.4751950000000 1.0
END
