TITL C-951345-2650-727 -2.02198514339514e-06 125000 -213.429313076707 0 0 36 (C1) n - 1
REM
REM in /home/bkarasulu/work/CARBON/AIRSS/Generating-Clusters/EDIP-Nigel-Params/with-SteepDescent/Only-C1/SD-CG/HFTN-CG
REM
REM
REM
REM
REM
REM ./C.cell (11c1c37f851c82e70ff6c80c92926a4b)
REM
REM compiler GCC version 9.2.1 20190827 (Red Hat 9.2.1-1)
REM options -cpp -mtune=generic -march=x86-64 -g -O0 -fpre-include=/usr/include/finclude/math-vector-fortran.h
REM seed 1792947830 933965986 -1511004981 1641230752 452233681 2126136872 656257970 1683498120 -1423778103 -708627585 -1572863433 -1818431709 -1874773391 -840439803 575957916 507339782 -2079297296 816854410 1927107905 -1471765809 1912566583 800093597 -2098752897 1399724647 -1852773630 618301133 424768801 619472587 -487879915 1298921465 -482809335 735163863 -851376539
REM
CELL 1.54180   50.00000   50.00000   50.00000   90.00000   90.00000   90.00000
LATT -1
SFAC C  
C      1  0.4570650000000  0.5222860000000  0.4921150000000 1.0
C      1  0.5202600000000  0.5709290000000  0.4832950000000 1.0
C      1  0.5134400000000  0.5650120000000  0.5103010000000 1.0
C      1  0.4939360000000  0.4702940000000  0.5473190000000 1.0
C      1  0.4767050000000  0.5431070000000  0.4856340000000 1.0
C      1  0.5005580000000  0.5335940000000  0.4687910000000 1.0
C      1  0.5156720000000  0.5121180000000  0.5151140000000 1.0
C      1  0.5309870000000  0.5542160000000  0.5298570000000 1.0
C      1  0.4587080000000  0.4590680000000  0.5119660000000 1.0
C      1  0.5215620000000  0.5205570000000  0.4865140000000 1.0
C      1  0.4764730000000  0.4538360000000  0.4652940000000 1.0
C      1  0.4612710000000  0.5127100000000  0.5186420000000 1.0
C      1  0.4331160000000  0.4837070000000  0.4774200000000 1.0
C      1  0.4904940000000  0.5139340000000  0.4470970000000 1.0
C      1  0.5145310000000  0.4551970000000  0.5318610000000 1.0
C      1  0.4866910000000  0.5521180000000  0.5121880000000 1.0
C      1  0.5211220000000  0.4574500000000  0.4781420000000 1.0
C      1  0.5479240000000  0.4789810000000  0.5590770000000 1.0
C      1  0.5200660000000  0.5158280000000  0.5594610000000 1.0
C      1  0.5134710000000  0.5584230000000  0.4596740000000 1.0
C      1  0.5030430000000  0.4889160000000  0.4452420000000 1.0
C      1  0.5512200000000  0.4875920000000  0.4896940000000 1.0
C      1  0.5030650000000  0.4942130000000  0.5593770000000 1.0
C      1  0.5425850000000  0.4676820000000  0.5356820000000 1.0
C      1  0.5313040000000  0.4840890000000  0.5117660000000 1.0
C      1  0.5455680000000  0.5110270000000  0.4755750000000 1.0
C      1  0.4865040000000  0.5248130000000  0.5249220000000 1.0
C      1  0.5064900000000  0.4500350000000  0.5024420000000 1.0
C      1  0.4624600000000  0.5111490000000  0.4464230000000 1.0
C      1  0.5019200000000  0.4634000000000  0.4569540000000 1.0
C      1  0.4793200000000  0.4520040000000  0.4934160000000 1.0
C      1  0.5487290000000  0.4636750000000  0.4755450000000 1.0
C      1  0.4486730000000  0.5058000000000  0.4702650000000 1.0
C      1  0.4679620000000  0.4669070000000  0.5372840000000 1.0
C      1  0.4354410000000  0.4685200000000  0.4997390000000 1.0
C      1  0.5316660000000  0.5268130000000  0.5359100000000 1.0
END
