TITL C-951336-9012-339 -7.11821744367112e-05 125000 -921.757529687221 0 0 147 (C1) n - 1
REM
REM in /home/bkarasulu/work/CARBON/AIRSS/Generating-Clusters/EDIP-Nigel-Params/with-SteepDescent/Only-C1/SD-CG/HFTN-CG
REM
REM
REM
REM
REM
REM ./C.cell (11c1c37f851c82e70ff6c80c92926a4b)
REM
REM compiler GCC version 9.2.1 20190827 (Red Hat 9.2.1-1)
REM options -cpp -mtune=generic -march=x86-64 -g -O0 -fpre-include=/usr/include/finclude/math-vector-fortran.h
REM seed 1968335229 1482834295 245748784 1052088317 1340236408 -1930858673 1311952442 -1600728458 -366097833 -1402475394 1931672631 1935878323 -1584088985 229025014 29416866 1623269622 -332995595 -1873410971 -75213051 227450209 -1110137559 -294283381 933842268 1792405467 927235922 -1744960137 -1574674817 -1870881681 1934526747 -1022272764 235865217 -1826670315 1877223674
REM
CELL 1.54180   50.00000   50.00000   50.00000   90.00000   90.00000   90.00000
LATT -1
SFAC C  
C      1  0.4572370000000  0.5436860000000  0.4973500000000 1.0
C      1  0.5479210000000  0.4599490000000  0.5693140000000 1.0
C      1  0.4721630000000  0.4827720000000  0.5000660000000 1.0
C      1  0.4430120000000  0.4534590000000  0.4239250000000 1.0
C      1  0.4590330000000  0.4991570000000  0.6012830000000 1.0
C      1  0.5244160000000  0.5563540000000  0.4177850000000 1.0
C      1  0.4825650000000  0.5105710000000  0.4422280000000 1.0
C      1  0.5463630000000  0.4077470000000  0.5273350000000 1.0
C      1  0.5421940000000  0.5803050000000  0.5503210000000 1.0
C      1  0.4827700000000  0.5361750000000  0.5409760000000 1.0
C      1  0.5449900000000  0.4850410000000  0.5183420000000 1.0
C      1  0.5673690000000  0.5130800000000  0.5703790000000 1.0
C      1  0.4474150000000  0.5679960000000  0.4366150000000 1.0
C      1  0.4455100000000  0.5380790000000  0.4269910000000 1.0
C      1  0.5646370000000  0.4189540000000  0.5464870000000 1.0
C      1  0.5870070000000  0.4916480000000  0.5571660000000 1.0
C      1  0.5682420000000  0.5884010000000  0.4993290000000 1.0
C      1  0.4755830000000  0.5297390000000  0.4190910000000 1.0
C      1  0.4812710000000  0.4508910000000  0.5362940000000 1.0
C      1  0.4339080000000  0.5956170000000  0.4775880000000 1.0
C      1  0.5399600000000  0.5205640000000  0.6091820000000 1.0
C      1  0.5134870000000  0.4477860000000  0.5298320000000 1.0
C      1  0.4242430000000  0.5069100000000  0.4185290000000 1.0
C      1  0.5256400000000  0.5973610000000  0.5061640000000 1.0
C      1  0.5679750000000  0.5155820000000  0.4782900000000 1.0
C      1  0.5216310000000  0.4369020000000  0.4339660000000 1.0
C      1  0.4380550000000  0.4664110000000  0.5697480000000 1.0
C      1  0.4599280000000  0.4814490000000  0.4736390000000 1.0
C      1  0.4946400000000  0.4112790000000  0.5462510000000 1.0
C      1  0.4329660000000  0.5718960000000  0.4628530000000 1.0
C      1  0.5614260000000  0.5234180000000  0.4109680000000 1.0
C      1  0.5435030000000  0.5925850000000  0.4829990000000 1.0
C      1  0.5510320000000  0.5008690000000  0.5923880000000 1.0
C      1  0.5737840000000  0.4650710000000  0.5574560000000 1.0
C      1  0.4361150000000  0.4358300000000  0.4754030000000 1.0
C      1  0.4749050000000  0.5033090000000  0.6251860000000 1.0
C      1  0.5464540000000  0.5619680000000  0.4389530000000 1.0
C      1  0.4060770000000  0.5199910000000  0.4362980000000 1.0
C      1  0.4584370000000  0.4710640000000  0.5902260000000 1.0
C      1  0.5485860000000  0.4208410000000  0.4994940000000 1.0
C      1  0.4708320000000  0.5430530000000  0.5770050000000 1.0
C      1  0.5990900000000  0.4993220000000  0.5297560000000 1.0
C      1  0.5835520000000  0.4417140000000  0.5427220000000 1.0
C      1  0.5445600000000  0.5980800000000  0.5280050000000 1.0
C      1  0.4518980000000  0.5224860000000  0.5829380000000 1.0
C      1  0.4458640000000  0.4232080000000  0.5340970000000 1.0
C      1  0.4857360000000  0.6025090000000  0.4791330000000 1.0
C      1  0.5167480000000  0.5104790000000  0.3959470000000 1.0
C      1  0.4707060000000  0.4086670000000  0.5285280000000 1.0
C      1  0.4074450000000  0.4459050000000  0.5148790000000 1.0
C      1  0.5005900000000  0.4896600000000  0.4977570000000 1.0
C      1  0.4927660000000  0.5555700000000  0.4223700000000 1.0
C      1  0.5028010000000  0.4101180000000  0.4914490000000 1.0
C      1  0.5099490000000  0.5230590000000  0.5492470000000 1.0
C      1  0.4802810000000  0.5955910000000  0.5280220000000 1.0
C      1  0.4970800000000  0.4994930000000  0.6094590000000 1.0
C      1  0.6060270000000  0.5126560000000  0.4703390000000 1.0
C      1  0.5825760000000  0.4713520000000  0.4593620000000 1.0
C      1  0.5067980000000  0.5326240000000  0.4506100000000 1.0
C      1  0.4105360000000  0.5417970000000  0.5219660000000 1.0
C      1  0.5810260000000  0.5206840000000  0.5195390000000 1.0
C      1  0.4820250000000  0.5552320000000  0.5140050000000 1.0
C      1  0.4746870000000  0.4317590000000  0.4169510000000 1.0
C      1  0.5164880000000  0.4795680000000  0.5226570000000 1.0
C      1  0.5670740000000  0.4956580000000  0.4095960000000 1.0
C      1  0.3996580000000  0.4559410000000  0.5400800000000 1.0
C      1  0.4133050000000  0.4765820000000  0.4528710000000 1.0
C      1  0.5050900000000  0.5483710000000  0.4970820000000 1.0
C      1  0.5251760000000  0.4560510000000  0.4827120000000 1.0
C      1  0.5067480000000  0.4928360000000  0.5472850000000 1.0
C      1  0.5559870000000  0.5098670000000  0.5333990000000 1.0
C      1  0.5072210000000  0.4759750000000  0.5964750000000 1.0
C      1  0.5376700000000  0.5661370000000  0.4678670000000 1.0
C      1  0.4651540000000  0.4339640000000  0.4877470000000 1.0
C      1  0.5674630000000  0.4446710000000  0.4968190000000 1.0
C      1  0.5163330000000  0.5719360000000  0.5607500000000 1.0
C      1  0.5503020000000  0.4692890000000  0.4925730000000 1.0
C      1  0.4697290000000  0.4559040000000  0.5091710000000 1.0
C      1  0.4331230000000  0.5399590000000  0.5398200000000 1.0
C      1  0.5227870000000  0.4857270000000  0.4116210000000 1.0
C      1  0.4397300000000  0.4307190000000  0.4454000000000 1.0
C      1  0.4898580000000  0.5788120000000  0.5503060000000 1.0
C      1  0.4747830000000  0.4078030000000  0.4991560000000 1.0
C      1  0.4789710000000  0.4848190000000  0.3985290000000 1.0
C      1  0.4830350000000  0.4660720000000  0.4571090000000 1.0
C      1  0.5027480000000  0.4674690000000  0.4017670000000 1.0
C      1  0.4841580000000  0.4756110000000  0.5541380000000 1.0
C      1  0.4481470000000  0.4429080000000  0.5551960000000 1.0
C      1  0.4880560000000  0.5792930000000  0.4634910000000 1.0
C      1  0.5079600000000  0.5576610000000  0.4696440000000 1.0
C      1  0.4294300000000  0.4654250000000  0.4747720000000 1.0
C      1  0.5411800000000  0.5439200000000  0.5932530000000 1.0
C      1  0.4707540000000  0.4800390000000  0.4283630000000 1.0
C      1  0.5175480000000  0.5480560000000  0.5769700000000 1.0
C      1  0.4273900000000  0.4256210000000  0.5116690000000 1.0
C      1  0.4557020000000  0.5276580000000  0.5234570000000 1.0
C      1  0.5297920000000  0.5380800000000  0.5056670000000 1.0
C      1  0.4866080000000  0.5137530000000  0.3948300000000 1.0
C      1  0.4668950000000  0.4210180000000  0.4418740000000 1.0
C      1  0.5199940000000  0.4015130000000  0.5365490000000 1.0
C      1  0.5197970000000  0.4331420000000  0.5018750000000 1.0
C      1  0.5660580000000  0.5439550000000  0.5770490000000 1.0
C      1  0.5523220000000  0.5439600000000  0.4873930000000 1.0
C      1  0.4971050000000  0.6031190000000  0.5047650000000 1.0
C      1  0.4365960000000  0.5984530000000  0.5041480000000 1.0
C      1  0.4832450000000  0.4352440000000  0.4625990000000 1.0
C      1  0.4015120000000  0.5027680000000  0.4592830000000 1.0
C      1  0.5582530000000  0.4865710000000  0.4689560000000 1.0
C      1  0.5732570000000  0.5602090000000  0.5010860000000 1.0
C      1  0.6017690000000  0.4849130000000  0.4783220000000 1.0
C      1  0.5333220000000  0.4376140000000  0.5571500000000 1.0
C      1  0.4313460000000  0.5189850000000  0.5627660000000 1.0
C      1  0.5482600000000  0.4174690000000  0.4676900000000 1.0
C      1  0.5886340000000  0.5478440000000  0.5208940000000 1.0
C      1  0.5644930000000  0.4385250000000  0.4530220000000 1.0
C      1  0.5192070000000  0.4198020000000  0.4581330000000 1.0
C      1  0.4857140000000  0.4613350000000  0.5803240000000 1.0
C      1  0.4525920000000  0.5869520000000  0.5238750000000 1.0
C      1  0.5340810000000  0.4792850000000  0.5848720000000 1.0
C      1  0.4335270000000  0.5460390000000  0.4781060000000 1.0
C      1  0.5855550000000  0.5285740000000  0.4561220000000 1.0
C      1  0.5909620000000  0.4489060000000  0.5143140000000 1.0
C      1  0.5496100000000  0.4740410000000  0.4135820000000 1.0
C      1  0.5331920000000  0.5190400000000  0.4513490000000 1.0
C      1  0.4663020000000  0.5686650000000  0.5647780000000 1.0
C      1  0.4616580000000  0.5090830000000  0.4626790000000 1.0
C      1  0.4272440000000  0.4789900000000  0.4279480000000 1.0
C      1  0.4764740000000  0.5763390000000  0.4370240000000 1.0
C      1  0.4931300000000  0.4285180000000  0.5721260000000 1.0
C      1  0.4385750000000  0.5255180000000  0.4557230000000 1.0
C      1  0.5646270000000  0.5663960000000  0.5599780000000 1.0
C      1  0.4080830000000  0.4925810000000  0.5088960000000 1.0
C      1  0.5335750000000  0.5289850000000  0.5318890000000 1.0
C      1  0.5467000000000  0.4516990000000  0.4336280000000 1.0
C      1  0.5198410000000  0.4248620000000  0.5799700000000 1.0
C      1  0.4047830000000  0.4840870000000  0.5374200000000 1.0
C      1  0.5349180000000  0.5336480000000  0.4004430000000 1.0
C      1  0.5576330000000  0.5334490000000  0.4390520000000 1.0
C      1  0.4432080000000  0.5690340000000  0.5462270000000 1.0
C      1  0.5312920000000  0.4896700000000  0.4500560000000 1.0
C      1  0.6003690000000  0.4773340000000  0.5083210000000 1.0
C      1  0.4264040000000  0.4906490000000  0.5558230000000 1.0
C      1  0.4100220000000  0.4675360000000  0.4964110000000 1.0
C      1  0.5087450000000  0.4775810000000  0.4703740000000 1.0
C      1  0.4081350000000  0.5395770000000  0.4939890000000 1.0
C      1  0.4013500000000  0.5120840000000  0.4879280000000 1.0
C      1  0.4984560000000  0.4465580000000  0.4202030000000 1.0
END
