TITL C-950529-3362-516 1.75845000609039e-06 125000 -1113.6813588737 0 0 178 (C1) n - 1
REM
REM in /home/bkarasulu/work/CARBON/AIRSS/Generating-Clusters/EDIP-Nigel-Params/with-SteepDescent/Only-C1/SD-CG/HFTN-CG
REM
REM
REM
REM
REM
REM ./C.cell (11c1c37f851c82e70ff6c80c92926a4b)
REM
REM compiler GCC version 9.2.1 20190827 (Red Hat 9.2.1-1)
REM options -cpp -mtune=generic -march=x86-64 -g -O0 -fpre-include=/usr/include/finclude/math-vector-fortran.h
REM seed -1292485342 -2057560077 913664101 1758523587 708986864 -1585922805 -1764877475 -1929043625 979793265 1731801872 1746396603 -535024171 938516535 -1272709397 697920203 -1384434705 662041976 -566718438 -452832748 -179416534 -643412580 743338922 -918003325 -717780009 -627604157 144610322 -1086570231 350623260 467023227 58412548 1776890299 1744989355 1708487056
REM
CELL 1.54180   50.00000   50.00000   50.00000   90.00000   90.00000   90.00000
LATT -1
SFAC C  
C      1  0.5622480000000  0.4137970000000  0.5028940000000 1.0
C      1  0.4254320000000  0.4671710000000  0.4455330000000 1.0
C      1  0.5552100000000  0.5375390000000  0.4230330000000 1.0
C      1  0.5038680000000  0.5673510000000  0.4733510000000 1.0
C      1  0.5776980000000  0.5109330000000  0.5684180000000 1.0
C      1  0.4770740000000  0.5913030000000  0.4369530000000 1.0
C      1  0.4801740000000  0.6071690000000  0.4843560000000 1.0
C      1  0.5749990000000  0.4351020000000  0.4577740000000 1.0
C      1  0.4839920000000  0.4589130000000  0.5320100000000 1.0
C      1  0.5735950000000  0.4864190000000  0.5832740000000 1.0
C      1  0.6049260000000  0.4657930000000  0.4825460000000 1.0
C      1  0.3994510000000  0.4765850000000  0.5490970000000 1.0
C      1  0.5033200000000  0.5911780000000  0.5543510000000 1.0
C      1  0.5238500000000  0.5580030000000  0.4963880000000 1.0
C      1  0.5186510000000  0.4546250000000  0.4435580000000 1.0
C      1  0.4460150000000  0.4714580000000  0.4687710000000 1.0
C      1  0.4894140000000  0.5095300000000  0.5731160000000 1.0
C      1  0.4376980000000  0.5304320000000  0.5831410000000 1.0
C      1  0.3843510000000  0.4434370000000  0.5023110000000 1.0
C      1  0.4750680000000  0.5883150000000  0.5562090000000 1.0
C      1  0.4885300000000  0.5279560000000  0.3978790000000 1.0
C      1  0.4267100000000  0.4317190000000  0.5439550000000 1.0
C      1  0.6092900000000  0.4974990000000  0.5195570000000 1.0
C      1  0.5695740000000  0.4087940000000  0.5294260000000 1.0
C      1  0.4594740000000  0.4157620000000  0.4763980000000 1.0
C      1  0.4224770000000  0.5447670000000  0.5609980000000 1.0
C      1  0.5138990000000  0.4867980000000  0.4788000000000 1.0
C      1  0.5423270000000  0.4919310000000  0.4679150000000 1.0
C      1  0.5031650000000  0.5022850000000  0.3975190000000 1.0
C      1  0.4164690000000  0.4993950000000  0.5096800000000 1.0
C      1  0.5626400000000  0.5824950000000  0.4722560000000 1.0
C      1  0.4905360000000  0.5058680000000  0.5292850000000 1.0
C      1  0.5599470000000  0.5098700000000  0.4881010000000 1.0
C      1  0.4484620000000  0.4871430000000  0.5409890000000 1.0
C      1  0.4814720000000  0.4099280000000  0.5312060000000 1.0
C      1  0.4895230000000  0.4811660000000  0.5162050000000 1.0
C      1  0.5334020000000  0.6105640000000  0.5188060000000 1.0
C      1  0.5633250000000  0.5348280000000  0.5780330000000 1.0
C      1  0.5221660000000  0.4379750000000  0.5249290000000 1.0
C      1  0.4223330000000  0.5658750000000  0.4533900000000 1.0
C      1  0.5417860000000  0.5278950000000  0.5236440000000 1.0
C      1  0.5057430000000  0.6052160000000  0.4715550000000 1.0
C      1  0.4660670000000  0.4711380000000  0.4061220000000 1.0
C      1  0.4906320000000  0.3933680000000  0.4450770000000 1.0
C      1  0.5210310000000  0.3916570000000  0.5277550000000 1.0
C      1  0.5382040000000  0.5364220000000  0.4477210000000 1.0
C      1  0.5117900000000  0.5507810000000  0.4479030000000 1.0
C      1  0.4503610000000  0.5694850000000  0.4026310000000 1.0
C      1  0.4217470000000  0.4964000000000  0.5536830000000 1.0
C      1  0.4747490000000  0.3915940000000  0.4680500000000 1.0
C      1  0.4059360000000  0.4270170000000  0.4969020000000 1.0
C      1  0.4324670000000  0.5831660000000  0.4733100000000 1.0
C      1  0.5230060000000  0.5765110000000  0.5699340000000 1.0
C      1  0.5900940000000  0.4606820000000  0.4557090000000 1.0
C      1  0.4122640000000  0.4224450000000  0.4700100000000 1.0
C      1  0.5662570000000  0.5439540000000  0.5149170000000 1.0
C      1  0.5360010000000  0.4666150000000  0.5473520000000 1.0
C      1  0.6091950000000  0.4945230000000  0.4908530000000 1.0
C      1  0.4347720000000  0.5875240000000  0.5294010000000 1.0
C      1  0.5196250000000  0.4115020000000  0.4832950000000 1.0
C      1  0.5263140000000  0.5048700000000  0.5976050000000 1.0
C      1  0.5365290000000  0.4682440000000  0.3951930000000 1.0
C      1  0.4918160000000  0.5499980000000  0.5422940000000 1.0
C      1  0.4319990000000  0.5711620000000  0.5025840000000 1.0
C      1  0.5130310000000  0.3882090000000  0.4999820000000 1.0
C      1  0.5039790000000  0.5997620000000  0.4436220000000 1.0
C      1  0.4153340000000  0.5229920000000  0.4920730000000 1.0
C      1  0.3846610000000  0.4851530000000  0.5255890000000 1.0
C      1  0.4427720000000  0.5445510000000  0.4123710000000 1.0
C      1  0.4345050000000  0.5421200000000  0.4416370000000 1.0
C      1  0.5317890000000  0.5186430000000  0.5516790000000 1.0
C      1  0.5383780000000  0.5328900000000  0.5954550000000 1.0
C      1  0.4325740000000  0.5010990000000  0.5817160000000 1.0
C      1  0.4912620000000  0.4355310000000  0.5170090000000 1.0
C      1  0.4770600000000  0.4414450000000  0.4883370000000 1.0
C      1  0.5253310000000  0.4154180000000  0.5452460000000 1.0
C      1  0.5542650000000  0.4460220000000  0.6002590000000 1.0
C      1  0.5697560000000  0.5581130000000  0.5604910000000 1.0
C      1  0.5281610000000  0.5883200000000  0.4318190000000 1.0
C      1  0.4063320000000  0.4495560000000  0.5501920000000 1.0
C      1  0.5973510000000  0.5204030000000  0.5475970000000 1.0
C      1  0.5315610000000  0.5076270000000  0.4436000000000 1.0
C      1  0.4981310000000  0.5550830000000  0.4069670000000 1.0
C      1  0.5306630000000  0.4970580000000  0.3916160000000 1.0
C      1  0.5509090000000  0.5950650000000  0.4482990000000 1.0
C      1  0.5109540000000  0.4533760000000  0.3969220000000 1.0
C      1  0.4558610000000  0.4964930000000  0.4184020000000 1.0
C      1  0.5841540000000  0.5347750000000  0.4348010000000 1.0
C      1  0.5551170000000  0.4203540000000  0.5503260000000 1.0
C      1  0.5672200000000  0.4662820000000  0.4928560000000 1.0
C      1  0.6007840000000  0.5421530000000  0.4799960000000 1.0
C      1  0.4599750000000  0.5222320000000  0.4030620000000 1.0
C      1  0.5294300000000  0.4129830000000  0.4553800000000 1.0
C      1  0.4649710000000  0.3902570000000  0.5160640000000 1.0
C      1  0.5863640000000  0.5807960000000  0.4555370000000 1.0
C      1  0.5616060000000  0.4894770000000  0.5108910000000 1.0
C      1  0.4963400000000  0.5216900000000  0.4765470000000 1.0
C      1  0.4729700000000  0.5579060000000  0.4757760000000 1.0
C      1  0.5773920000000  0.4834570000000  0.4417900000000 1.0
C      1  0.4913980000000  0.4758270000000  0.3926700000000 1.0
C      1  0.4309320000000  0.4308150000000  0.5126030000000 1.0
C      1  0.4735940000000  0.4687250000000  0.4531950000000 1.0
C      1  0.5041090000000  0.4387620000000  0.5915390000000 1.0
C      1  0.4630800000000  0.5465670000000  0.5868440000000 1.0
C      1  0.5093970000000  0.4104280000000  0.4336200000000 1.0
C      1  0.5149390000000  0.5505150000000  0.5867330000000 1.0
C      1  0.4371080000000  0.4219390000000  0.4567860000000 1.0
C      1  0.4829640000000  0.6034840000000  0.5131920000000 1.0
C      1  0.5436480000000  0.4394360000000  0.4533200000000 1.0
C      1  0.4952410000000  0.5095320000000  0.6020850000000 1.0
C      1  0.5510870000000  0.5076280000000  0.4094260000000 1.0
C      1  0.5475930000000  0.5760570000000  0.5517830000000 1.0
C      1  0.4117830000000  0.5476120000000  0.5080070000000 1.0
C      1  0.4278560000000  0.4924570000000  0.4288720000000 1.0
C      1  0.4337590000000  0.5717410000000  0.5561070000000 1.0
C      1  0.3956170000000  0.4819730000000  0.4750780000000 1.0
C      1  0.4526520000000  0.5332990000000  0.5132530000000 1.0
C      1  0.4879110000000  0.5415940000000  0.6033080000000 1.0
C      1  0.4610790000000  0.5930670000000  0.4647920000000 1.0
C      1  0.5511960000000  0.5899190000000  0.5239140000000 1.0
C      1  0.6113880000000  0.5561770000000  0.5017170000000 1.0
C      1  0.4744510000000  0.4156880000000  0.5593610000000 1.0
C      1  0.5841130000000  0.4876300000000  0.5315660000000 1.0
C      1  0.4571600000000  0.5364800000000  0.5444600000000 1.0
C      1  0.5419710000000  0.4534920000000  0.4807930000000 1.0
C      1  0.5818440000000  0.4194700000000  0.4822370000000 1.0
C      1  0.5540780000000  0.5698560000000  0.5008570000000 1.0
C      1  0.5624320000000  0.4499470000000  0.5528210000000 1.0
C      1  0.5861530000000  0.5472580000000  0.5374130000000 1.0
C      1  0.5906450000000  0.5140380000000  0.4777370000000 1.0
C      1  0.4759250000000  0.4868930000000  0.6090380000000 1.0
C      1  0.4583170000000  0.5715420000000  0.5718870000000 1.0
C      1  0.4758740000000  0.5740310000000  0.4132240000000 1.0
C      1  0.5357330000000  0.4846740000000  0.5236930000000 1.0
C      1  0.5147870000000  0.4769900000000  0.5055450000000 1.0
C      1  0.4404680000000  0.4422040000000  0.4357000000000 1.0
C      1  0.5369610000000  0.4292940000000  0.4990120000000 1.0
C      1  0.4158010000000  0.5283460000000  0.5359680000000 1.0
C      1  0.4453710000000  0.4067200000000  0.5011190000000 1.0
C      1  0.4597930000000  0.5377010000000  0.4572260000000 1.0
C      1  0.4523700000000  0.4377180000000  0.5614270000000 1.0
C      1  0.4729500000000  0.4972140000000  0.4441080000000 1.0
C      1  0.6077410000000  0.5638720000000  0.5274170000000 1.0
C      1  0.5254260000000  0.5282380000000  0.4887880000000 1.0
C      1  0.5203140000000  0.5593630000000  0.5292110000000 1.0
C      1  0.4544800000000  0.4827090000000  0.5892560000000 1.0
C      1  0.4694820000000  0.4508210000000  0.4282500000000 1.0
C      1  0.4916630000000  0.5316180000000  0.5155200000000 1.0
C      1  0.5024850000000  0.4209050000000  0.5686960000000 1.0
C      1  0.5085350000000  0.6019540000000  0.5276840000000 1.0
C      1  0.4844660000000  0.3794910000000  0.4940850000000 1.0
C      1  0.4693560000000  0.5083570000000  0.5494310000000 1.0
C      1  0.4541550000000  0.4527970000000  0.5887180000000 1.0
C      1  0.5862540000000  0.4581860000000  0.5354520000000 1.0
C      1  0.5007540000000  0.4627490000000  0.4658330000000 1.0
C      1  0.5895510000000  0.5088350000000  0.4486490000000 1.0
C      1  0.5271100000000  0.5630020000000  0.4145430000000 1.0
C      1  0.5891640000000  0.4479880000000  0.5065000000000 1.0
C      1  0.5969210000000  0.5544510000000  0.4539270000000 1.0
C      1  0.4027080000000  0.5102610000000  0.4692330000000 1.0
C      1  0.5381870000000  0.4933150000000  0.5693270000000 1.0
C      1  0.4549830000000  0.5098580000000  0.4661760000000 1.0
C      1  0.3844040000000  0.4711690000000  0.5002110000000 1.0
C      1  0.5284040000000  0.4410680000000  0.6043040000000 1.0
C      1  0.4443890000000  0.4871530000000  0.5106040000000 1.0
C      1  0.5023240000000  0.4396610000000  0.4238100000000 1.0
C      1  0.4487640000000  0.4567250000000  0.4970460000000 1.0
C      1  0.4619450000000  0.5083760000000  0.4960730000000 1.0
C      1  0.5694160000000  0.4580370000000  0.5805470000000 1.0
C      1  0.5070270000000  0.5322640000000  0.5630120000000 1.0
C      1  0.5000550000000  0.5137490000000  0.4465600000000 1.0
C      1  0.3975520000000  0.4636720000000  0.4538020000000 1.0
C      1  0.4174520000000  0.5161040000000  0.4438390000000 1.0
C      1  0.5654460000000  0.4825710000000  0.4157540000000 1.0
C      1  0.4802400000000  0.4500420000000  0.6038090000000 1.0
C      1  0.4617820000000  0.5995220000000  0.5330080000000 1.0
C      1  0.4593560000000  0.5585990000000  0.5017620000000 1.0
C      1  0.4600980000000  0.4606430000000  0.5453060000000 1.0
END
