TITL C-950535-5962-372 -1.79205642731429e-06 125000 -712.607360736209 0 0 114 (C1) n - 1
REM
REM in /home/bkarasulu/work/CARBON/AIRSS/Generating-Clusters/EDIP-Nigel-Params/with-SteepDescent/Only-C1/SD-CG/HFTN-CG
REM
REM
REM
REM
REM
REM ./C.cell (11c1c37f851c82e70ff6c80c92926a4b)
REM
REM compiler GCC version 9.2.1 20190827 (Red Hat 9.2.1-1)
REM options -cpp -mtune=generic -march=x86-64 -g -O0 -fpre-include=/usr/include/finclude/math-vector-fortran.h
REM seed 1796298256 1633491230 -962851897 175996766 1845002533 -135572409 1052384187 -635084974 622816502 -1876943384 -1202905166 930002952 1105742190 1222047341 -1306129386 -54991875 579701400 -534120507 -1581998946 -389846464 2140645395 -1475243355 -651564297 816238795 -1641150393 -2071381788 -221335266 -1309920298 1746850175 -443550746 701063566 517156012 1339729127
REM
CELL 1.54180   50.00000   50.00000   50.00000   90.00000   90.00000   90.00000
LATT -1
SFAC C  
C      1  0.4598800000000  0.5625180000000  0.4265550000000 1.0
C      1  0.4495180000000  0.5654050000000  0.4724890000000 1.0
C      1  0.4766560000000  0.5535470000000  0.4829800000000 1.0
C      1  0.4093970000000  0.4986930000000  0.4926330000000 1.0
C      1  0.5661020000000  0.5556840000000  0.5021170000000 1.0
C      1  0.4515650000000  0.5286060000000  0.5205110000000 1.0
C      1  0.5082490000000  0.4533080000000  0.5366110000000 1.0
C      1  0.5525660000000  0.4998780000000  0.5771180000000 1.0
C      1  0.5555660000000  0.4897720000000  0.5301210000000 1.0
C      1  0.4949730000000  0.3997970000000  0.5126540000000 1.0
C      1  0.5260700000000  0.4292140000000  0.4811770000000 1.0
C      1  0.4314770000000  0.5685120000000  0.4961540000000 1.0
C      1  0.5174090000000  0.4880580000000  0.4455360000000 1.0
C      1  0.5245180000000  0.5259850000000  0.4252600000000 1.0
C      1  0.4813410000000  0.4059740000000  0.5365170000000 1.0
C      1  0.5232230000000  0.4999670000000  0.4091530000000 1.0
C      1  0.4655570000000  0.4267330000000  0.5476170000000 1.0
C      1  0.5799880000000  0.4744110000000  0.4619090000000 1.0
C      1  0.5773330000000  0.5325430000000  0.5160800000000 1.0
C      1  0.5582760000000  0.5204330000000  0.5345510000000 1.0
C      1  0.4421780000000  0.5533020000000  0.4462270000000 1.0
C      1  0.4756350000000  0.5468180000000  0.5132980000000 1.0
C      1  0.5963930000000  0.5137490000000  0.5064910000000 1.0
C      1  0.4162110000000  0.5461060000000  0.5044150000000 1.0
C      1  0.5035700000000  0.5941810000000  0.4937540000000 1.0
C      1  0.5884130000000  0.4972110000000  0.5614880000000 1.0
C      1  0.4168910000000  0.5083210000000  0.5389200000000 1.0
C      1  0.4798270000000  0.5139450000000  0.4208680000000 1.0
C      1  0.5960610000000  0.4860210000000  0.5110330000000 1.0
C      1  0.4996330000000  0.5802420000000  0.4476650000000 1.0
C      1  0.5414630000000  0.4809870000000  0.5554280000000 1.0
C      1  0.5697650000000  0.5196240000000  0.5620690000000 1.0
C      1  0.5191310000000  0.5346060000000  0.4944940000000 1.0
C      1  0.4538470000000  0.5080720000000  0.4883010000000 1.0
C      1  0.4337680000000  0.4780290000000  0.4562410000000 1.0
C      1  0.5675770000000  0.4996820000000  0.4525740000000 1.0
C      1  0.5407050000000  0.4767960000000  0.4165220000000 1.0
C      1  0.4658990000000  0.4995800000000  0.5331520000000 1.0
C      1  0.4467440000000  0.5824960000000  0.5157510000000 1.0
C      1  0.5426210000000  0.5460180000000  0.4185530000000 1.0
C      1  0.5481950000000  0.5591840000000  0.4425260000000 1.0
C      1  0.5821190000000  0.4699650000000  0.4911040000000 1.0
C      1  0.4241780000000  0.4543810000000  0.5460370000000 1.0
C      1  0.5494440000000  0.4525460000000  0.5614690000000 1.0
C      1  0.4356610000000  0.5244860000000  0.4455510000000 1.0
C      1  0.4118450000000  0.4796890000000  0.5451040000000 1.0
C      1  0.5796280000000  0.5643510000000  0.4794680000000 1.0
C      1  0.5057620000000  0.4960730000000  0.5951770000000 1.0
C      1  0.4497630000000  0.5089090000000  0.4244320000000 1.0
C      1  0.5414080000000  0.4535810000000  0.4337370000000 1.0
C      1  0.4479140000000  0.5238160000000  0.5762230000000 1.0
C      1  0.4780470000000  0.3984450000000  0.4904820000000 1.0
C      1  0.4267960000000  0.5284480000000  0.5570350000000 1.0
C      1  0.4638180000000  0.4227750000000  0.4911980000000 1.0
C      1  0.5171200000000  0.5388820000000  0.5804510000000 1.0
C      1  0.5402590000000  0.4174420000000  0.5300290000000 1.0
C      1  0.4382790000000  0.4274980000000  0.5070650000000 1.0
C      1  0.5406320000000  0.4926690000000  0.4667210000000 1.0
C      1  0.5655830000000  0.4331150000000  0.5239480000000 1.0
C      1  0.5240920000000  0.5703820000000  0.5300230000000 1.0
C      1  0.4784970000000  0.4523680000000  0.5453760000000 1.0
C      1  0.4819230000000  0.5119250000000  0.6022650000000 1.0
C      1  0.4852700000000  0.4450540000000  0.4487440000000 1.0
C      1  0.4623800000000  0.4571830000000  0.4205090000000 1.0
C      1  0.4533750000000  0.4861730000000  0.5089390000000 1.0
C      1  0.4893580000000  0.4642860000000  0.4948590000000 1.0
C      1  0.4718000000000  0.5728920000000  0.5278830000000 1.0
C      1  0.4605310000000  0.5650240000000  0.5550860000000 1.0
C      1  0.4893800000000  0.4634060000000  0.4147610000000 1.0
C      1  0.4879450000000  0.5617870000000  0.4281180000000 1.0
C      1  0.5554640000000  0.4335710000000  0.4758590000000 1.0
C      1  0.5362370000000  0.5612600000000  0.5031240000000 1.0
C      1  0.4949350000000  0.4911710000000  0.4078030000000 1.0
C      1  0.5101880000000  0.4291920000000  0.4536950000000 1.0
C      1  0.4296730000000  0.5043230000000  0.4699590000000 1.0
C      1  0.4377740000000  0.4307080000000  0.5371430000000 1.0
C      1  0.4976440000000  0.5346650000000  0.4361860000000 1.0
C      1  0.4349410000000  0.5534250000000  0.5437150000000 1.0
C      1  0.5257250000000  0.4305320000000  0.4303770000000 1.0
C      1  0.5835150000000  0.4789180000000  0.5377470000000 1.0
C      1  0.5404540000000  0.4781430000000  0.5015300000000 1.0
C      1  0.5622560000000  0.4513770000000  0.4536820000000 1.0
C      1  0.4956130000000  0.5026150000000  0.5243280000000 1.0
C      1  0.4852610000000  0.4887790000000  0.4509320000000 1.0
C      1  0.4704720000000  0.4481020000000  0.4754630000000 1.0
C      1  0.5747850000000  0.4501020000000  0.5460900000000 1.0
C      1  0.5807340000000  0.5245020000000  0.4533800000000 1.0
C      1  0.5359050000000  0.5099240000000  0.4914310000000 1.0
C      1  0.4688730000000  0.5418800000000  0.5701800000000 1.0
C      1  0.4088910000000  0.5198160000000  0.5128820000000 1.0
C      1  0.5293240000000  0.5141090000000  0.5909980000000 1.0
C      1  0.4835420000000  0.5837980000000  0.4731660000000 1.0
C      1  0.4893700000000  0.5391600000000  0.5901460000000 1.0
C      1  0.5218780000000  0.4107800000000  0.5066260000000 1.0
C      1  0.4548520000000  0.4811590000000  0.4366870000000 1.0
C      1  0.4244140000000  0.4766980000000  0.5090600000000 1.0
C      1  0.5729260000000  0.5512160000000  0.4558210000000 1.0
C      1  0.5293180000000  0.5828410000000  0.4840530000000 1.0
C      1  0.5692330000000  0.4450530000000  0.4978600000000 1.0
C      1  0.5277850000000  0.4347010000000  0.5509540000000 1.0
C      1  0.4237300000000  0.4501980000000  0.4945490000000 1.0
C      1  0.5020160000000  0.5323040000000  0.5206270000000 1.0
C      1  0.5265660000000  0.5731880000000  0.4568460000000 1.0
C      1  0.4680760000000  0.4793490000000  0.5591380000000 1.0
C      1  0.5130360000000  0.4820630000000  0.5464220000000 1.0
C      1  0.4961230000000  0.4848370000000  0.5697250000000 1.0
C      1  0.4573970000000  0.5000680000000  0.5894400000000 1.0
C      1  0.4402950000000  0.4546040000000  0.4710210000000 1.0
C      1  0.5158140000000  0.5460720000000  0.5438920000000 1.0
C      1  0.4955420000000  0.4924390000000  0.4960940000000 1.0
C      1  0.4951630000000  0.5329420000000  0.4697260000000 1.0
C      1  0.4813320000000  0.5063900000000  0.4752080000000 1.0
C      1  0.4996530000000  0.5870150000000  0.5226930000000 1.0
C      1  0.5162780000000  0.4544500000000  0.5044350000000 1.0
END
