TITL C-950524-1808-693 1.75253008816596e-06 125000 -455.37656066907 0 0 76 (C1) n - 1
REM
REM in /home/bkarasulu/work/CARBON/AIRSS/Generating-Clusters/EDIP-Nigel-Params/with-SteepDescent/Only-C1/SD-CG/HFTN-CG
REM
REM
REM
REM
REM
REM ./C.cell (11c1c37f851c82e70ff6c80c92926a4b)
REM
REM compiler GCC version 9.2.1 20190827 (Red Hat 9.2.1-1)
REM options -cpp -mtune=generic -march=x86-64 -g -O0 -fpre-include=/usr/include/finclude/math-vector-fortran.h
REM seed 314101730 -1719560703 1417951070 1686197281 -920438464 419420311 1839262174 -893722101 -1770724809 1937863721 -1157755580 -814812088 -887755375 1866696499 1274902603 307834958 -94372010 153671316 -281803177 448602569 1183835034 -937242779 1088466828 582710158 258129380 -140681932 1513527684 -1819283816 -1104330809 1242212073 -1931313773 1952880251 897205357
REM
CELL 1.54180   50.00000   50.00000   50.00000   90.00000   90.00000   90.00000
LATT -1
SFAC C  
C      1  0.5558610000000  0.4831930000000  0.4569360000000 1.0
C      1  0.5452780000000  0.5297150000000  0.4453260000000 1.0
C      1  0.4962090000000  0.4884860000000  0.4976510000000 1.0
C      1  0.5193770000000  0.5517820000000  0.4765710000000 1.0
C      1  0.4743290000000  0.5500110000000  0.4599780000000 1.0
C      1  0.5746390000000  0.5375320000000  0.5438580000000 1.0
C      1  0.4879830000000  0.5175230000000  0.5353890000000 1.0
C      1  0.5440620000000  0.4891070000000  0.4846810000000 1.0
C      1  0.5183740000000  0.5049960000000  0.4867470000000 1.0
C      1  0.5634620000000  0.5010840000000  0.5663430000000 1.0
C      1  0.5625300000000  0.5471390000000  0.5189860000000 1.0
C      1  0.5628750000000  0.5012140000000  0.5035070000000 1.0
C      1  0.4127840000000  0.4843790000000  0.4985930000000 1.0
C      1  0.5503500000000  0.4558070000000  0.4503960000000 1.0
C      1  0.5040780000000  0.5002400000000  0.4254540000000 1.0
C      1  0.4853430000000  0.5641820000000  0.5087950000000 1.0
C      1  0.4616470000000  0.4301720000000  0.5178400000000 1.0
C      1  0.5444050000000  0.4901480000000  0.4097390000000 1.0
C      1  0.5329140000000  0.5507250000000  0.5184660000000 1.0
C      1  0.4451370000000  0.4503340000000  0.5239700000000 1.0
C      1  0.5845450000000  0.5006900000000  0.5463610000000 1.0
C      1  0.5284740000000  0.5370380000000  0.5604400000000 1.0
C      1  0.5563490000000  0.5294830000000  0.5650740000000 1.0
C      1  0.4665770000000  0.4519130000000  0.4367970000000 1.0
C      1  0.4414070000000  0.5446190000000  0.5073860000000 1.0
C      1  0.4572290000000  0.5657440000000  0.5154830000000 1.0
C      1  0.4715090000000  0.4930220000000  0.5852470000000 1.0
C      1  0.4584620000000  0.4947280000000  0.4559220000000 1.0
C      1  0.4912200000000  0.5420580000000  0.4377400000000 1.0
C      1  0.4874450000000  0.4275530000000  0.5076530000000 1.0
C      1  0.4437960000000  0.5184430000000  0.4978020000000 1.0
C      1  0.4937290000000  0.4575030000000  0.4265510000000 1.0
C      1  0.4486060000000  0.5348490000000  0.5636840000000 1.0
C      1  0.5182880000000  0.5421110000000  0.4492250000000 1.0
C      1  0.5008160000000  0.5004940000000  0.5832320000000 1.0
C      1  0.4847220000000  0.5201700000000  0.4195110000000 1.0
C      1  0.5782750000000  0.4851700000000  0.5222490000000 1.0
C      1  0.5081840000000  0.5163620000000  0.5582090000000 1.0
C      1  0.5088620000000  0.5651700000000  0.5269310000000 1.0
C      1  0.4339570000000  0.4957730000000  0.5132300000000 1.0
C      1  0.5042210000000  0.4352340000000  0.5517420000000 1.0
C      1  0.5038060000000  0.4714680000000  0.4511500000000 1.0
C      1  0.4500310000000  0.4762630000000  0.4337640000000 1.0
C      1  0.4724750000000  0.4711930000000  0.5653560000000 1.0
C      1  0.4537910000000  0.4765350000000  0.5210900000000 1.0
C      1  0.4120130000000  0.4925110000000  0.4726820000000 1.0
C      1  0.5318020000000  0.4628860000000  0.4926260000000 1.0
C      1  0.5659490000000  0.4579360000000  0.5294430000000 1.0
C      1  0.5060300000000  0.5256690000000  0.5072310000000 1.0
C      1  0.4920170000000  0.5584110000000  0.4815920000000 1.0
C      1  0.5470180000000  0.5010410000000  0.4362300000000 1.0
C      1  0.5177030000000  0.4816950000000  0.4092380000000 1.0
C      1  0.4674880000000  0.5408770000000  0.5421590000000 1.0
C      1  0.5286230000000  0.4777710000000  0.5523820000000 1.0
C      1  0.5247980000000  0.4524360000000  0.4648600000000 1.0
C      1  0.5143130000000  0.4256690000000  0.4660070000000 1.0
C      1  0.5048470000000  0.4727420000000  0.5262680000000 1.0
C      1  0.5696930000000  0.5289800000000  0.4963630000000 1.0
C      1  0.4886230000000  0.4278770000000  0.4781030000000 1.0
C      1  0.4467060000000  0.5560260000000  0.4559770000000 1.0
C      1  0.4691520000000  0.4484800000000  0.4677710000000 1.0
C      1  0.5554580000000  0.5376720000000  0.4726260000000 1.0
C      1  0.4773120000000  0.4842340000000  0.5377510000000 1.0
C      1  0.4781220000000  0.5592480000000  0.5627750000000 1.0
C      1  0.5447900000000  0.4462940000000  0.5121530000000 1.0
C      1  0.4950290000000  0.4525210000000  0.5724070000000 1.0
C      1  0.4276980000000  0.5344570000000  0.4529940000000 1.0
C      1  0.5148340000000  0.4743560000000  0.5782310000000 1.0
C      1  0.4350690000000  0.5102180000000  0.4698830000000 1.0
C      1  0.4534620000000  0.5133820000000  0.5796440000000 1.0
C      1  0.4566940000000  0.5114310000000  0.4204920000000 1.0
C      1  0.5547220000000  0.4656270000000  0.5547110000000 1.0
C      1  0.5086580000000  0.4417310000000  0.5240100000000 1.0
C      1  0.4377860000000  0.5329020000000  0.4259370000000 1.0
C      1  0.4806990000000  0.4772870000000  0.4710780000000 1.0
C      1  0.5044770000000  0.5662790000000  0.5553200000000 1.0
END
