TITL C-951346-9544-80 -6.24589165562864e-07 125000 -191.661127755537 0 0 32 (C1) n - 1
REM
REM in /home/bkarasulu/work/CARBON/AIRSS/Generating-Clusters/EDIP-Nigel-Params/with-SteepDescent/Only-C1/SD-CG/HFTN-CG
REM
REM
REM
REM
REM
REM ./C.cell (11c1c37f851c82e70ff6c80c92926a4b)
REM
REM compiler GCC version 9.2.1 20190827 (Red Hat 9.2.1-1)
REM options -cpp -mtune=generic -march=x86-64 -g -O0 -fpre-include=/usr/include/finclude/math-vector-fortran.h
REM seed -1326711388 -630504531 -1903380074 -653040200 248769251 295580035 32809499 -1278848657 -688958763 1659963240 765995026 -1879421026 1023892505 -171451702 -1699817664 1753186003 -1667848606 -348074482 2096003321 -2050523187 54299791 -1097165166 -84207148 198964453 1024310492 -1210620063 -543465799 -1649791810 1539188258 -1180695711 1574951673 1234516476 -1800656691
REM
CELL 1.54180   50.00000   50.00000   50.00000   90.00000   90.00000   90.00000
LATT -1
SFAC C  
C      1  0.4934940000000  0.5390540000000  0.4639290000000 1.0
C      1  0.5396160000000  0.4851530000000  0.5474240000000 1.0
C      1  0.5439640000000  0.5254860000000  0.4970080000000 1.0
C      1  0.4750220000000  0.5055200000000  0.5442420000000 1.0
C      1  0.5790890000000  0.5090990000000  0.4994890000000 1.0
C      1  0.4952590000000  0.4655620000000  0.5295980000000 1.0
C      1  0.5561160000000  0.5057030000000  0.5408480000000 1.0
C      1  0.5036880000000  0.5478030000000  0.5077490000000 1.0
C      1  0.4399610000000  0.4609240000000  0.5109320000000 1.0
C      1  0.4841540000000  0.5339390000000  0.4906760000000 1.0
C      1  0.4602160000000  0.4551210000000  0.4928260000000 1.0
C      1  0.4867100000000  0.4638940000000  0.5012520000000 1.0
C      1  0.4735200000000  0.4759900000000  0.5467510000000 1.0
C      1  0.4603890000000  0.5176350000000  0.4966200000000 1.0
C      1  0.5008390000000  0.4778530000000  0.4567700000000 1.0
C      1  0.4528830000000  0.5083520000000  0.5243670000000 1.0
C      1  0.4859140000000  0.5211470000000  0.4441330000000 1.0
C      1  0.5626360000000  0.5223150000000  0.5193210000000 1.0
C      1  0.5177730000000  0.4867840000000  0.5281940000000 1.0
C      1  0.5190880000000  0.5507700000000  0.4635780000000 1.0
C      1  0.5290670000000  0.4841720000000  0.4983830000000 1.0
C      1  0.5530330000000  0.4678000000000  0.4980270000000 1.0
C      1  0.4404700000000  0.4815100000000  0.5296540000000 1.0
C      1  0.5078630000000  0.4701370000000  0.4826340000000 1.0
C      1  0.5277050000000  0.5486980000000  0.4906270000000 1.0
C      1  0.4537810000000  0.4612210000000  0.4662890000000 1.0
C      1  0.4809000000000  0.4936260000000  0.4448310000000 1.0
C      1  0.5014740000000  0.5119930000000  0.5336390000000 1.0
C      1  0.4544690000000  0.4875470000000  0.4562040000000 1.0
C      1  0.5657540000000  0.4886390000000  0.4853760000000 1.0
C      1  0.5088980000000  0.5390880000000  0.5340620000000 1.0
C      1  0.4462580000000  0.5074660000000  0.4745660000000 1.0
END
