TITL C-951337-3020-164 1.12003159969696e-07 125000 -770.828247141046 0 0 123 (C1) n - 1
REM
REM in /home/bkarasulu/work/CARBON/AIRSS/Generating-Clusters/EDIP-Nigel-Params/with-SteepDescent/Only-C1/SD-CG/HFTN-CG
REM
REM
REM
REM
REM
REM ./C.cell (11c1c37f851c82e70ff6c80c92926a4b)
REM
REM compiler GCC version 9.2.1 20190827 (Red Hat 9.2.1-1)
REM options -cpp -mtune=generic -march=x86-64 -g -O0 -fpre-include=/usr/include/finclude/math-vector-fortran.h
REM seed 1241724896 -2063882114 1171006495 -1678778524 -1809041077 1825989944 2045998595 169590884 885975588 -274666676 375264253 -2089718529 304665781 -511441517 -1166232848 98012408 -1045499927 -1398945381 -58308661 -394347821 -207964527 1680902273 1291877407 626977036 386116752 1693705306 1659357096 1054835099 1231621506 -679198444 -1043771655 -263083961 -1023354476
REM
CELL 1.54180   50.00000   50.00000   50.00000   90.00000   90.00000   90.00000
LATT -1
SFAC C  
C      1  0.4537840000000  0.4319730000000  0.5193730000000 1.0
C      1  0.5780800000000  0.4622680000000  0.4642900000000 1.0
C      1  0.4616860000000  0.4620070000000  0.5155350000000 1.0
C      1  0.4881820000000  0.5963480000000  0.4460300000000 1.0
C      1  0.5372670000000  0.5481920000000  0.4481850000000 1.0
C      1  0.4145860000000  0.4747480000000  0.4820640000000 1.0
C      1  0.4875700000000  0.4285910000000  0.4512240000000 1.0
C      1  0.4603490000000  0.5478940000000  0.5424960000000 1.0
C      1  0.4816480000000  0.5210850000000  0.5068110000000 1.0
C      1  0.4943000000000  0.5714170000000  0.4331570000000 1.0
C      1  0.4696520000000  0.4412520000000  0.5644330000000 1.0
C      1  0.4504920000000  0.4956020000000  0.5784080000000 1.0
C      1  0.5257750000000  0.4140480000000  0.5378570000000 1.0
C      1  0.4322560000000  0.4308300000000  0.4734070000000 1.0
C      1  0.5306090000000  0.5244960000000  0.5720420000000 1.0
C      1  0.5291850000000  0.5174130000000  0.5226760000000 1.0
C      1  0.5000640000000  0.5893620000000  0.4960620000000 1.0
C      1  0.5545140000000  0.5071850000000  0.4378180000000 1.0
C      1  0.5294640000000  0.5382820000000  0.5456970000000 1.0
C      1  0.5558810000000  0.5111950000000  0.5776870000000 1.0
C      1  0.4972430000000  0.4600070000000  0.5852150000000 1.0
C      1  0.5243460000000  0.5289140000000  0.4693080000000 1.0
C      1  0.5620090000000  0.4602290000000  0.4884200000000 1.0
C      1  0.5517220000000  0.5589060000000  0.5424260000000 1.0
C      1  0.5360470000000  0.5833130000000  0.5347920000000 1.0
C      1  0.4763300000000  0.5115160000000  0.4123460000000 1.0
C      1  0.5860610000000  0.4778710000000  0.5249240000000 1.0
C      1  0.4434610000000  0.5824240000000  0.4644770000000 1.0
C      1  0.4782400000000  0.5127690000000  0.4784080000000 1.0
C      1  0.5501940000000  0.4845500000000  0.5898190000000 1.0
C      1  0.4386180000000  0.4598270000000  0.4740110000000 1.0
C      1  0.5723300000000  0.4310390000000  0.5276760000000 1.0
C      1  0.4786150000000  0.4191640000000  0.4781350000000 1.0
C      1  0.5933110000000  0.4859820000000  0.4657890000000 1.0
C      1  0.5003530000000  0.4176240000000  0.5236410000000 1.0
C      1  0.4874010000000  0.4586830000000  0.4099410000000 1.0
C      1  0.5788300000000  0.4535140000000  0.5122380000000 1.0
C      1  0.4441130000000  0.4520070000000  0.4364920000000 1.0
C      1  0.4741380000000  0.4490810000000  0.4345370000000 1.0
C      1  0.5129240000000  0.4544060000000  0.5292180000000 1.0
C      1  0.5235240000000  0.4447610000000  0.5793160000000 1.0
C      1  0.4699430000000  0.5729390000000  0.5318700000000 1.0
C      1  0.4868360000000  0.4721000000000  0.5328980000000 1.0
C      1  0.4715550000000  0.5808920000000  0.5042610000000 1.0
C      1  0.5097240000000  0.5819740000000  0.5486680000000 1.0
C      1  0.5159490000000  0.4819690000000  0.4519480000000 1.0
C      1  0.5090050000000  0.5805110000000  0.5766000000000 1.0
C      1  0.5093110000000  0.5911280000000  0.4675300000000 1.0
C      1  0.4748070000000  0.4236340000000  0.5385970000000 1.0
C      1  0.4934480000000  0.5351490000000  0.4052920000000 1.0
C      1  0.4992140000000  0.4080760000000  0.4948480000000 1.0
C      1  0.5071730000000  0.4840270000000  0.6019420000000 1.0
C      1  0.4278720000000  0.4306850000000  0.5335390000000 1.0
C      1  0.5655660000000  0.5350150000000  0.4466720000000 1.0
C      1  0.5213180000000  0.5376560000000  0.4158630000000 1.0
C      1  0.4644690000000  0.4675740000000  0.4868630000000 1.0
C      1  0.5350800000000  0.4716520000000  0.5413630000000 1.0
C      1  0.5124190000000  0.5335260000000  0.5937500000000 1.0
C      1  0.5500870000000  0.4928250000000  0.5250450000000 1.0
C      1  0.5780260000000  0.5336770000000  0.4734720000000 1.0
C      1  0.4271410000000  0.5086880000000  0.5589120000000 1.0
C      1  0.5675160000000  0.5530130000000  0.4932800000000 1.0
C      1  0.4617050000000  0.6009780000000  0.4539920000000 1.0
C      1  0.4542930000000  0.5549500000000  0.4585130000000 1.0
C      1  0.4387430000000  0.5304440000000  0.4701980000000 1.0
C      1  0.5817880000000  0.5226580000000  0.5310340000000 1.0
C      1  0.5371180000000  0.4439730000000  0.4843270000000 1.0
C      1  0.5267670000000  0.5391010000000  0.4984510000000 1.0
C      1  0.4537490000000  0.5499570000000  0.4281330000000 1.0
C      1  0.4868900000000  0.4849310000000  0.4751370000000 1.0
C      1  0.5010370000000  0.5015480000000  0.5198520000000 1.0
C      1  0.5484430000000  0.4088620000000  0.4934330000000 1.0
C      1  0.4437730000000  0.5820040000000  0.4936010000000 1.0
C      1  0.5172100000000  0.4269130000000  0.4516290000000 1.0
C      1  0.5178120000000  0.4614370000000  0.4126730000000 1.0
C      1  0.4785840000000  0.4849970000000  0.4012190000000 1.0
C      1  0.4768760000000  0.4724740000000  0.5621350000000 1.0
C      1  0.5491610000000  0.5751240000000  0.4867000000000 1.0
C      1  0.5232600000000  0.4080260000000  0.4774670000000 1.0
C      1  0.4508760000000  0.5212750000000  0.4227070000000 1.0
C      1  0.5736410000000  0.5118240000000  0.5556550000000 1.0
C      1  0.5164320000000  0.4573850000000  0.5006270000000 1.0
C      1  0.4404710000000  0.4446130000000  0.5673800000000 1.0
C      1  0.4740430000000  0.5401480000000  0.5676620000000 1.0
C      1  0.5907000000000  0.5031060000000  0.5118500000000 1.0
C      1  0.4497070000000  0.4998180000000  0.5401940000000 1.0
C      1  0.4954880000000  0.5308690000000  0.4638150000000 1.0
C      1  0.4400240000000  0.5094270000000  0.4468930000000 1.0
C      1  0.5335750000000  0.5116760000000  0.4170430000000 1.0
C      1  0.5427160000000  0.4644060000000  0.5688150000000 1.0
C      1  0.4329840000000  0.4261500000000  0.4455050000000 1.0
C      1  0.5711220000000  0.5481840000000  0.5222650000000 1.0
C      1  0.4074000000000  0.5183430000000  0.5407910000000 1.0
C      1  0.4780680000000  0.5588280000000  0.4139800000000 1.0
C      1  0.5370390000000  0.5005510000000  0.4639760000000 1.0
C      1  0.5505670000000  0.4144830000000  0.5216150000000 1.0
C      1  0.4319510000000  0.5333690000000  0.5014720000000 1.0
C      1  0.4262120000000  0.4838230000000  0.4408430000000 1.0
C      1  0.4524420000000  0.4186650000000  0.4911240000000 1.0
C      1  0.4171560000000  0.4877420000000  0.5076370000000 1.0
C      1  0.4093970000000  0.5157370000000  0.5127000000000 1.0
C      1  0.4555270000000  0.5255150000000  0.5223750000000 1.0
C      1  0.4268280000000  0.5619540000000  0.5045110000000 1.0
C      1  0.4735800000000  0.5132370000000  0.5787720000000 1.0
C      1  0.4973310000000  0.5466590000000  0.5054710000000 1.0
C      1  0.5703790000000  0.4849740000000  0.4271610000000 1.0
C      1  0.5248990000000  0.4212220000000  0.5646010000000 1.0
C      1  0.5363170000000  0.5763980000000  0.4604700000000 1.0
C      1  0.4939670000000  0.5103090000000  0.5989640000000 1.0
C      1  0.5030940000000  0.5539660000000  0.5379720000000 1.0
C      1  0.5273610000000  0.5778770000000  0.5068270000000 1.0
C      1  0.4958920000000  0.5554530000000  0.5815470000000 1.0
C      1  0.5307420000000  0.4545880000000  0.4417570000000 1.0
C      1  0.5126560000000  0.4916330000000  0.4229090000000 1.0
C      1  0.5332760000000  0.4840770000000  0.6127480000000 1.0
C      1  0.5867100000000  0.5071670000000  0.4831120000000 1.0
C      1  0.4243270000000  0.4565530000000  0.5458500000000 1.0
C      1  0.5100320000000  0.4849650000000  0.4955420000000 1.0
C      1  0.4373660000000  0.4764030000000  0.5268400000000 1.0
C      1  0.5616540000000  0.4612230000000  0.4401810000000 1.0
C      1  0.5487540000000  0.4870700000000  0.4929520000000 1.0
C      1  0.4851940000000  0.5585220000000  0.4686870000000 1.0
C      1  0.4032780000000  0.4839520000000  0.4581150000000 1.0
END
