TITL C-951348-1603-552 1.10191257501801e-06 125000 -1083.09881956105 0 0 174 (C1) n - 1
REM
REM in /home/bkarasulu/work/CARBON/AIRSS/Generating-Clusters/EDIP-Nigel-Params/with-SteepDescent/Only-C1/SD-CG/HFTN-CG
REM
REM
REM
REM
REM
REM ./C.cell (11c1c37f851c82e70ff6c80c92926a4b)
REM
REM compiler GCC version 9.2.1 20190827 (Red Hat 9.2.1-1)
REM options -cpp -mtune=generic -march=x86-64 -g -O0 -fpre-include=/usr/include/finclude/math-vector-fortran.h
REM seed -1889619977 1870227460 2074877806 -706767640 1981558713 1779859769 73358623 122292031 603056727 597442396 -1080049696 -1477369735 -2029916866 837045663 -1120802060 -780137502 -415881164 150541895 2127438966 -1033895679 283391103 -1853306365 1101082339 645636347 120726752 -2057390126 -1875829298 456167635 1146813029 457276958 -1903870903 1155270770 1252502767
REM
CELL 1.54180   50.00000   50.00000   50.00000   90.00000   90.00000   90.00000
LATT -1
SFAC C  
C      1  0.4562750000000  0.5978440000000  0.5257130000000 1.0
C      1  0.4131870000000  0.5394400000000  0.5380180000000 1.0
C      1  0.4698840000000  0.4999610000000  0.3998990000000 1.0
C      1  0.3960810000000  0.5497300000000  0.5160090000000 1.0
C      1  0.5691870000000  0.4351310000000  0.4410610000000 1.0
C      1  0.4892800000000  0.4493490000000  0.4675040000000 1.0
C      1  0.4479220000000  0.4651740000000  0.5675990000000 1.0
C      1  0.5030500000000  0.4687410000000  0.4192930000000 1.0
C      1  0.5612450000000  0.4636620000000  0.5701640000000 1.0
C      1  0.5705670000000  0.4181500000000  0.4866470000000 1.0
C      1  0.5744420000000  0.4962390000000  0.4687290000000 1.0
C      1  0.4226860000000  0.4827800000000  0.4069490000000 1.0
C      1  0.4781420000000  0.5634400000000  0.5513190000000 1.0
C      1  0.5147880000000  0.4759100000000  0.5089880000000 1.0
C      1  0.4298150000000  0.4594480000000  0.4660650000000 1.0
C      1  0.5118870000000  0.5250990000000  0.4476700000000 1.0
C      1  0.6044130000000  0.4808580000000  0.5598890000000 1.0
C      1  0.4577550000000  0.4490250000000  0.4226040000000 1.0
C      1  0.6104590000000  0.5396480000000  0.5136910000000 1.0
C      1  0.4197680000000  0.4403600000000  0.5439700000000 1.0
C      1  0.5509070000000  0.4466990000000  0.5369970000000 1.0
C      1  0.4082460000000  0.4425950000000  0.5183180000000 1.0
C      1  0.4857550000000  0.4675670000000  0.4935900000000 1.0
C      1  0.5176520000000  0.4446090000000  0.4120980000000 1.0
C      1  0.4268460000000  0.5843250000000  0.4951750000000 1.0
C      1  0.4806460000000  0.4503140000000  0.5966750000000 1.0
C      1  0.4638720000000  0.4879440000000  0.4421820000000 1.0
C      1  0.4967880000000  0.5448350000000  0.4675720000000 1.0
C      1  0.6235230000000  0.4970750000000  0.4689880000000 1.0
C      1  0.5366100000000  0.4536290000000  0.5098440000000 1.0
C      1  0.4509420000000  0.5587770000000  0.4708090000000 1.0
C      1  0.4482460000000  0.5280070000000  0.4673610000000 1.0
C      1  0.5024040000000  0.4043520000000  0.4463130000000 1.0
C      1  0.4082270000000  0.5007070000000  0.5658130000000 1.0
C      1  0.5861540000000  0.5500210000000  0.5040650000000 1.0
C      1  0.5733300000000  0.4293060000000  0.5296410000000 1.0
C      1  0.4455410000000  0.4256690000000  0.5384780000000 1.0
C      1  0.5428810000000  0.5400910000000  0.4850210000000 1.0
C      1  0.4743520000000  0.4966380000000  0.5384570000000 1.0
C      1  0.4306390000000  0.5713120000000  0.4531160000000 1.0
C      1  0.5782590000000  0.4636550000000  0.4477970000000 1.0
C      1  0.4985430000000  0.4973180000000  0.5554860000000 1.0
C      1  0.3876590000000  0.4792390000000  0.4915730000000 1.0
C      1  0.5891000000000  0.4655560000000  0.5755010000000 1.0
C      1  0.4259940000000  0.5019050000000  0.5060170000000 1.0
C      1  0.4171500000000  0.5091360000000  0.4196260000000 1.0
C      1  0.5477930000000  0.5160980000000  0.4584740000000 1.0
C      1  0.4592520000000  0.4397990000000  0.5793340000000 1.0
C      1  0.5730410000000  0.4869460000000  0.4983610000000 1.0
C      1  0.5596430000000  0.5071860000000  0.5172490000000 1.0
C      1  0.4656690000000  0.4204860000000  0.5582870000000 1.0
C      1  0.5213180000000  0.4312810000000  0.4975680000000 1.0
C      1  0.5573870000000  0.5518200000000  0.4099660000000 1.0
C      1  0.5005760000000  0.4663260000000  0.5790170000000 1.0
C      1  0.4097700000000  0.4612230000000  0.4236440000000 1.0
C      1  0.4185910000000  0.4654480000000  0.5613540000000 1.0
C      1  0.5739080000000  0.5515060000000  0.4554620000000 1.0
C      1  0.6083780000000  0.4936710000000  0.5355550000000 1.0
C      1  0.4346730000000  0.4707280000000  0.5158260000000 1.0
C      1  0.5584810000000  0.5655110000000  0.4342670000000 1.0
C      1  0.4242980000000  0.5191740000000  0.5843260000000 1.0
C      1  0.4977830000000  0.5785170000000  0.5346200000000 1.0
C      1  0.4758420000000  0.5592950000000  0.4530780000000 1.0
C      1  0.4367660000000  0.5257120000000  0.5248650000000 1.0
C      1  0.5273600000000  0.5774710000000  0.5745080000000 1.0
C      1  0.4503970000000  0.5516100000000  0.5102950000000 1.0
C      1  0.4743290000000  0.4091140000000  0.4976390000000 1.0
C      1  0.4181410000000  0.5167030000000  0.4713090000000 1.0
C      1  0.4929330000000  0.4979950000000  0.6090360000000 1.0
C      1  0.5187530000000  0.4083570000000  0.5466500000000 1.0
C      1  0.5462330000000  0.5554400000000  0.5787290000000 1.0
C      1  0.5226460000000  0.4892530000000  0.6082350000000 1.0
C      1  0.4749470000000  0.5164230000000  0.4424210000000 1.0
C      1  0.5476720000000  0.4898470000000  0.5646340000000 1.0
C      1  0.5288430000000  0.3991080000000  0.5191400000000 1.0
C      1  0.5403540000000  0.5050730000000  0.5902920000000 1.0
C      1  0.5428990000000  0.4621170000000  0.4638170000000 1.0
C      1  0.5521300000000  0.4789870000000  0.4092030000000 1.0
C      1  0.5577480000000  0.4106910000000  0.5116470000000 1.0
C      1  0.4865510000000  0.5818620000000  0.4374030000000 1.0
C      1  0.3947290000000  0.5179250000000  0.5471760000000 1.0
C      1  0.5164740000000  0.3900610000000  0.4674310000000 1.0
C      1  0.3992280000000  0.4641190000000  0.4710390000000 1.0
C      1  0.5395650000000  0.5923100000000  0.4858010000000 1.0
C      1  0.4513380000000  0.4768220000000  0.4072120000000 1.0
C      1  0.5286830000000  0.5659730000000  0.4899340000000 1.0
C      1  0.5917880000000  0.5297100000000  0.4459590000000 1.0
C      1  0.5094460000000  0.5685740000000  0.4220160000000 1.0
C      1  0.4543920000000  0.5139670000000  0.5791760000000 1.0
C      1  0.5681080000000  0.5894760000000  0.4838530000000 1.0
C      1  0.5996980000000  0.5120420000000  0.4678320000000 1.0
C      1  0.5116360000000  0.5250400000000  0.5596420000000 1.0
C      1  0.5190240000000  0.4232340000000  0.4319130000000 1.0
C      1  0.4721670000000  0.4242990000000  0.4714500000000 1.0
C      1  0.5034520000000  0.5275820000000  0.5160020000000 1.0
C      1  0.4864260000000  0.5935370000000  0.4874300000000 1.0
C      1  0.4845660000000  0.6057990000000  0.5309680000000 1.0
C      1  0.4642450000000  0.4884970000000  0.4886500000000 1.0
C      1  0.5183560000000  0.4797040000000  0.5410460000000 1.0
C      1  0.5265700000000  0.5978350000000  0.4587160000000 1.0
C      1  0.5286800000000  0.5846190000000  0.5373830000000 1.0
C      1  0.5585920000000  0.4603810000000  0.4905490000000 1.0
C      1  0.4242100000000  0.4251270000000  0.4996170000000 1.0
C      1  0.4599340000000  0.4705070000000  0.5375620000000 1.0
C      1  0.5190570000000  0.4398090000000  0.4667670000000 1.0
C      1  0.4558760000000  0.5159840000000  0.5476190000000 1.0
C      1  0.6211760000000  0.4810580000000  0.4908010000000 1.0
C      1  0.4109970000000  0.5606230000000  0.4932810000000 1.0
C      1  0.5629110000000  0.5249110000000  0.4065070000000 1.0
C      1  0.4302120000000  0.5504800000000  0.5823680000000 1.0
C      1  0.4522310000000  0.5694040000000  0.5369400000000 1.0
C      1  0.5776800000000  0.5117540000000  0.4270770000000 1.0
C      1  0.5444940000000  0.4511260000000  0.4026080000000 1.0
C      1  0.4218090000000  0.5538880000000  0.4327990000000 1.0
C      1  0.3809930000000  0.5245680000000  0.5113400000000 1.0
C      1  0.4357550000000  0.5324340000000  0.4186520000000 1.0
C      1  0.5640640000000  0.5045710000000  0.5456940000000 1.0
C      1  0.5434090000000  0.3925720000000  0.4601490000000 1.0
C      1  0.4577140000000  0.5537520000000  0.5936960000000 1.0
C      1  0.5317490000000  0.5755700000000  0.4401000000000 1.0
C      1  0.5261670000000  0.4954590000000  0.4909580000000 1.0
C      1  0.4528780000000  0.4856560000000  0.5883160000000 1.0
C      1  0.5896450000000  0.4382400000000  0.4884770000000 1.0
C      1  0.5610520000000  0.4141770000000  0.4606570000000 1.0
C      1  0.4674700000000  0.5264400000000  0.4145990000000 1.0
C      1  0.5766220000000  0.4822000000000  0.4246420000000 1.0
C      1  0.4319520000000  0.4451060000000  0.4379800000000 1.0
C      1  0.4909240000000  0.4078910000000  0.5526050000000 1.0
C      1  0.4464210000000  0.4839090000000  0.4655300000000 1.0
C      1  0.4737150000000  0.4503120000000  0.5145440000000 1.0
C      1  0.6028180000000  0.5230970000000  0.5353580000000 1.0
C      1  0.4993600000000  0.5654800000000  0.4934510000000 1.0
C      1  0.5306750000000  0.4345720000000  0.5569710000000 1.0
C      1  0.5456980000000  0.5532230000000  0.5323130000000 1.0
C      1  0.5002200000000  0.6128600000000  0.5067510000000 1.0
C      1  0.5042540000000  0.5366380000000  0.4184490000000 1.0
C      1  0.4975410000000  0.4902400000000  0.3986210000000 1.0
C      1  0.6007440000000  0.4773990000000  0.5108130000000 1.0
C      1  0.4684870000000  0.5166620000000  0.4857840000000 1.0
C      1  0.4768870000000  0.5363980000000  0.5055220000000 1.0
C      1  0.4967510000000  0.6008750000000  0.4590160000000 1.0
C      1  0.5060610000000  0.3911230000000  0.4962900000000 1.0
C      1  0.4540350000000  0.5938000000000  0.4968780000000 1.0
C      1  0.5277020000000  0.5314890000000  0.5836790000000 1.0
C      1  0.5074260000000  0.5425140000000  0.6029030000000 1.0
C      1  0.4715740000000  0.4770940000000  0.6093210000000 1.0
C      1  0.5094110000000  0.4542600000000  0.5535740000000 1.0
C      1  0.3939470000000  0.4760050000000  0.4449390000000 1.0
C      1  0.5183870000000  0.5226850000000  0.4914010000000 1.0
C      1  0.5311910000000  0.4894040000000  0.4638830000000 1.0
C      1  0.5641960000000  0.5522210000000  0.5561480000000 1.0
C      1  0.5288090000000  0.6048410000000  0.5116190000000 1.0
C      1  0.4073120000000  0.5457700000000  0.4678420000000 1.0
C      1  0.3965650000000  0.5009350000000  0.5061570000000 1.0
C      1  0.5449850000000  0.4455060000000  0.5880140000000 1.0
C      1  0.4825470000000  0.5262200000000  0.6037830000000 1.0
C      1  0.5273570000000  0.4601050000000  0.6057350000000 1.0
C      1  0.4938190000000  0.4257970000000  0.5150190000000 1.0
C      1  0.5154520000000  0.5141830000000  0.3973140000000 1.0
C      1  0.5039470000000  0.5702970000000  0.5918970000000 1.0
C      1  0.5437020000000  0.5051770000000  0.3975580000000 1.0
C      1  0.4418130000000  0.4483260000000  0.4917420000000 1.0
C      1  0.4746240000000  0.4075380000000  0.4492550000000 1.0
C      1  0.4266120000000  0.5612790000000  0.5544840000000 1.0
C      1  0.5149500000000  0.5433930000000  0.5371240000000 1.0
C      1  0.5864420000000  0.5331890000000  0.5578980000000 1.0
C      1  0.4769200000000  0.5702110000000  0.5794310000000 1.0
C      1  0.5596790000000  0.5366550000000  0.5094390000000 1.0
C      1  0.4464730000000  0.4100890000000  0.5135470000000 1.0
C      1  0.4807580000000  0.4625850000000  0.4384650000000 1.0
C      1  0.4041660000000  0.5040800000000  0.4455440000000 1.0
C      1  0.5836190000000  0.5664660000000  0.4792240000000 1.0
C      1  0.5956250000000  0.4460780000000  0.5151200000000 1.0
C      1  0.5619710000000  0.4321680000000  0.4141550000000 1.0
END
