TITL C-950528-5794-137 -5.64839137422086e-07 125000 -1110.28974422684 0 0 177 (C1) n - 1
REM
REM in /home/bkarasulu/work/CARBON/AIRSS/Generating-Clusters/EDIP-Nigel-Params/with-SteepDescent/Only-C1/SD-CG/HFTN-CG
REM
REM
REM
REM
REM
REM ./C.cell (11c1c37f851c82e70ff6c80c92926a4b)
REM
REM compiler GCC version 9.2.1 20190827 (Red Hat 9.2.1-1)
REM options -cpp -mtune=generic -march=x86-64 -g -O0 -fpre-include=/usr/include/finclude/math-vector-fortran.h
REM seed -881626357 -289193648 1633006270 1061839495 1282169429 -2018050338 -1904271886 325183429 -1829174065 22611901 -932203328 402459858 -1379990602 706172738 -2049369711 -1765121785 886698908 -1875448676 485083920 666990509 2050087529 -241238873 -2027365510 488953366 -965365852 -1829769910 1612800894 -946510370 1517991584 1834174555 878319560 -649323592 -1675875004
REM
CELL 1.54180   50.00000   50.00000   50.00000   90.00000   90.00000   90.00000
LATT -1
SFAC C  
C      1  0.4645620000000  0.4074160000000  0.4958840000000 1.0
C      1  0.4998830000000  0.5524540000000  0.4000080000000 1.0
C      1  0.4871060000000  0.4895460000000  0.5652190000000 1.0
C      1  0.4874210000000  0.4979260000000  0.5134970000000 1.0
C      1  0.4966280000000  0.5769300000000  0.5689440000000 1.0
C      1  0.5894950000000  0.4301120000000  0.4911710000000 1.0
C      1  0.5963030000000  0.4867500000000  0.5314860000000 1.0
C      1  0.4546490000000  0.4633960000000  0.5321930000000 1.0
C      1  0.4957750000000  0.4463830000000  0.4104030000000 1.0
C      1  0.5747430000000  0.5689890000000  0.4920630000000 1.0
C      1  0.4091920000000  0.4523710000000  0.5012740000000 1.0
C      1  0.5758810000000  0.4744740000000  0.5687490000000 1.0
C      1  0.5541160000000  0.4484350000000  0.4608950000000 1.0
C      1  0.4294670000000  0.4912770000000  0.5051880000000 1.0
C      1  0.5155660000000  0.5755230000000  0.4439800000000 1.0
C      1  0.4378690000000  0.4480870000000  0.5722560000000 1.0
C      1  0.4478830000000  0.5152350000000  0.5150650000000 1.0
C      1  0.5431580000000  0.4784400000000  0.4131610000000 1.0
C      1  0.5176780000000  0.4289160000000  0.4154730000000 1.0
C      1  0.4710340000000  0.4613690000000  0.4867860000000 1.0
C      1  0.5228960000000  0.4745200000000  0.4848880000000 1.0
C      1  0.5248090000000  0.5370610000000  0.5339580000000 1.0
C      1  0.4091410000000  0.5234850000000  0.4445560000000 1.0
C      1  0.5023350000000  0.4070620000000  0.5652690000000 1.0
C      1  0.5945830000000  0.5328590000000  0.5223190000000 1.0
C      1  0.4847180000000  0.5693290000000  0.4800410000000 1.0
C      1  0.5179820000000  0.4697060000000  0.4407860000000 1.0
C      1  0.4703290000000  0.5860100000000  0.4421660000000 1.0
C      1  0.4294910000000  0.5464810000000  0.5771490000000 1.0
C      1  0.4461510000000  0.4643300000000  0.5033210000000 1.0
C      1  0.5055320000000  0.4434810000000  0.5329580000000 1.0
C      1  0.4777400000000  0.4748930000000  0.5928270000000 1.0
C      1  0.5570450000000  0.5737880000000  0.5387100000000 1.0
C      1  0.5464150000000  0.4038130000000  0.4817220000000 1.0
C      1  0.5469850000000  0.4723030000000  0.5281390000000 1.0
C      1  0.5391140000000  0.4115820000000  0.5101440000000 1.0
C      1  0.4709380000000  0.4347370000000  0.4454430000000 1.0
C      1  0.5438550000000  0.4517570000000  0.5938900000000 1.0
C      1  0.5048980000000  0.5141890000000  0.6149200000000 1.0
C      1  0.5157210000000  0.4294310000000  0.5079140000000 1.0
C      1  0.4714270000000  0.5301000000000  0.5418010000000 1.0
C      1  0.4961330000000  0.5295120000000  0.4484100000000 1.0
C      1  0.5660680000000  0.4672510000000  0.4420960000000 1.0
C      1  0.4206810000000  0.4377040000000  0.4790140000000 1.0
C      1  0.5949230000000  0.5568280000000  0.4765030000000 1.0
C      1  0.4332960000000  0.5384910000000  0.4546250000000 1.0
C      1  0.5513780000000  0.5310700000000  0.3972010000000 1.0
C      1  0.4350230000000  0.5764130000000  0.5031830000000 1.0
C      1  0.4488010000000  0.5939360000000  0.4837870000000 1.0
C      1  0.5126720000000  0.5573990000000  0.5862890000000 1.0
C      1  0.4945770000000  0.4740130000000  0.4977090000000 1.0
C      1  0.4754830000000  0.5550140000000  0.5272890000000 1.0
C      1  0.5355290000000  0.5007860000000  0.5673930000000 1.0
C      1  0.5151410000000  0.4786530000000  0.5625270000000 1.0
C      1  0.4714610000000  0.4872630000000  0.5386070000000 1.0
C      1  0.5854820000000  0.5172070000000  0.4217250000000 1.0
C      1  0.4209860000000  0.4093810000000  0.4865250000000 1.0
C      1  0.4527120000000  0.5170670000000  0.4655630000000 1.0
C      1  0.4975970000000  0.5405480000000  0.6064110000000 1.0
C      1  0.5345670000000  0.5042650000000  0.4465140000000 1.0
C      1  0.4750660000000  0.4433070000000  0.5396160000000 1.0
C      1  0.4870470000000  0.3945270000000  0.5423110000000 1.0
C      1  0.4404050000000  0.4514550000000  0.4093280000000 1.0
C      1  0.5253130000000  0.4534160000000  0.4646110000000 1.0
C      1  0.5853970000000  0.5127710000000  0.4517270000000 1.0
C      1  0.4674820000000  0.6146990000000  0.4927110000000 1.0
C      1  0.5876060000000  0.4733610000000  0.4839450000000 1.0
C      1  0.5345480000000  0.6119470000000  0.5116020000000 1.0
C      1  0.5763060000000  0.5299580000000  0.5647260000000 1.0
C      1  0.4124890000000  0.4787250000000  0.4517860000000 1.0
C      1  0.5567810000000  0.5232850000000  0.5259470000000 1.0
C      1  0.5919880000000  0.4584610000000  0.5375870000000 1.0
C      1  0.4422790000000  0.4401320000000  0.4347440000000 1.0
C      1  0.4821350000000  0.4072470000000  0.4373390000000 1.0
C      1  0.4829730000000  0.4231020000000  0.5836260000000 1.0
C      1  0.4903380000000  0.6089010000000  0.5091330000000 1.0
C      1  0.4760940000000  0.3868620000000  0.4575410000000 1.0
C      1  0.4963330000000  0.4684640000000  0.3906380000000 1.0
C      1  0.5218440000000  0.4831900000000  0.3907090000000 1.0
C      1  0.5793850000000  0.5741610000000  0.5200340000000 1.0
C      1  0.5599760000000  0.5045540000000  0.4101720000000 1.0
C      1  0.5189350000000  0.5276630000000  0.5623160000000 1.0
C      1  0.4233100000000  0.4513230000000  0.4536460000000 1.0
C      1  0.5949040000000  0.5147710000000  0.5455820000000 1.0
C      1  0.4710440000000  0.4860960000000  0.3976530000000 1.0
C      1  0.4375520000000  0.4985870000000  0.5969450000000 1.0
C      1  0.4947820000000  0.5277070000000  0.3836210000000 1.0
C      1  0.4084570000000  0.5100590000000  0.5577030000000 1.0
C      1  0.4701450000000  0.5369860000000  0.5988440000000 1.0
C      1  0.4828550000000  0.4955960000000  0.6154320000000 1.0
C      1  0.4590220000000  0.4028260000000  0.5463240000000 1.0
C      1  0.5550860000000  0.5112690000000  0.4967350000000 1.0
C      1  0.4457120000000  0.5868690000000  0.4561530000000 1.0
C      1  0.4474200000000  0.4706660000000  0.3917970000000 1.0
C      1  0.5178480000000  0.5222630000000  0.4309360000000 1.0
C      1  0.5055690000000  0.5641990000000  0.5281700000000 1.0
C      1  0.5118890000000  0.5942180000000  0.5518800000000 1.0
C      1  0.4447730000000  0.3936770000000  0.4776970000000 1.0
C      1  0.5267250000000  0.5197830000000  0.4920330000000 1.0
C      1  0.5600830000000  0.5554390000000  0.5619180000000 1.0
C      1  0.5077890000000  0.4310460000000  0.4787320000000 1.0
C      1  0.5525080000000  0.4794120000000  0.4985940000000 1.0
C      1  0.4277960000000  0.5171650000000  0.5768560000000 1.0
C      1  0.4671420000000  0.5750560000000  0.5649130000000 1.0
C      1  0.4781570000000  0.5619180000000  0.4241480000000 1.0
C      1  0.5119610000000  0.5155950000000  0.5168560000000 1.0
C      1  0.5711010000000  0.5192860000000  0.5914520000000 1.0
C      1  0.5294840000000  0.5933100000000  0.4858200000000 1.0
C      1  0.5182280000000  0.4704230000000  0.5346230000000 1.0
C      1  0.4876740000000  0.3899290000000  0.5046220000000 1.0
C      1  0.4548000000000  0.5578470000000  0.5852520000000 1.0
C      1  0.3907810000000  0.4870710000000  0.5217650000000 1.0
C      1  0.4689870000000  0.5146710000000  0.3873270000000 1.0
C      1  0.4701770000000  0.5501530000000  0.4981410000000 1.0
C      1  0.6024210000000  0.5301180000000  0.4710550000000 1.0
C      1  0.5026760000000  0.5828860000000  0.5012620000000 1.0
C      1  0.5192340000000  0.5001850000000  0.4717480000000 1.0
C      1  0.5488350000000  0.4391970000000  0.5488230000000 1.0
C      1  0.3939480000000  0.5198110000000  0.4697210000000 1.0
C      1  0.5363670000000  0.5946170000000  0.5360560000000 1.0
C      1  0.4230870000000  0.5577270000000  0.4810660000000 1.0
C      1  0.4565700000000  0.5402110000000  0.4248420000000 1.0
C      1  0.5108810000000  0.6278530000000  0.5133670000000 1.0
C      1  0.5249920000000  0.5477550000000  0.4840010000000 1.0
C      1  0.5049250000000  0.5545800000000  0.4634140000000 1.0
C      1  0.5779900000000  0.5449160000000  0.4088130000000 1.0
C      1  0.4698600000000  0.5167500000000  0.4411500000000 1.0
C      1  0.4618360000000  0.4287320000000  0.5630490000000 1.0
C      1  0.5430370000000  0.5556950000000  0.5860670000000 1.0
C      1  0.5166160000000  0.6013180000000  0.4590060000000 1.0
C      1  0.5184890000000  0.4528090000000  0.5793850000000 1.0
C      1  0.4979800000000  0.3847410000000  0.4770850000000 1.0
C      1  0.5607490000000  0.4210430000000  0.5290860000000 1.0
C      1  0.4939410000000  0.4485830000000  0.5952980000000 1.0
C      1  0.3898350000000  0.4747640000000  0.4966740000000 1.0
C      1  0.5163620000000  0.5093070000000  0.3814030000000 1.0
C      1  0.5539350000000  0.5375000000000  0.6047570000000 1.0
C      1  0.4209610000000  0.5569980000000  0.5510010000000 1.0
C      1  0.6049970000000  0.5190820000000  0.4980510000000 1.0
C      1  0.4144180000000  0.4983560000000  0.4317720000000 1.0
C      1  0.5589080000000  0.4930890000000  0.5874300000000 1.0
C      1  0.4886830000000  0.4630250000000  0.4342370000000 1.0
C      1  0.5116450000000  0.4090300000000  0.4349430000000 1.0
C      1  0.6020390000000  0.4909810000000  0.5030910000000 1.0
C      1  0.5672450000000  0.4232600000000  0.4711730000000 1.0
C      1  0.5693060000000  0.5650620000000  0.4291620000000 1.0
C      1  0.4031550000000  0.4918950000000  0.4762610000000 1.0
C      1  0.4489130000000  0.4131310000000  0.5209480000000 1.0
C      1  0.5807050000000  0.4385650000000  0.5180200000000 1.0
C      1  0.6055190000000  0.4501420000000  0.4807110000000 1.0
C      1  0.5552990000000  0.4966990000000  0.5439700000000 1.0
C      1  0.4894370000000  0.5195500000000  0.5630670000000 1.0
C      1  0.5473280000000  0.5677290000000  0.4808440000000 1.0
C      1  0.4767560000000  0.4344240000000  0.4765310000000 1.0
C      1  0.5855520000000  0.4834810000000  0.4561100000000 1.0
C      1  0.4723170000000  0.4884030000000  0.4274210000000 1.0
C      1  0.4086450000000  0.4847530000000  0.5433830000000 1.0
C      1  0.5197000000000  0.4311680000000  0.5569870000000 1.0
C      1  0.4480060000000  0.4704630000000  0.5904070000000 1.0
C      1  0.4253690000000  0.4583290000000  0.5461350000000 1.0
C      1  0.4085870000000  0.4376430000000  0.5274040000000 1.0
C      1  0.4492670000000  0.5309740000000  0.3986670000000 1.0
C      1  0.4660040000000  0.5218720000000  0.4919970000000 1.0
C      1  0.5582000000000  0.5210010000000  0.4600000000000 1.0
C      1  0.4589770000000  0.5128570000000  0.6118550000000 1.0
C      1  0.4203360000000  0.4116160000000  0.5173590000000 1.0
C      1  0.4862800000000  0.6034870000000  0.4613140000000 1.0
C      1  0.5272230000000  0.5435920000000  0.4115850000000 1.0
C      1  0.4045330000000  0.5339060000000  0.5405750000000 1.0
C      1  0.6024880000000  0.5602090000000  0.5283410000000 1.0
C      1  0.5575660000000  0.5519880000000  0.4548740000000 1.0
C      1  0.5629550000000  0.4483640000000  0.5733270000000 1.0
C      1  0.4104350000000  0.5244430000000  0.5135080000000 1.0
C      1  0.4017220000000  0.5398280000000  0.4903640000000 1.0
C      1  0.5379040000000  0.5677820000000  0.4254820000000 1.0
C      1  0.4426830000000  0.5733470000000  0.5358340000000 1.0
C      1  0.5178650000000  0.4052270000000  0.4664290000000 1.0
END
