TITL C-951347-9520-369 1.48821869061582e-07 125000 -572.123112592794 0 0 92 (C1) n - 1
REM
REM in /home/bkarasulu/work/CARBON/AIRSS/Generating-Clusters/EDIP-Nigel-Params/with-SteepDescent/Only-C1/SD-CG/HFTN-CG
REM
REM
REM
REM
REM
REM ./C.cell (11c1c37f851c82e70ff6c80c92926a4b)
REM
REM compiler GCC version 9.2.1 20190827 (Red Hat 9.2.1-1)
REM options -cpp -mtune=generic -march=x86-64 -g -O0 -fpre-include=/usr/include/finclude/math-vector-fortran.h
REM seed -2068620947 -1399177613 -1871783613 1013338179 724462341 490659858 -1664187209 -2038981800 646633511 -173360773 71599423 -159482660 -1307855827 -599819643 1200312826 -57729651 -831625293 -1712272313 -363137988 -1468375913 -1667789152 1683387764 -792035362 807821134 1745346737 -1755110972 -194903763 2127115385 -888232136 753616156 1631550875 -2147476917 -1197964143
REM
CELL 1.54180   50.00000   50.00000   50.00000   90.00000   90.00000   90.00000
LATT -1
SFAC C  
C      1  0.5179650000000  0.5141970000000  0.5253970000000 1.0
C      1  0.4550240000000  0.4727370000000  0.5361040000000 1.0
C      1  0.5688340000000  0.5269170000000  0.5185800000000 1.0
C      1  0.4594220000000  0.5005400000000  0.4923250000000 1.0
C      1  0.4916560000000  0.5419260000000  0.4966040000000 1.0
C      1  0.4533630000000  0.5688680000000  0.5283420000000 1.0
C      1  0.5009530000000  0.5685500000000  0.5109670000000 1.0
C      1  0.4955510000000  0.3988580000000  0.5465460000000 1.0
C      1  0.5329810000000  0.5635090000000  0.4779510000000 1.0
C      1  0.5347070000000  0.4243520000000  0.5008670000000 1.0
C      1  0.4553210000000  0.4539050000000  0.4369130000000 1.0
C      1  0.4871810000000  0.5155280000000  0.5923570000000 1.0
C      1  0.4719350000000  0.5244260000000  0.5128000000000 1.0
C      1  0.5704970000000  0.4541590000000  0.5203520000000 1.0
C      1  0.4337230000000  0.5025910000000  0.4358030000000 1.0
C      1  0.4992390000000  0.4743430000000  0.4227110000000 1.0
C      1  0.5756870000000  0.4978020000000  0.5566260000000 1.0
C      1  0.4164710000000  0.5239660000000  0.4986280000000 1.0
C      1  0.4297170000000  0.4922060000000  0.5342440000000 1.0
C      1  0.4900680000000  0.5034180000000  0.5246890000000 1.0
C      1  0.4820830000000  0.4984730000000  0.4181440000000 1.0
C      1  0.5198000000000  0.5397680000000  0.5442930000000 1.0
C      1  0.5677410000000  0.4585790000000  0.4909330000000 1.0
C      1  0.5006760000000  0.5366430000000  0.4485590000000 1.0
C      1  0.5714600000000  0.4867360000000  0.4854800000000 1.0
C      1  0.5253290000000  0.5628700000000  0.5268630000000 1.0
C      1  0.5194880000000  0.4666070000000  0.5279380000000 1.0
C      1  0.5125330000000  0.5046350000000  0.5959660000000 1.0
C      1  0.4744390000000  0.4800580000000  0.5108350000000 1.0
C      1  0.4747780000000  0.4985360000000  0.4667510000000 1.0
C      1  0.5249620000000  0.4689280000000  0.4128560000000 1.0
C      1  0.5672430000000  0.5248520000000  0.5491570000000 1.0
C      1  0.4702420000000  0.4814980000000  0.5621730000000 1.0
C      1  0.5102000000000  0.4774840000000  0.5905500000000 1.0
C      1  0.5645150000000  0.4765650000000  0.4388140000000 1.0
C      1  0.5766840000000  0.5470070000000  0.4985290000000 1.0
C      1  0.5341910000000  0.5188240000000  0.5856140000000 1.0
C      1  0.4951410000000  0.5932650000000  0.4670870000000 1.0
C      1  0.4237470000000  0.4854180000000  0.4603580000000 1.0
C      1  0.4280450000000  0.4965430000000  0.4887480000000 1.0
C      1  0.5847040000000  0.5374610000000  0.4735940000000 1.0
C      1  0.4689210000000  0.5094210000000  0.5719480000000 1.0
C      1  0.5246730000000  0.4981760000000  0.4822970000000 1.0
C      1  0.5203200000000  0.5252190000000  0.4961340000000 1.0
C      1  0.4389350000000  0.4590660000000  0.4604170000000 1.0
C      1  0.5063750000000  0.4152650000000  0.5005260000000 1.0
C      1  0.4929040000000  0.4644350000000  0.4883880000000 1.0
C      1  0.4976380000000  0.4394890000000  0.5642040000000 1.0
C      1  0.4299880000000  0.5212860000000  0.5258140000000 1.0
C      1  0.4846510000000  0.4528210000000  0.4373190000000 1.0
C      1  0.5652620000000  0.4836560000000  0.5324100000000 1.0
C      1  0.4694460000000  0.5310900000000  0.5513180000000 1.0
C      1  0.5350350000000  0.4897750000000  0.5341190000000 1.0
C      1  0.5746310000000  0.4945810000000  0.4575730000000 1.0
C      1  0.4791960000000  0.4189910000000  0.5575440000000 1.0
C      1  0.4315010000000  0.5708240000000  0.4966700000000 1.0
C      1  0.4720640000000  0.5785040000000  0.4703240000000 1.0
C      1  0.4202770000000  0.4766340000000  0.5103690000000 1.0
C      1  0.5401410000000  0.4635180000000  0.4358330000000 1.0
C      1  0.4501910000000  0.5354150000000  0.4664680000000 1.0
C      1  0.5495420000000  0.5765030000000  0.5220520000000 1.0
C      1  0.4623940000000  0.5391790000000  0.4211560000000 1.0
C      1  0.5424050000000  0.5340650000000  0.5635580000000 1.0
C      1  0.4823670000000  0.5722210000000  0.5348630000000 1.0
C      1  0.5738700000000  0.5234020000000  0.4522560000000 1.0
C      1  0.4987300000000  0.4454150000000  0.4633870000000 1.0
C      1  0.4961000000000  0.3949430000000  0.5177770000000 1.0
C      1  0.5203270000000  0.4707130000000  0.4966680000000 1.0
C      1  0.4271900000000  0.5461740000000  0.4824180000000 1.0
C      1  0.4777380000000  0.5494690000000  0.4690540000000 1.0
C      1  0.4918960000000  0.5505330000000  0.5537340000000 1.0
C      1  0.4619470000000  0.4909340000000  0.4400400000000 1.0
C      1  0.5768220000000  0.5003770000000  0.5105900000000 1.0
C      1  0.5523160000000  0.4305410000000  0.5249200000000 1.0
C      1  0.5285020000000  0.5498920000000  0.4514680000000 1.0
C      1  0.5568570000000  0.5681410000000  0.4961180000000 1.0
C      1  0.5127670000000  0.5837780000000  0.4867620000000 1.0
C      1  0.4437900000000  0.4424510000000  0.4840700000000 1.0
C      1  0.5229050000000  0.4108870000000  0.5412850000000 1.0
C      1  0.4624030000000  0.4216290000000  0.4813450000000 1.0
C      1  0.4892920000000  0.4643780000000  0.5768920000000 1.0
C      1  0.5291270000000  0.4465540000000  0.4573420000000 1.0
C      1  0.4554480000000  0.5847510000000  0.4928040000000 1.0
C      1  0.4883390000000  0.5283210000000  0.4211030000000 1.0
C      1  0.5021390000000  0.5104320000000  0.4649420000000 1.0
C      1  0.5233020000000  0.4422610000000  0.5481380000000 1.0
C      1  0.4442430000000  0.5428780000000  0.5408430000000 1.0
C      1  0.5395170000000  0.4492270000000  0.4851570000000 1.0
C      1  0.4900530000000  0.4200440000000  0.4766500000000 1.0
C      1  0.5501250000000  0.5345950000000  0.4424530000000 1.0
C      1  0.4356240000000  0.4521790000000  0.5097420000000 1.0
C      1  0.4414740000000  0.5314220000000  0.4386910000000 1.0
END
