TITL C-951348-1603-636 -5.43827311233992e-06 125000 -667.876106530007 0 0 110 (C1) n - 1
REM
REM in /home/bkarasulu/work/CARBON/AIRSS/Generating-Clusters/EDIP-Nigel-Params/with-SteepDescent/Only-C1/SD-CG/HFTN-CG
REM
REM
REM
REM
REM
REM ./C.cell (11c1c37f851c82e70ff6c80c92926a4b)
REM
REM compiler GCC version 9.2.1 20190827 (Red Hat 9.2.1-1)
REM options -cpp -mtune=generic -march=x86-64 -g -O0 -fpre-include=/usr/include/finclude/math-vector-fortran.h
REM seed -482197243 462512921 1300948004 55447246 -102752048 -445900182 1243140244 -1048334260 -1312377602 -1681702434 2093152795 1568108623 -136760552 1995280652 1306803378 1236300529 -183180913 1203407390 1656615964 1187794298 -1708691999 1775259882 -1250081825 -1431535476 -43185294 572800853 -1213898517 2036360242 -2060018145 718126453 -2068891006 -503258680 -957458030
REM
CELL 1.54180   50.00000   50.00000   50.00000   90.00000   90.00000   90.00000
LATT -1
SFAC C  
C      1  0.4947800000000  0.5264680000000  0.5406580000000 1.0
C      1  0.5611010000000  0.4325900000000  0.5119780000000 1.0
C      1  0.4890220000000  0.4612870000000  0.4464530000000 1.0
C      1  0.4377670000000  0.4989210000000  0.5628240000000 1.0
C      1  0.4686120000000  0.4284180000000  0.4733720000000 1.0
C      1  0.5653800000000  0.4506370000000  0.4889010000000 1.0
C      1  0.4955650000000  0.5499170000000  0.5216280000000 1.0
C      1  0.4668290000000  0.4761130000000  0.4330730000000 1.0
C      1  0.4292430000000  0.4519190000000  0.5001880000000 1.0
C      1  0.4945800000000  0.4748220000000  0.5143410000000 1.0
C      1  0.5170990000000  0.4836750000000  0.4108470000000 1.0
C      1  0.5230330000000  0.5135720000000  0.5409630000000 1.0
C      1  0.5659320000000  0.4840320000000  0.5705130000000 1.0
C      1  0.4906820000000  0.4184140000000  0.5130200000000 1.0
C      1  0.4692120000000  0.5127650000000  0.4907350000000 1.0
C      1  0.5725940000000  0.4400330000000  0.5378610000000 1.0
C      1  0.5455670000000  0.5667660000000  0.4600420000000 1.0
C      1  0.4648550000000  0.4180810000000  0.5004190000000 1.0
C      1  0.4711070000000  0.5106340000000  0.5815880000000 1.0
C      1  0.4697750000000  0.5836470000000  0.5101960000000 1.0
C      1  0.5626320000000  0.5635670000000  0.4841370000000 1.0
C      1  0.4839560000000  0.5310840000000  0.4164940000000 1.0
C      1  0.4888790000000  0.4859900000000  0.5854020000000 1.0
C      1  0.4703930000000  0.5538550000000  0.5053790000000 1.0
C      1  0.5308580000000  0.5499170000000  0.5730410000000 1.0
C      1  0.4434120000000  0.4289310000000  0.4586740000000 1.0
C      1  0.5177910000000  0.5100300000000  0.4872690000000 1.0
C      1  0.4922590000000  0.4439890000000  0.5616820000000 1.0
C      1  0.5563110000000  0.5608980000000  0.5331310000000 1.0
C      1  0.4698630000000  0.5188100000000  0.4393040000000 1.0
C      1  0.4849430000000  0.5337540000000  0.5680030000000 1.0
C      1  0.4459660000000  0.4750120000000  0.5058270000000 1.0
C      1  0.4260440000000  0.5034730000000  0.4535860000000 1.0
C      1  0.5158510000000  0.4833820000000  0.5723660000000 1.0
C      1  0.4433560000000  0.4785110000000  0.4567850000000 1.0
C      1  0.5124710000000  0.5962420000000  0.4845400000000 1.0
C      1  0.4913070000000  0.4089050000000  0.4659040000000 1.0
C      1  0.4540830000000  0.4346300000000  0.5411200000000 1.0
C      1  0.4195810000000  0.5499950000000  0.4641840000000 1.0
C      1  0.5011560000000  0.5528220000000  0.4234430000000 1.0
C      1  0.5246790000000  0.4197100000000  0.5445170000000 1.0
C      1  0.5766370000000  0.5294590000000  0.5431830000000 1.0
C      1  0.5349670000000  0.4412930000000  0.5280260000000 1.0
C      1  0.4409020000000  0.5280680000000  0.5658090000000 1.0
C      1  0.5846800000000  0.4984520000000  0.5080990000000 1.0
C      1  0.5049670000000  0.5469370000000  0.5827570000000 1.0
C      1  0.5220370000000  0.5230790000000  0.4358770000000 1.0
C      1  0.5734630000000  0.5159870000000  0.4662770000000 1.0
C      1  0.5736060000000  0.4769650000000  0.4431820000000 1.0
C      1  0.5562970000000  0.4369110000000  0.4638170000000 1.0
C      1  0.5216020000000  0.5845440000000  0.4590520000000 1.0
C      1  0.4296810000000  0.4516350000000  0.4679800000000 1.0
C      1  0.5403030000000  0.5285360000000  0.5188440000000 1.0
C      1  0.4942910000000  0.5022620000000  0.5036430000000 1.0
C      1  0.5264870000000  0.4557510000000  0.4185310000000 1.0
C      1  0.4057070000000  0.4544440000000  0.5172340000000 1.0
C      1  0.4773100000000  0.5326360000000  0.4669920000000 1.0
C      1  0.4428560000000  0.5451570000000  0.5436590000000 1.0
C      1  0.5206910000000  0.4714850000000  0.5304590000000 1.0
C      1  0.4373140000000  0.4506780000000  0.5586520000000 1.0
C      1  0.4126000000000  0.5007480000000  0.5190890000000 1.0
C      1  0.4666320000000  0.4667700000000  0.5251800000000 1.0
C      1  0.5673420000000  0.4673080000000  0.5437300000000 1.0
C      1  0.5410890000000  0.5407260000000  0.4489480000000 1.0
C      1  0.4736650000000  0.5819630000000  0.4585550000000 1.0
C      1  0.4441120000000  0.4300830000000  0.5147340000000 1.0
C      1  0.4867520000000  0.5853660000000  0.5348490000000 1.0
C      1  0.5155650000000  0.5863760000000  0.5351020000000 1.0
C      1  0.5188750000000  0.4552100000000  0.5658130000000 1.0
C      1  0.5275170000000  0.4332140000000  0.4731260000000 1.0
C      1  0.4128260000000  0.4620970000000  0.5443150000000 1.0
C      1  0.4138940000000  0.4912140000000  0.5455630000000 1.0
C      1  0.5191530000000  0.4626970000000  0.4803520000000 1.0
C      1  0.5363100000000  0.5055270000000  0.4166990000000 1.0
C      1  0.4606250000000  0.4826200000000  0.4820340000000 1.0
C      1  0.4490480000000  0.5353750000000  0.5159070000000 1.0
C      1  0.5409000000000  0.4989440000000  0.5783390000000 1.0
C      1  0.4869870000000  0.4932780000000  0.4154100000000 1.0
C      1  0.5189440000000  0.5456780000000  0.5027670000000 1.0
C      1  0.4368400000000  0.5498870000000  0.4414220000000 1.0
C      1  0.5560930000000  0.4544410000000  0.4399360000000 1.0
C      1  0.5273520000000  0.5883260000000  0.5086290000000 1.0
C      1  0.5431060000000  0.5246570000000  0.5619290000000 1.0
C      1  0.5104990000000  0.5047510000000  0.4577610000000 1.0
C      1  0.4211650000000  0.5235550000000  0.4743880000000 1.0
C      1  0.5871760000000  0.5042540000000  0.5569810000000 1.0
C      1  0.4962970000000  0.4205350000000  0.5422400000000 1.0
C      1  0.5085450000000  0.4093970000000  0.4915780000000 1.0
C      1  0.4403150000000  0.5211790000000  0.4342090000000 1.0
C      1  0.4983750000000  0.5749930000000  0.4430450000000 1.0
C      1  0.5894960000000  0.4844400000000  0.5332270000000 1.0
C      1  0.5130920000000  0.4767200000000  0.4544290000000 1.0
C      1  0.4714490000000  0.4619660000000  0.5743820000000 1.0
C      1  0.4095750000000  0.5218280000000  0.5010280000000 1.0
C      1  0.5350770000000  0.5698780000000  0.5515330000000 1.0
C      1  0.5031000000000  0.4405210000000  0.4296600000000 1.0
C      1  0.4578510000000  0.5570300000000  0.4643290000000 1.0
C      1  0.5835530000000  0.5265270000000  0.5132940000000 1.0
C      1  0.5099260000000  0.5442370000000  0.4722550000000 1.0
C      1  0.4805800000000  0.4573400000000  0.4765440000000 1.0
C      1  0.5124120000000  0.4203130000000  0.4486150000000 1.0
C      1  0.5809550000000  0.4902520000000  0.4788870000000 1.0
C      1  0.5645310000000  0.5040110000000  0.4403540000000 1.0
C      1  0.4821120000000  0.5965480000000  0.4845830000000 1.0
C      1  0.5461540000000  0.4762060000000  0.4895560000000 1.0
C      1  0.4201030000000  0.5458080000000  0.5127450000000 1.0
C      1  0.5420000000000  0.4900710000000  0.5167720000000 1.0
C      1  0.5712870000000  0.5359640000000  0.4882820000000 1.0
C      1  0.4613230000000  0.4810740000000  0.5519120000000 1.0
C      1  0.5544990000000  0.5775990000000  0.5085230000000 1.0
END
