TITL C-950524-1808-397 -3.18508079157912e-06 125000 -1083.7927094168 0 0 172 (C1) n - 1
REM
REM in /home/bkarasulu/work/CARBON/AIRSS/Generating-Clusters/EDIP-Nigel-Params/with-SteepDescent/Only-C1/SD-CG/HFTN-CG
REM
REM
REM
REM
REM
REM ./C.cell (11c1c37f851c82e70ff6c80c92926a4b)
REM
REM compiler GCC version 9.2.1 20190827 (Red Hat 9.2.1-1)
REM options -cpp -mtune=generic -march=x86-64 -g -O0 -fpre-include=/usr/include/finclude/math-vector-fortran.h
REM seed -504027463 -1834918290 1891843725 20635755 275006821 421731816 -435286416 1287709057 728562691 496587150 306415952 1100939310 -1968771878 1212863909 1680110587 1278150447 239779277 -727385302 1645768690 -235008822 -1664082239 -623587073 2119441204 -932913896 -311509200 -1950190027 33233417 2070450287 188684157 368522881 -880317783 -1019957565 887519321
REM
CELL 1.54180   50.00000   50.00000   50.00000   90.00000   90.00000   90.00000
LATT -1
SFAC C  
C      1  0.4698030000000  0.4976420000000  0.5321300000000 1.0
C      1  0.4166230000000  0.4836690000000  0.5290330000000 1.0
C      1  0.5015040000000  0.4591920000000  0.4475860000000 1.0
C      1  0.5814580000000  0.4440920000000  0.4736870000000 1.0
C      1  0.4615040000000  0.5462440000000  0.4842610000000 1.0
C      1  0.4720870000000  0.6063600000000  0.4951890000000 1.0
C      1  0.5845490000000  0.5790260000000  0.5215700000000 1.0
C      1  0.5909060000000  0.4676960000000  0.4600490000000 1.0
C      1  0.4569880000000  0.4555920000000  0.4660170000000 1.0
C      1  0.5770690000000  0.4673150000000  0.4345490000000 1.0
C      1  0.4157630000000  0.5365390000000  0.4699860000000 1.0
C      1  0.4812540000000  0.4490580000000  0.5200450000000 1.0
C      1  0.4969000000000  0.4990580000000  0.4184600000000 1.0
C      1  0.4357500000000  0.5460980000000  0.5612220000000 1.0
C      1  0.4118560000000  0.4720130000000  0.4387680000000 1.0
C      1  0.4953920000000  0.3877920000000  0.4647360000000 1.0
C      1  0.4423250000000  0.5886350000000  0.5332680000000 1.0
C      1  0.5493000000000  0.4611000000000  0.5931480000000 1.0
C      1  0.5190640000000  0.5482500000000  0.4636860000000 1.0
C      1  0.5354220000000  0.5597920000000  0.4404020000000 1.0
C      1  0.5118310000000  0.4331960000000  0.4128880000000 1.0
C      1  0.4197300000000  0.5197400000000  0.3998570000000 1.0
C      1  0.5058840000000  0.4975190000000  0.4682330000000 1.0
C      1  0.5261690000000  0.4407940000000  0.5489910000000 1.0
C      1  0.5365850000000  0.4858170000000  0.6011650000000 1.0
C      1  0.4596730000000  0.4674020000000  0.5858480000000 1.0
C      1  0.5798110000000  0.5357930000000  0.4466170000000 1.0
C      1  0.5698370000000  0.4724330000000  0.5050450000000 1.0
C      1  0.4957590000000  0.5317230000000  0.5932090000000 1.0
C      1  0.4962400000000  0.4400200000000  0.4941860000000 1.0
C      1  0.5520710000000  0.5800730000000  0.4527560000000 1.0
C      1  0.5829160000000  0.5489850000000  0.4729510000000 1.0
C      1  0.4010240000000  0.4979160000000  0.4456540000000 1.0
C      1  0.4608560000000  0.4166930000000  0.4675910000000 1.0
C      1  0.4405810000000  0.5021370000000  0.4903000000000 1.0
C      1  0.5340570000000  0.5552600000000  0.5726850000000 1.0
C      1  0.5606680000000  0.5213880000000  0.5320990000000 1.0
C      1  0.5637660000000  0.5561130000000  0.5692910000000 1.0
C      1  0.5020360000000  0.5731330000000  0.4694010000000 1.0
C      1  0.4772090000000  0.4434220000000  0.5922410000000 1.0
C      1  0.5299630000000  0.4203320000000  0.5708640000000 1.0
C      1  0.5504210000000  0.5109110000000  0.5958020000000 1.0
C      1  0.5485090000000  0.4705820000000  0.5508190000000 1.0
C      1  0.5588860000000  0.5194100000000  0.4817070000000 1.0
C      1  0.5142820000000  0.4789200000000  0.5135590000000 1.0
C      1  0.5466200000000  0.4684620000000  0.4856680000000 1.0
C      1  0.4070720000000  0.4612900000000  0.4866450000000 1.0
C      1  0.5685560000000  0.5882210000000  0.4992820000000 1.0
C      1  0.5178150000000  0.4031450000000  0.4556800000000 1.0
C      1  0.4343690000000  0.4096470000000  0.5031670000000 1.0
C      1  0.5763030000000  0.5316580000000  0.5558730000000 1.0
C      1  0.6016000000000  0.5115620000000  0.5015340000000 1.0
C      1  0.4536780000000  0.3910730000000  0.5132650000000 1.0
C      1  0.5543010000000  0.5376680000000  0.4309450000000 1.0
C      1  0.4229440000000  0.5180280000000  0.4476430000000 1.0
C      1  0.4768860000000  0.4150390000000  0.4938040000000 1.0
C      1  0.5510020000000  0.4535870000000  0.4388280000000 1.0
C      1  0.4368470000000  0.4579970000000  0.4933970000000 1.0
C      1  0.4674550000000  0.4980580000000  0.4782550000000 1.0
C      1  0.5755460000000  0.5808480000000  0.5650840000000 1.0
C      1  0.6022100000000  0.5555120000000  0.5194260000000 1.0
C      1  0.4960650000000  0.5855030000000  0.4954790000000 1.0
C      1  0.4594490000000  0.4201500000000  0.5535870000000 1.0
C      1  0.4533610000000  0.5715680000000  0.5967310000000 1.0
C      1  0.5701310000000  0.5752010000000  0.4737350000000 1.0
C      1  0.6126260000000  0.5096230000000  0.5307750000000 1.0
C      1  0.4677560000000  0.5493430000000  0.4542130000000 1.0
C      1  0.5551160000000  0.4930020000000  0.4627740000000 1.0
C      1  0.5492000000000  0.5078920000000  0.4271780000000 1.0
C      1  0.4851190000000  0.6052600000000  0.5412790000000 1.0
C      1  0.4309180000000  0.4927190000000  0.5531020000000 1.0
C      1  0.5293960000000  0.4421220000000  0.4952420000000 1.0
C      1  0.5051160000000  0.5626340000000  0.5344050000000 1.0
C      1  0.4989800000000  0.3950670000000  0.5389660000000 1.0
C      1  0.5228900000000  0.5456790000000  0.5986130000000 1.0
C      1  0.5061810000000  0.4808340000000  0.5998630000000 1.0
C      1  0.5374070000000  0.4478990000000  0.4121520000000 1.0
C      1  0.5743200000000  0.5106000000000  0.5776870000000 1.0
C      1  0.4720480000000  0.3959210000000  0.4507500000000 1.0
C      1  0.4856180000000  0.4596740000000  0.4733610000000 1.0
C      1  0.5055900000000  0.4650920000000  0.3811120000000 1.0
C      1  0.4325290000000  0.4948300000000  0.3964820000000 1.0
C      1  0.5035090000000  0.5232810000000  0.4540460000000 1.0
C      1  0.5740740000000  0.4614220000000  0.5784170000000 1.0
C      1  0.5619350000000  0.4572530000000  0.5287050000000 1.0
C      1  0.4443880000000  0.4364980000000  0.5129220000000 1.0
C      1  0.5436370000000  0.5329050000000  0.6125430000000 1.0
C      1  0.4791560000000  0.5401800000000  0.3995010000000 1.0
C      1  0.5569410000000  0.4332660000000  0.4615890000000 1.0
C      1  0.5460400000000  0.6031570000000  0.5046650000000 1.0
C      1  0.3991800000000  0.5039130000000  0.5158040000000 1.0
C      1  0.4483320000000  0.4688080000000  0.5584310000000 1.0
C      1  0.5251150000000  0.4886520000000  0.5404200000000 1.0
C      1  0.4440940000000  0.4427840000000  0.5432490000000 1.0
C      1  0.4834340000000  0.4998890000000  0.5607710000000 1.0
C      1  0.4836370000000  0.4294640000000  0.5672070000000 1.0
C      1  0.4329750000000  0.4090500000000  0.4734620000000 1.0
C      1  0.4584850000000  0.5693690000000  0.4345900000000 1.0
C      1  0.4560460000000  0.4739390000000  0.4386860000000 1.0
C      1  0.4557200000000  0.5037080000000  0.4490270000000 1.0
C      1  0.4454490000000  0.5448440000000  0.5918810000000 1.0
C      1  0.4412020000000  0.4824510000000  0.5114010000000 1.0
C      1  0.4654150000000  0.5962460000000  0.4467980000000 1.0
C      1  0.4786660000000  0.5244890000000  0.5206080000000 1.0
C      1  0.4145720000000  0.4248270000000  0.4595990000000 1.0
C      1  0.5298920000000  0.4384000000000  0.5950350000000 1.0
C      1  0.4589030000000  0.4982920000000  0.3885710000000 1.0
C      1  0.4950770000000  0.5274130000000  0.5647980000000 1.0
C      1  0.5923220000000  0.5096480000000  0.4447190000000 1.0
C      1  0.4222710000000  0.5346300000000  0.4235520000000 1.0
C      1  0.3822130000000  0.4983210000000  0.4672220000000 1.0
C      1  0.5834200000000  0.4164490000000  0.5122230000000 1.0
C      1  0.5763480000000  0.4947470000000  0.4245540000000 1.0
C      1  0.5042520000000  0.4064990000000  0.5669500000000 1.0
C      1  0.5225030000000  0.4980010000000  0.4925150000000 1.0
C      1  0.6044660000000  0.5360000000000  0.5426020000000 1.0
C      1  0.4759620000000  0.4921400000000  0.5907740000000 1.0
C      1  0.5097880000000  0.5919050000000  0.5372290000000 1.0
C      1  0.5032140000000  0.4516340000000  0.6040320000000 1.0
C      1  0.4627420000000  0.6080390000000  0.5242210000000 1.0
C      1  0.5046530000000  0.4790440000000  0.5604110000000 1.0
C      1  0.4099550000000  0.5588750000000  0.5549370000000 1.0
C      1  0.5424090000000  0.4355010000000  0.5225970000000 1.0
C      1  0.4259820000000  0.5763420000000  0.5119560000000 1.0
C      1  0.4792660000000  0.5237670000000  0.4912650000000 1.0
C      1  0.4667980000000  0.5796820000000  0.5744870000000 1.0
C      1  0.4050010000000  0.4509860000000  0.4591870000000 1.0
C      1  0.5243660000000  0.4801790000000  0.4504840000000 1.0
C      1  0.5177630000000  0.5413780000000  0.5514560000000 1.0
C      1  0.5361140000000  0.5397320000000  0.4873550000000 1.0
C      1  0.4521910000000  0.5999360000000  0.4739140000000 1.0
C      1  0.4700540000000  0.4003540000000  0.5347060000000 1.0
C      1  0.4280530000000  0.5633080000000  0.4314690000000 1.0
C      1  0.4848280000000  0.4706570000000  0.4250170000000 1.0
C      1  0.5263670000000  0.4970700000000  0.4101290000000 1.0
C      1  0.5206140000000  0.5241230000000  0.5061810000000 1.0
C      1  0.6024760000000  0.5405290000000  0.4942280000000 1.0
C      1  0.4844610000000  0.4779310000000  0.5137360000000 1.0
C      1  0.4181640000000  0.5285950000000  0.5199780000000 1.0
C      1  0.5395070000000  0.4111650000000  0.4740190000000 1.0
C      1  0.5907840000000  0.4402810000000  0.5001020000000 1.0
C      1  0.5316250000000  0.5198200000000  0.5339020000000 1.0
C      1  0.4559030000000  0.5670910000000  0.5506940000000 1.0
C      1  0.5407700000000  0.3954950000000  0.5018380000000 1.0
C      1  0.4337340000000  0.5306870000000  0.4926280000000 1.0
C      1  0.5059380000000  0.4221050000000  0.4383980000000 1.0
C      1  0.4672700000000  0.5275500000000  0.6024260000000 1.0
C      1  0.5976100000000  0.4947020000000  0.4696760000000 1.0
C      1  0.4809700000000  0.5125770000000  0.3974150000000 1.0
C      1  0.4910940000000  0.4516760000000  0.4016310000000 1.0
C      1  0.4085220000000  0.5563430000000  0.5262820000000 1.0
C      1  0.4688030000000  0.5687900000000  0.5046200000000 1.0
C      1  0.5855250000000  0.4858190000000  0.5685710000000 1.0
C      1  0.5137460000000  0.3880930000000  0.5130100000000 1.0
C      1  0.6041370000000  0.4885930000000  0.5476320000000 1.0
C      1  0.5052350000000  0.5746820000000  0.4233290000000 1.0
C      1  0.4794340000000  0.5648160000000  0.4125500000000 1.0
C      1  0.4772310000000  0.5249300000000  0.4396430000000 1.0
C      1  0.4966850000000  0.4499040000000  0.5484820000000 1.0
C      1  0.4323660000000  0.5798900000000  0.4823900000000 1.0
C      1  0.4271320000000  0.4716030000000  0.4137890000000 1.0
C      1  0.5576730000000  0.4098640000000  0.5210150000000 1.0
C      1  0.5718750000000  0.5063920000000  0.5074150000000 1.0
C      1  0.4355710000000  0.5210190000000  0.5440200000000 1.0
C      1  0.5189150000000  0.6016310000000  0.5108830000000 1.0
C      1  0.5300420000000  0.4716260000000  0.3949330000000 1.0
C      1  0.4963180000000  0.5906730000000  0.4467900000000 1.0
C      1  0.4182290000000  0.5644770000000  0.4611110000000 1.0
C      1  0.4770320000000  0.5544640000000  0.5300260000000 1.0
C      1  0.3980580000000  0.4897100000000  0.4889960000000 1.0
C      1  0.4944740000000  0.3810580000000  0.4928180000000 1.0
C      1  0.5855990000000  0.5946880000000  0.5446200000000 1.0
END
