TITL C-950525-1983-102 1.95804912695545e-06 125000 -481.481214939045 0 0 78 (C1) n - 1
REM
REM in /home/bkarasulu/work/CARBON/AIRSS/Generating-Clusters/EDIP-Nigel-Params/with-SteepDescent/Only-C1/SD-CG/HFTN-CG
REM
REM
REM
REM
REM
REM ./C.cell (11c1c37f851c82e70ff6c80c92926a4b)
REM
REM compiler GCC version 9.2.1 20190827 (Red Hat 9.2.1-1)
REM options -cpp -mtune=generic -march=x86-64 -g -O0 -fpre-include=/usr/include/finclude/math-vector-fortran.h
REM seed 373793986 -1926593144 -866582228 732392270 -316095098 1020027440 -1283880142 -1593321482 -1716754505 -1498932022 -279538411 -1525498676 2004474643 568779467 -2003473010 528154029 -1029146124 -2036081131 1933717136 -1005690335 1013636957 -628538804 -77771011 -1801534167 1032989144 -2106553457 -687872503 1345974201 459778436 -1655389062 -1343989027 42289499 -1971249478
REM
CELL 1.54180   50.00000   50.00000   50.00000   90.00000   90.00000   90.00000
LATT -1
SFAC C  
C      1  0.5164990000000  0.5577170000000  0.5616090000000 1.0
C      1  0.4791850000000  0.5069290000000  0.5036630000000 1.0
C      1  0.4824550000000  0.4210580000000  0.4694140000000 1.0
C      1  0.4599700000000  0.4902060000000  0.4421430000000 1.0
C      1  0.5472990000000  0.5759070000000  0.5061770000000 1.0
C      1  0.5912650000000  0.5003110000000  0.5284040000000 1.0
C      1  0.4987130000000  0.5553900000000  0.4850840000000 1.0
C      1  0.4574710000000  0.5383280000000  0.4599580000000 1.0
C      1  0.4266730000000  0.4606340000000  0.4635560000000 1.0
C      1  0.5588140000000  0.5097900000000  0.4700610000000 1.0
C      1  0.5554750000000  0.5318330000000  0.4490310000000 1.0
C      1  0.4971210000000  0.5051080000000  0.4806230000000 1.0
C      1  0.4749620000000  0.4679820000000  0.4577860000000 1.0
C      1  0.5842440000000  0.4789400000000  0.4970140000000 1.0
C      1  0.4297610000000  0.5287320000000  0.5414370000000 1.0
C      1  0.4528910000000  0.4504040000000  0.5063560000000 1.0
C      1  0.5254690000000  0.5311910000000  0.4457700000000 1.0
C      1  0.5609580000000  0.5718100000000  0.4819510000000 1.0
C      1  0.5317380000000  0.4842610000000  0.4284320000000 1.0
C      1  0.5164530000000  0.5101930000000  0.4262720000000 1.0
C      1  0.5473970000000  0.5528080000000  0.5263700000000 1.0
C      1  0.4508760000000  0.5044010000000  0.4956220000000 1.0
C      1  0.5637540000000  0.5565130000000  0.4598230000000 1.0
C      1  0.4876460000000  0.5098930000000  0.4229240000000 1.0
C      1  0.4955350000000  0.4900120000000  0.5231250000000 1.0
C      1  0.4288970000000  0.5471160000000  0.4956240000000 1.0
C      1  0.5147430000000  0.5288290000000  0.4756180000000 1.0
C      1  0.4689900000000  0.4315380000000  0.4450380000000 1.0
C      1  0.5383130000000  0.4639660000000  0.5100820000000 1.0
C      1  0.5005500000000  0.4752590000000  0.4763850000000 1.0
C      1  0.5591690000000  0.4662040000000  0.4885420000000 1.0
C      1  0.5018270000000  0.4624670000000  0.5623950000000 1.0
C      1  0.5554970000000  0.5284020000000  0.5128650000000 1.0
C      1  0.5420050000000  0.5620340000000  0.5723430000000 1.0
C      1  0.5208590000000  0.4456950000000  0.5499350000000 1.0
C      1  0.5791740000000  0.5357340000000  0.5577310000000 1.0
C      1  0.4341460000000  0.4813450000000  0.5368020000000 1.0
C      1  0.5196320000000  0.5825780000000  0.5027260000000 1.0
C      1  0.4558940000000  0.4614150000000  0.5343250000000 1.0
C      1  0.4735210000000  0.4321110000000  0.4954820000000 1.0
C      1  0.4140840000000  0.5332670000000  0.5179600000000 1.0
C      1  0.4695930000000  0.5015990000000  0.5606800000000 1.0
C      1  0.5565210000000  0.4956700000000  0.5603470000000 1.0
C      1  0.4727350000000  0.5177590000000  0.4461230000000 1.0
C      1  0.4799890000000  0.4768520000000  0.5459830000000 1.0
C      1  0.5154340000000  0.4573310000000  0.4320020000000 1.0
C      1  0.5373780000000  0.4394940000000  0.5276080000000 1.0
C      1  0.5119240000000  0.5119950000000  0.5411470000000 1.0
C      1  0.5852500000000  0.5059220000000  0.4847360000000 1.0
C      1  0.5612310000000  0.5565150000000  0.5526110000000 1.0
C      1  0.5189550000000  0.5467590000000  0.5342150000000 1.0
C      1  0.4951200000000  0.4387940000000  0.5142300000000 1.0
C      1  0.5505860000000  0.4805360000000  0.4626250000000 1.0
C      1  0.4412170000000  0.5051320000000  0.5525440000000 1.0
C      1  0.4423460000000  0.4400760000000  0.4519900000000 1.0
C      1  0.5074590000000  0.4087990000000  0.4678550000000 1.0
C      1  0.4858130000000  0.4557200000000  0.4319290000000 1.0
C      1  0.4284740000000  0.4616230000000  0.4934830000000 1.0
C      1  0.4036480000000  0.5068550000000  0.5061380000000 1.0
C      1  0.5076610000000  0.4664430000000  0.5059350000000 1.0
C      1  0.5239550000000  0.4643670000000  0.4610120000000 1.0
C      1  0.5289440000000  0.4977240000000  0.5617940000000 1.0
C      1  0.4688920000000  0.5587660000000  0.4782890000000 1.0
C      1  0.5404080000000  0.5211060000000  0.4895590000000 1.0
C      1  0.5153040000000  0.4803610000000  0.5790570000000 1.0
C      1  0.5188930000000  0.4197680000000  0.5134830000000 1.0
C      1  0.4279580000000  0.4887360000000  0.5083800000000 1.0
C      1  0.4504120000000  0.5654010000000  0.4992390000000 1.0
C      1  0.4161090000000  0.5112150000000  0.4635800000000 1.0
C      1  0.5255910000000  0.4110150000000  0.4875780000000 1.0
C      1  0.4961700000000  0.5438460000000  0.5752840000000 1.0
C      1  0.5024010000000  0.5625940000000  0.5150220000000 1.0
C      1  0.4293030000000  0.4876350000000  0.4500200000000 1.0
C      1  0.4379790000000  0.5252720000000  0.4778950000000 1.0
C      1  0.5807770000000  0.5078060000000  0.5544970000000 1.0
C      1  0.5837060000000  0.5210970000000  0.5099150000000 1.0
C      1  0.4885830000000  0.5236510000000  0.5569940000000 1.0
C      1  0.3933560000000  0.5074560000000  0.4797590000000 1.0
END
