TITL C-950527-2551-642 -3.712661468865e-06 125000 -517.473455186258 0 0 83 (C1) n - 1
REM
REM in /home/bkarasulu/work/CARBON/AIRSS/Generating-Clusters/EDIP-Nigel-Params/with-SteepDescent/Only-C1/SD-CG/HFTN-CG
REM
REM
REM
REM
REM
REM ./C.cell (11c1c37f851c82e70ff6c80c92926a4b)
REM
REM compiler GCC version 9.2.1 20190827 (Red Hat 9.2.1-1)
REM options -cpp -mtune=generic -march=x86-64 -g -O0 -fpre-include=/usr/include/finclude/math-vector-fortran.h
REM seed -1823534601 713895320 -1971603838 704979582 711648573 -2030064666 -986117899 -1244753686 1149057734 -1081994031 -122225999 848931142 -387772865 -1689361674 828177320 600170568 1702966570 473442228 350268256 -1213786048 60345841 62649611 910306530 -952842622 -1938915421 -1163058943 221181194 1562085179 -834416786 -1289982000 1748483137 -1950925177 -1623346829
REM
CELL 1.54180   50.00000   50.00000   50.00000   90.00000   90.00000   90.00000
LATT -1
SFAC C  
C      1  0.5067020000000  0.5166160000000  0.5734960000000 1.0
C      1  0.5398830000000  0.4418470000000  0.4859590000000 1.0
C      1  0.4442540000000  0.4419820000000  0.5312090000000 1.0
C      1  0.4978660000000  0.5228460000000  0.4812630000000 1.0
C      1  0.5285760000000  0.5389000000000  0.5374780000000 1.0
C      1  0.5240220000000  0.4930370000000  0.5708380000000 1.0
C      1  0.5494980000000  0.4979870000000  0.5568990000000 1.0
C      1  0.5482680000000  0.5084360000000  0.4552730000000 1.0
C      1  0.4559680000000  0.4571150000000  0.4623810000000 1.0
C      1  0.5018110000000  0.5300440000000  0.5466460000000 1.0
C      1  0.5565670000000  0.4610360000000  0.5544030000000 1.0
C      1  0.4539450000000  0.5418780000000  0.5668310000000 1.0
C      1  0.4370840000000  0.4924690000000  0.5361300000000 1.0
C      1  0.5737710000000  0.5032280000000  0.5125500000000 1.0
C      1  0.5548280000000  0.4935080000000  0.4274620000000 1.0
C      1  0.4843000000000  0.5599790000000  0.4558010000000 1.0
C      1  0.5263800000000  0.5757570000000  0.4896100000000 1.0
C      1  0.5863080000000  0.4670820000000  0.5135900000000 1.0
C      1  0.5412640000000  0.4464790000000  0.5149940000000 1.0
C      1  0.4390330000000  0.5446180000000  0.4656230000000 1.0
C      1  0.4566320000000  0.4355420000000  0.4837690000000 1.0
C      1  0.4836200000000  0.5119480000000  0.5889040000000 1.0
C      1  0.4208970000000  0.4649480000000  0.4992190000000 1.0
C      1  0.4161680000000  0.5341470000000  0.5234750000000 1.0
C      1  0.4678510000000  0.4783080000000  0.4788260000000 1.0
C      1  0.5002550000000  0.4877690000000  0.5101920000000 1.0
C      1  0.4771310000000  0.5704250000000  0.4832170000000 1.0
C      1  0.5673710000000  0.4516340000000  0.5284240000000 1.0
C      1  0.4084180000000  0.5117180000000  0.5062440000000 1.0
C      1  0.4817740000000  0.4665740000000  0.5021570000000 1.0
C      1  0.5465540000000  0.5755690000000  0.5123880000000 1.0
C      1  0.5722210000000  0.5217530000000  0.4659610000000 1.0
C      1  0.5451210000000  0.4973830000000  0.5068170000000 1.0
C      1  0.4978510000000  0.4244930000000  0.5251440000000 1.0
C      1  0.5830910000000  0.4715880000000  0.4843460000000 1.0
C      1  0.5144260000000  0.4652540000000  0.4381820000000 1.0
C      1  0.5254750000000  0.4294200000000  0.5332860000000 1.0
C      1  0.4880040000000  0.5058470000000  0.4279680000000 1.0
C      1  0.5290960000000  0.5680450000000  0.5354610000000 1.0
C      1  0.4856680000000  0.5569680000000  0.5494020000000 1.0
C      1  0.5121360000000  0.4355140000000  0.4771410000000 1.0
C      1  0.5401300000000  0.4670340000000  0.4257730000000 1.0
C      1  0.4299100000000  0.4914010000000  0.5070270000000 1.0
C      1  0.5117660000000  0.4715430000000  0.5538460000000 1.0
C      1  0.4555120000000  0.5571410000000  0.5425480000000 1.0
C      1  0.5380520000000  0.4904110000000  0.4775930000000 1.0
C      1  0.5678790000000  0.5538360000000  0.5061600000000 1.0
C      1  0.4892450000000  0.4372300000000  0.4978540000000 1.0
C      1  0.4715640000000  0.4541440000000  0.4376590000000 1.0
C      1  0.4181550000000  0.5133580000000  0.5440530000000 1.0
C      1  0.4424730000000  0.5466490000000  0.5187350000000 1.0
C      1  0.4814410000000  0.4213020000000  0.5478090000000 1.0
C      1  0.5552960000000  0.4638710000000  0.4721980000000 1.0
C      1  0.5056210000000  0.4405100000000  0.4493150000000 1.0
C      1  0.4598930000000  0.5459040000000  0.4441430000000 1.0
C      1  0.5339440000000  0.5562180000000  0.4688390000000 1.0
C      1  0.4721550000000  0.5234260000000  0.4986100000000 1.0
C      1  0.5746260000000  0.5306450000000  0.5272020000000 1.0
C      1  0.5253350000000  0.4804440000000  0.5246770000000 1.0
C      1  0.5005000000000  0.5757240000000  0.5302110000000 1.0
C      1  0.5082020000000  0.4962400000000  0.4826850000000 1.0
C      1  0.5879910000000  0.5035770000000  0.4844800000000 1.0
C      1  0.4902490000000  0.4756680000000  0.4265390000000 1.0
C      1  0.5001980000000  0.5701360000000  0.5012890000000 1.0
C      1  0.4238950000000  0.5037660000000  0.4443520000000 1.0
C      1  0.4389810000000  0.5057680000000  0.4221200000000 1.0
C      1  0.4624630000000  0.5195990000000  0.4294280000000 1.0
C      1  0.4844620000000  0.5106480000000  0.5257380000000 1.0
C      1  0.4627010000000  0.5145790000000  0.5704900000000 1.0
C      1  0.4651500000000  0.4964640000000  0.5461320000000 1.0
C      1  0.5582780000000  0.5433920000000  0.4802490000000 1.0
C      1  0.5600150000000  0.4579770000000  0.4436230000000 1.0
C      1  0.5080680000000  0.5409670000000  0.4589190000000 1.0
C      1  0.5527850000000  0.5259520000000  0.5472700000000 1.0
C      1  0.4516210000000  0.5559460000000  0.4906460000000 1.0
C      1  0.4356580000000  0.4416160000000  0.5045510000000 1.0
C      1  0.4512430000000  0.5021810000000  0.4874200000000 1.0
C      1  0.5119860000000  0.5220800000000  0.4341260000000 1.0
C      1  0.5358710000000  0.5152980000000  0.4191030000000 1.0
C      1  0.5295680000000  0.4468340000000  0.5579010000000 1.0
C      1  0.4659460000000  0.4444100000000  0.5485830000000 1.0
C      1  0.4311360000000  0.5161640000000  0.4685260000000 1.0
C      1  0.4799450000000  0.4702540000000  0.5526220000000 1.0
END
