TITL C-951340-9809-247 9.82956022984536e-08 125000 -286.112992305867 0 0 48 (C1) n - 1
REM
REM in /home/bkarasulu/work/CARBON/AIRSS/Generating-Clusters/EDIP-Nigel-Params/with-SteepDescent/Only-C1/SD-CG/HFTN-CG
REM
REM
REM
REM
REM
REM ./C.cell (11c1c37f851c82e70ff6c80c92926a4b)
REM
REM compiler GCC version 9.2.1 20190827 (Red Hat 9.2.1-1)
REM options -cpp -mtune=generic -march=x86-64 -g -O0 -fpre-include=/usr/include/finclude/math-vector-fortran.h
REM seed 210450427 1588711138 -243483901 581850608 -2061749785 -1228413245 -758421403 1825555033 1856556991 -1311767487 -628397437 -1173586449 -1757422981 1994456174 -1376420697 -1380350554 -518603429 -1935477101 -1208974794 1654177271 812755498 955028164 -196815806 -1099754808 -754815936 1504711993 342096172 86605456 75309153 -2099725516 1059394301 -758986195 739233667
REM
CELL 1.54180   50.00000   50.00000   50.00000   90.00000   90.00000   90.00000
LATT -1
SFAC C  
C      1  0.4299410000000  0.5049240000000  0.4765420000000 1.0
C      1  0.4554400000000  0.5533780000000  0.5236490000000 1.0
C      1  0.5035420000000  0.4738390000000  0.5410330000000 1.0
C      1  0.4516300000000  0.4606600000000  0.4903700000000 1.0
C      1  0.5710730000000  0.4996580000000  0.4956290000000 1.0
C      1  0.5643830000000  0.4983490000000  0.5230190000000 1.0
C      1  0.5037300000000  0.4524110000000  0.4533120000000 1.0
C      1  0.4765410000000  0.5577560000000  0.4740580000000 1.0
C      1  0.4840050000000  0.4502000000000  0.5389240000000 1.0
C      1  0.4315220000000  0.5005390000000  0.5259070000000 1.0
C      1  0.5555710000000  0.5492840000000  0.4932270000000 1.0
C      1  0.5536750000000  0.4977210000000  0.4549110000000 1.0
C      1  0.4492760000000  0.5467880000000  0.4745310000000 1.0
C      1  0.5040500000000  0.4977990000000  0.4411670000000 1.0
C      1  0.5263860000000  0.5326450000000  0.5263840000000 1.0
C      1  0.4592770000000  0.4623470000000  0.5270900000000 1.0
C      1  0.4887840000000  0.4757050000000  0.4517630000000 1.0
C      1  0.5029870000000  0.5641570000000  0.5010200000000 1.0
C      1  0.4993140000000  0.5460470000000  0.4606970000000 1.0
C      1  0.5641400000000  0.5240370000000  0.4804830000000 1.0
C      1  0.4677540000000  0.4822210000000  0.4731380000000 1.0
C      1  0.5003410000000  0.4994460000000  0.5562100000000 1.0
C      1  0.4415220000000  0.5415430000000  0.5026680000000 1.0
C      1  0.5165700000000  0.4453290000000  0.4766870000000 1.0
C      1  0.5332460000000  0.4668480000000  0.4907180000000 1.0
C      1  0.4401620000000  0.5246270000000  0.4580870000000 1.0
C      1  0.4755010000000  0.5112630000000  0.5449490000000 1.0
C      1  0.4759330000000  0.5018890000000  0.4941600000000 1.0
C      1  0.5423780000000  0.4538190000000  0.5171500000000 1.0
C      1  0.4993190000000  0.4294730000000  0.5223920000000 1.0
C      1  0.4949800000000  0.5233240000000  0.4456670000000 1.0
C      1  0.4538030000000  0.4896110000000  0.5388970000000 1.0
C      1  0.5029940000000  0.5515600000000  0.5273950000000 1.0
C      1  0.4988040000000  0.4328620000000  0.4943940000000 1.0
C      1  0.5134490000000  0.4920530000000  0.4933240000000 1.0
C      1  0.4314030000000  0.4755340000000  0.4729760000000 1.0
C      1  0.4944850000000  0.4855900000000  0.5143380000000 1.0
C      1  0.5314520000000  0.4943800000000  0.4389580000000 1.0
C      1  0.4770580000000  0.5401740000000  0.5355930000000 1.0
C      1  0.5269180000000  0.5135070000000  0.5501910000000 1.0
C      1  0.5475750000000  0.4929620000000  0.5448170000000 1.0
C      1  0.5332530000000  0.4667040000000  0.5428860000000 1.0
C      1  0.5581830000000  0.4796950000000  0.4774920000000 1.0
C      1  0.5206460000000  0.5473650000000  0.4826830000000 1.0
C      1  0.4439980000000  0.5119150000000  0.5019670000000 1.0
C      1  0.5240580000000  0.5193110000000  0.4986710000000 1.0
C      1  0.5511990000000  0.5478620000000  0.5216560000000 1.0
C      1  0.5277490000000  0.4308890000000  0.5282210000000 1.0
END
