TITL C-951333-8791-667 -6.66959233780055e-07 125000 -645.099806000575 0 0 104 (C1) n - 1
REM
REM in /home/bkarasulu/work/CARBON/AIRSS/Generating-Clusters/EDIP-Nigel-Params/with-SteepDescent/Only-C1/SD-CG/HFTN-CG
REM
REM
REM
REM
REM
REM ./C.cell (11c1c37f851c82e70ff6c80c92926a4b)
REM
REM compiler GCC version 9.2.1 20190827 (Red Hat 9.2.1-1)
REM options -cpp -mtune=generic -march=x86-64 -g -O0 -fpre-include=/usr/include/finclude/math-vector-fortran.h
REM seed -1723763941 947976119 -1457884498 -2087286202 -1818277080 -1386480842 -262946811 -1031265484 1069444727 -1202765116 1940196498 -1032440238 459162658 755797112 726604594 -823352916 1631846739 -1483681322 -715489811 1241169689 1205963633 -409582883 -475801494 1812897006 728132697 -1584340720 934762134 -378067422 -61860625 -392249142 1911902371 -1440787318 566017520
REM
CELL 1.54180   50.00000   50.00000   50.00000   90.00000   90.00000   90.00000
LATT -1
SFAC C  
C      1  0.4591710000000  0.4733600000000  0.5624620000000 1.0
C      1  0.5376470000000  0.5588130000000  0.4672430000000 1.0
C      1  0.4683630000000  0.5767300000000  0.5259720000000 1.0
C      1  0.5339700000000  0.4718630000000  0.5655000000000 1.0
C      1  0.4608290000000  0.4306530000000  0.5292030000000 1.0
C      1  0.4605880000000  0.4827070000000  0.4693650000000 1.0
C      1  0.4179770000000  0.4954150000000  0.5111110000000 1.0
C      1  0.4085760000000  0.5413710000000  0.5215010000000 1.0
C      1  0.4515040000000  0.5422100000000  0.5462320000000 1.0
C      1  0.4540390000000  0.5020530000000  0.5634680000000 1.0
C      1  0.4874950000000  0.5925240000000  0.5058880000000 1.0
C      1  0.4608400000000  0.4944440000000  0.5004110000000 1.0
C      1  0.5269120000000  0.4254810000000  0.4928870000000 1.0
C      1  0.5473000000000  0.5730270000000  0.5479360000000 1.0
C      1  0.4939760000000  0.5769170000000  0.4786520000000 1.0
C      1  0.4841240000000  0.4637360000000  0.5752690000000 1.0
C      1  0.5686550000000  0.4253960000000  0.4773210000000 1.0
C      1  0.4910640000000  0.4256640000000  0.5279820000000 1.0
C      1  0.4910740000000  0.4368330000000  0.5733820000000 1.0
C      1  0.5207080000000  0.5675460000000  0.4896300000000 1.0
C      1  0.5328760000000  0.5158230000000  0.5407900000000 1.0
C      1  0.4296690000000  0.4769330000000  0.4465160000000 1.0
C      1  0.5333010000000  0.4455450000000  0.5509450000000 1.0
C      1  0.5271740000000  0.5263630000000  0.4328740000000 1.0
C      1  0.5132880000000  0.5958150000000  0.5233840000000 1.0
C      1  0.5772210000000  0.5057800000000  0.5490100000000 1.0
C      1  0.4724370000000  0.4700290000000  0.5141560000000 1.0
C      1  0.5224130000000  0.4197750000000  0.4627850000000 1.0
C      1  0.5104360000000  0.4938660000000  0.4828270000000 1.0
C      1  0.4125860000000  0.5022700000000  0.4844780000000 1.0
C      1  0.5628460000000  0.5445440000000  0.5072790000000 1.0
C      1  0.5481110000000  0.4590070000000  0.4493380000000 1.0
C      1  0.5384400000000  0.5263680000000  0.5123850000000 1.0
C      1  0.4944910000000  0.5666490000000  0.4497910000000 1.0
C      1  0.5208140000000  0.4589940000000  0.5107590000000 1.0
C      1  0.5155650000000  0.5433070000000  0.5069510000000 1.0
C      1  0.5504260000000  0.4933170000000  0.5487520000000 1.0
C      1  0.4530660000000  0.4752220000000  0.4268630000000 1.0
C      1  0.4633430000000  0.4957670000000  0.4107530000000 1.0
C      1  0.5037940000000  0.4105050000000  0.5059380000000 1.0
C      1  0.5008760000000  0.5096570000000  0.5694430000000 1.0
C      1  0.5074260000000  0.4818070000000  0.5773950000000 1.0
C      1  0.4288530000000  0.4686660000000  0.5170240000000 1.0
C      1  0.4322830000000  0.5273010000000  0.4465560000000 1.0
C      1  0.4993350000000  0.4772400000000  0.5260410000000 1.0
C      1  0.4467430000000  0.4564400000000  0.5399550000000 1.0
C      1  0.5054470000000  0.5578030000000  0.5661050000000 1.0
C      1  0.5454180000000  0.4751470000000  0.5087810000000 1.0
C      1  0.5381610000000  0.5011740000000  0.4945510000000 1.0
C      1  0.4846960000000  0.5114490000000  0.4944830000000 1.0
C      1  0.5819820000000  0.5058320000000  0.4909190000000 1.0
C      1  0.5677070000000  0.5181700000000  0.4664750000000 1.0
C      1  0.4773490000000  0.5039370000000  0.4507080000000 1.0
C      1  0.5266420000000  0.5378930000000  0.5724360000000 1.0
C      1  0.5063820000000  0.4929130000000  0.4521640000000 1.0
C      1  0.4673320000000  0.4287880000000  0.4816190000000 1.0
C      1  0.4490750000000  0.5880700000000  0.5073340000000 1.0
C      1  0.5001650000000  0.4027750000000  0.4588430000000 1.0
C      1  0.5204020000000  0.4839950000000  0.4166650000000 1.0
C      1  0.4157450000000  0.5559350000000  0.5001440000000 1.0
C      1  0.5472140000000  0.5093380000000  0.4458250000000 1.0
C      1  0.5578630000000  0.5736630000000  0.5202350000000 1.0
C      1  0.5010510000000  0.4615570000000  0.4415540000000 1.0
C      1  0.4230840000000  0.5034680000000  0.4586230000000 1.0
C      1  0.4470350000000  0.4264450000000  0.5030730000000 1.0
C      1  0.4918920000000  0.5288320000000  0.5172360000000 1.0
C      1  0.5766850000000  0.5338140000000  0.5527620000000 1.0
C      1  0.5959160000000  0.4802720000000  0.4904170000000 1.0
C      1  0.4552840000000  0.5673790000000  0.5615350000000 1.0
C      1  0.5532940000000  0.5483530000000  0.5620830000000 1.0
C      1  0.5181110000000  0.5791740000000  0.5487490000000 1.0
C      1  0.5921540000000  0.4649290000000  0.4674940000000 1.0
C      1  0.5104360000000  0.5122400000000  0.4131110000000 1.0
C      1  0.4816690000000  0.5161210000000  0.4144610000000 1.0
C      1  0.5031220000000  0.5066210000000  0.5378230000000 1.0
C      1  0.4381630000000  0.5685540000000  0.4894070000000 1.0
C      1  0.4703660000000  0.5613640000000  0.4336760000000 1.0
C      1  0.4306190000000  0.4517630000000  0.4646480000000 1.0
C      1  0.5361320000000  0.5885360000000  0.5054950000000 1.0
C      1  0.5579460000000  0.4390290000000  0.5375050000000 1.0
C      1  0.5248910000000  0.4424870000000  0.4445090000000 1.0
C      1  0.4756280000000  0.5269560000000  0.4710240000000 1.0
C      1  0.4858160000000  0.4055960000000  0.4829090000000 1.0
C      1  0.4283380000000  0.5130370000000  0.5568640000000 1.0
C      1  0.5721540000000  0.4471960000000  0.4602510000000 1.0
C      1  0.4435570000000  0.5529080000000  0.4428700000000 1.0
C      1  0.4581530000000  0.5530700000000  0.4697490000000 1.0
C      1  0.5621180000000  0.5451210000000  0.4767960000000 1.0
C      1  0.4544970000000  0.4360060000000  0.4553420000000 1.0
C      1  0.5537430000000  0.4154420000000  0.4979550000000 1.0
C      1  0.5844530000000  0.5239480000000  0.5160450000000 1.0
C      1  0.4707630000000  0.4539450000000  0.4370120000000 1.0
C      1  0.5205390000000  0.5523180000000  0.4445880000000 1.0
C      1  0.5456140000000  0.4833280000000  0.4333180000000 1.0
C      1  0.4281240000000  0.4482690000000  0.4954340000000 1.0
C      1  0.4187190000000  0.5170310000000  0.5302240000000 1.0
C      1  0.5078090000000  0.4290220000000  0.5523370000000 1.0
C      1  0.4770160000000  0.5507450000000  0.5749060000000 1.0
C      1  0.5076050000000  0.4638250000000  0.4844600000000 1.0
C      1  0.4791480000000  0.4572120000000  0.4859480000000 1.0
C      1  0.4680290000000  0.5462180000000  0.5221960000000 1.0
C      1  0.5677370000000  0.4616610000000  0.5230720000000 1.0
C      1  0.4739530000000  0.5195760000000  0.5761890000000 1.0
C      1  0.5944320000000  0.4660160000000  0.5146630000000 1.0
END
