TITL C-951343-2256-251 9.46110984099413e-07 125000 -722.630154642792 0 0 117 (C1) n - 1
REM
REM in /home/bkarasulu/work/CARBON/AIRSS/Generating-Clusters/EDIP-Nigel-Params/with-SteepDescent/Only-C1/SD-CG/HFTN-CG
REM
REM
REM
REM
REM
REM ./C.cell (11c1c37f851c82e70ff6c80c92926a4b)
REM
REM compiler GCC version 9.2.1 20190827 (Red Hat 9.2.1-1)
REM options -cpp -mtune=generic -march=x86-64 -g -O0 -fpre-include=/usr/include/finclude/math-vector-fortran.h
REM seed 1835371226 -1991095793 -1574515688 1717099920 208129549 -2079816433 2071906120 -941348726 -510663428 -2055438412 1917209713 -190771904 -1220816299 -829441557 -960426136 1551573569 527852734 2028123868 2054460553 -203946723 254375638 64708980 1679649786 -1106654598 1043923 829932913 670186661 -1373076859 -1338326406 760010245 -695588988 138104538 -102779687
REM
CELL 1.54180   50.00000   50.00000   50.00000   90.00000   90.00000   90.00000
LATT -1
SFAC C  
C      1  0.4281500000000  0.5137890000000  0.5656210000000 1.0
C      1  0.4668290000000  0.5110840000000  0.5112210000000 1.0
C      1  0.5256660000000  0.5883930000000  0.4748860000000 1.0
C      1  0.4035860000000  0.4860270000000  0.4772360000000 1.0
C      1  0.4554770000000  0.4968130000000  0.4144840000000 1.0
C      1  0.5129630000000  0.4909790000000  0.5105950000000 1.0
C      1  0.4871190000000  0.4387920000000  0.4515820000000 1.0
C      1  0.5039720000000  0.5386320000000  0.5320220000000 1.0
C      1  0.4800790000000  0.4534250000000  0.5117040000000 1.0
C      1  0.5213720000000  0.5519450000000  0.4371120000000 1.0
C      1  0.5076110000000  0.4873690000000  0.5386840000000 1.0
C      1  0.5436860000000  0.5135770000000  0.5129680000000 1.0
C      1  0.4386180000000  0.4543530000000  0.5373030000000 1.0
C      1  0.4763150000000  0.5291430000000  0.5791160000000 1.0
C      1  0.4105990000000  0.5037630000000  0.5439740000000 1.0
C      1  0.5835210000000  0.5069590000000  0.5442060000000 1.0
C      1  0.4833590000000  0.4618150000000  0.4026190000000 1.0
C      1  0.5827890000000  0.5526670000000  0.5241630000000 1.0
C      1  0.5064650000000  0.4193720000000  0.4856070000000 1.0
C      1  0.4703470000000  0.5899670000000  0.4578080000000 1.0
C      1  0.5032700000000  0.4226940000000  0.5343340000000 1.0
C      1  0.5153100000000  0.5819850000000  0.5254070000000 1.0
C      1  0.4991140000000  0.5557100000000  0.5710050000000 1.0
C      1  0.5350100000000  0.4763760000000  0.4746960000000 1.0
C      1  0.5535580000000  0.4681440000000  0.5165220000000 1.0
C      1  0.4764010000000  0.5155070000000  0.4164160000000 1.0
C      1  0.5974620000000  0.4642420000000  0.4955910000000 1.0
C      1  0.5155490000000  0.4354030000000  0.4383100000000 1.0
C      1  0.4954940000000  0.5128250000000  0.5961210000000 1.0
C      1  0.4111330000000  0.5322930000000  0.5363710000000 1.0
C      1  0.5269270000000  0.5442340000000  0.5761280000000 1.0
C      1  0.4593270000000  0.4304130000000  0.4468300000000 1.0
C      1  0.4818090000000  0.4733690000000  0.5382330000000 1.0
C      1  0.5499420000000  0.5409950000000  0.5574450000000 1.0
C      1  0.5187840000000  0.5181080000000  0.4764280000000 1.0
C      1  0.4359860000000  0.5121010000000  0.4514490000000 1.0
C      1  0.4050280000000  0.4721100000000  0.5025170000000 1.0
C      1  0.5653150000000  0.4283740000000  0.5003620000000 1.0
C      1  0.4894750000000  0.5784860000000  0.4796590000000 1.0
C      1  0.4293570000000  0.5389990000000  0.5148270000000 1.0
C      1  0.5781760000000  0.4520300000000  0.5132780000000 1.0
C      1  0.5512150000000  0.4890260000000  0.5362370000000 1.0
C      1  0.5066690000000  0.5094970000000  0.4521880000000 1.0
C      1  0.4127010000000  0.5498930000000  0.4600350000000 1.0
C      1  0.5279650000000  0.4654730000000  0.5019330000000 1.0
C      1  0.4380100000000  0.4393770000000  0.5132530000000 1.0
C      1  0.5435450000000  0.5049610000000  0.4821710000000 1.0
C      1  0.4173610000000  0.4466920000000  0.4952780000000 1.0
C      1  0.5474400000000  0.4707990000000  0.5643560000000 1.0
C      1  0.5340900000000  0.5601880000000  0.4646440000000 1.0
C      1  0.5837670000000  0.5511180000000  0.4857830000000 1.0
C      1  0.4731520000000  0.4183970000000  0.5372540000000 1.0
C      1  0.4424380000000  0.5601330000000  0.4370820000000 1.0
C      1  0.5199660000000  0.4575520000000  0.5682570000000 1.0
C      1  0.5228480000000  0.4652970000000  0.4306920000000 1.0
C      1  0.5077980000000  0.5946590000000  0.4993640000000 1.0
C      1  0.5206140000000  0.5147280000000  0.5788950000000 1.0
C      1  0.4387560000000  0.5527360000000  0.4751120000000 1.0
C      1  0.5516070000000  0.5057430000000  0.4330930000000 1.0
C      1  0.5861140000000  0.5051040000000  0.4717120000000 1.0
C      1  0.4332920000000  0.4735060000000  0.4553720000000 1.0
C      1  0.4779480000000  0.5392780000000  0.5137700000000 1.0
C      1  0.5273910000000  0.4247390000000  0.4642680000000 1.0
C      1  0.4921510000000  0.5539210000000  0.4433220000000 1.0
C      1  0.4571500000000  0.5069130000000  0.5656630000000 1.0
C      1  0.5662000000000  0.4606100000000  0.4576180000000 1.0
C      1  0.4707380000000  0.5724040000000  0.4344190000000 1.0
C      1  0.5636900000000  0.5493850000000  0.4642910000000 1.0
C      1  0.4886160000000  0.5491650000000  0.4870290000000 1.0
C      1  0.5113430000000  0.4791280000000  0.4551650000000 1.0
C      1  0.4735720000000  0.4706340000000  0.4876220000000 1.0
C      1  0.5875240000000  0.4758990000000  0.4724090000000 1.0
C      1  0.5857270000000  0.5242520000000  0.5209570000000 1.0
C      1  0.5208550000000  0.4295600000000  0.5577210000000 1.0
C      1  0.4765980000000  0.4595590000000  0.5649280000000 1.0
C      1  0.5432570000000  0.5770050000000  0.5245080000000 1.0
C      1  0.4241320000000  0.4866880000000  0.5225440000000 1.0
C      1  0.5072190000000  0.4762780000000  0.4071050000000 1.0
C      1  0.4858980000000  0.4956160000000  0.4954140000000 1.0
C      1  0.5078930000000  0.4391260000000  0.5082310000000 1.0
C      1  0.4466370000000  0.5961550000000  0.4992270000000 1.0
C      1  0.5948780000000  0.5240550000000  0.4925900000000 1.0
C      1  0.5043030000000  0.5063700000000  0.4078780000000 1.0
C      1  0.4974520000000  0.5735630000000  0.5474080000000 1.0
C      1  0.4602960000000  0.4202630000000  0.5086300000000 1.0
C      1  0.5606200000000  0.5611680000000  0.5398100000000 1.0
C      1  0.4226130000000  0.5345220000000  0.4366900000000 1.0
C      1  0.5518450000000  0.4150530000000  0.5215190000000 1.0
C      1  0.4853710000000  0.4847060000000  0.5998900000000 1.0
C      1  0.4579080000000  0.5279240000000  0.4633980000000 1.0
C      1  0.5245840000000  0.5197760000000  0.4289640000000 1.0
C      1  0.5481520000000  0.4984240000000  0.5792900000000 1.0
C      1  0.5515680000000  0.4753690000000  0.4338530000000 1.0
C      1  0.5664560000000  0.5179290000000  0.5655600000000 1.0
C      1  0.5486930000000  0.4244370000000  0.5485310000000 1.0
C      1  0.4618650000000  0.4812890000000  0.5815360000000 1.0
C      1  0.4442150000000  0.4703200000000  0.4823560000000 1.0
C      1  0.4534270000000  0.5539780000000  0.5236590000000 1.0
C      1  0.5066960000000  0.5134680000000  0.5512270000000 1.0
C      1  0.5886240000000  0.4477700000000  0.5402000000000 1.0
C      1  0.5296410000000  0.5418740000000  0.5149430000000 1.0
C      1  0.4764930000000  0.4160600000000  0.4790570000000 1.0
C      1  0.4465710000000  0.5833250000000  0.4743340000000 1.0
C      1  0.4811580000000  0.5265770000000  0.4442420000000 1.0
C      1  0.4200550000000  0.5094630000000  0.4770640000000 1.0
C      1  0.4643240000000  0.4970720000000  0.5374890000000 1.0
C      1  0.5666830000000  0.4460870000000  0.5581010000000 1.0
C      1  0.4578960000000  0.4391440000000  0.5539500000000 1.0
C      1  0.5044870000000  0.4633120000000  0.5920890000000 1.0
C      1  0.4875550000000  0.4649310000000  0.4631660000000 1.0
C      1  0.5180750000000  0.5441120000000  0.4861030000000 1.0
C      1  0.4359640000000  0.5114390000000  0.5037160000000 1.0
C      1  0.4587070000000  0.4691350000000  0.4135600000000 1.0
C      1  0.4521920000000  0.5815400000000  0.5209720000000 1.0
C      1  0.4456520000000  0.4542060000000  0.4356770000000 1.0
C      1  0.5532240000000  0.4366360000000  0.4738540000000 1.0
C      1  0.5669200000000  0.5202470000000  0.4549370000000 1.0
END
