TITL C-950528-5794-362 -1.88140581730835e-06 125000 -1246.635878661 0 0 198 (C1) n - 1
REM
REM in /home/bkarasulu/work/CARBON/AIRSS/Generating-Clusters/EDIP-Nigel-Params/with-SteepDescent/Only-C1/SD-CG/HFTN-CG
REM
REM
REM
REM
REM
REM ./C.cell (11c1c37f851c82e70ff6c80c92926a4b)
REM
REM compiler GCC version 9.2.1 20190827 (Red Hat 9.2.1-1)
REM options -cpp -mtune=generic -march=x86-64 -g -O0 -fpre-include=/usr/include/finclude/math-vector-fortran.h
REM seed -349519585 -1552598401 1568425980 -1231030828 760755503 -1069479572 -1577651363 -43306504 1380226602 -2067003715 -309771991 398874754 1748350561 73329431 1062013750 -512885948 -336965563 1506581541 -1876046800 -30428034 1858393271 -126920290 767335396 -944910417 2003401200 -920871672 -2115418269 1415972303 205176358 -1989506133 -1352512645 803412576 1476017242
REM
CELL 1.54180   50.00000   50.00000   50.00000   90.00000   90.00000   90.00000
LATT -1
SFAC C  
C      1  0.4654560000000  0.4619590000000  0.4526690000000 1.0
C      1  0.4082030000000  0.5808050000000  0.5031400000000 1.0
C      1  0.5100050000000  0.5570830000000  0.5170340000000 1.0
C      1  0.5575220000000  0.5059800000000  0.5717190000000 1.0
C      1  0.4769830000000  0.6129920000000  0.4866540000000 1.0
C      1  0.4218310000000  0.4883410000000  0.5295660000000 1.0
C      1  0.5473580000000  0.4308420000000  0.5702920000000 1.0
C      1  0.5488260000000  0.3796540000000  0.5215430000000 1.0
C      1  0.5235030000000  0.4167410000000  0.5826260000000 1.0
C      1  0.5950040000000  0.4416150000000  0.4494460000000 1.0
C      1  0.4781250000000  0.4177050000000  0.5993880000000 1.0
C      1  0.5270380000000  0.5338850000000  0.6001260000000 1.0
C      1  0.5533950000000  0.5935600000000  0.5440380000000 1.0
C      1  0.5945110000000  0.4448320000000  0.5076220000000 1.0
C      1  0.5321830000000  0.6031690000000  0.4372820000000 1.0
C      1  0.4984370000000  0.5223990000000  0.5421760000000 1.0
C      1  0.4991070000000  0.4993330000000  0.4654080000000 1.0
C      1  0.5007940000000  0.5530940000000  0.4626830000000 1.0
C      1  0.4592370000000  0.3991890000000  0.5585590000000 1.0
C      1  0.4833450000000  0.4838970000000  0.3956790000000 1.0
C      1  0.4289730000000  0.5196020000000  0.4365250000000 1.0
C      1  0.5740390000000  0.5534410000000  0.5319230000000 1.0
C      1  0.4338580000000  0.4360270000000  0.4928060000000 1.0
C      1  0.4321530000000  0.5023860000000  0.5058990000000 1.0
C      1  0.5300150000000  0.5365960000000  0.5062560000000 1.0
C      1  0.5028780000000  0.6090980000000  0.5226220000000 1.0
C      1  0.5083860000000  0.4666260000000  0.3942250000000 1.0
C      1  0.4118610000000  0.5831850000000  0.5525460000000 1.0
C      1  0.5565200000000  0.6164220000000  0.4989240000000 1.0
C      1  0.4392560000000  0.5147260000000  0.4006830000000 1.0
C      1  0.4344240000000  0.5953710000000  0.5405100000000 1.0
C      1  0.4742350000000  0.4925610000000  0.6258710000000 1.0
C      1  0.4896010000000  0.5142610000000  0.6171270000000 1.0
C      1  0.5613900000000  0.5932820000000  0.5162470000000 1.0
C      1  0.4311030000000  0.5308170000000  0.5910160000000 1.0
C      1  0.4145220000000  0.4780920000000  0.4250200000000 1.0
C      1  0.5913770000000  0.5246870000000  0.4474400000000 1.0
C      1  0.5452540000000  0.3890720000000  0.5501210000000 1.0
C      1  0.5944130000000  0.5367430000000  0.4745210000000 1.0
C      1  0.5382860000000  0.5093360000000  0.3920330000000 1.0
C      1  0.5479650000000  0.5561620000000  0.4247340000000 1.0
C      1  0.4480330000000  0.4112880000000  0.4797260000000 1.0
C      1  0.5620620000000  0.4077530000000  0.4821810000000 1.0
C      1  0.4866090000000  0.5271690000000  0.3847420000000 1.0
C      1  0.5309100000000  0.4911500000000  0.5659150000000 1.0
C      1  0.4298760000000  0.5652920000000  0.4601850000000 1.0
C      1  0.5512460000000  0.5804480000000  0.4391110000000 1.0
C      1  0.4305880000000  0.5504230000000  0.4350200000000 1.0
C      1  0.5606810000000  0.6097560000000  0.4710290000000 1.0
C      1  0.5499550000000  0.4448590000000  0.4285960000000 1.0
C      1  0.3850930000000  0.4994860000000  0.4580230000000 1.0
C      1  0.5963510000000  0.4809140000000  0.5854040000000 1.0
C      1  0.5274110000000  0.4285730000000  0.4211700000000 1.0
C      1  0.5687030000000  0.3979550000000  0.5076480000000 1.0
C      1  0.4092320000000  0.5451020000000  0.5813120000000 1.0
C      1  0.4025300000000  0.5026160000000  0.4364800000000 1.0
C      1  0.4243140000000  0.5004740000000  0.5542190000000 1.0
C      1  0.4936420000000  0.5508570000000  0.5404810000000 1.0
C      1  0.3979090000000  0.4429970000000  0.4579130000000 1.0
C      1  0.5522530000000  0.5291290000000  0.4836280000000 1.0
C      1  0.5369390000000  0.5477660000000  0.5570540000000 1.0
C      1  0.4983020000000  0.4393050000000  0.4819020000000 1.0
C      1  0.4964090000000  0.6071820000000  0.4639050000000 1.0
C      1  0.4494210000000  0.5079370000000  0.4596450000000 1.0
C      1  0.5716050000000  0.4925600000000  0.5952210000000 1.0
C      1  0.5149550000000  0.5801280000000  0.4634540000000 1.0
C      1  0.5369510000000  0.4456610000000  0.5476980000000 1.0
C      1  0.4399290000000  0.4423910000000  0.5828910000000 1.0
C      1  0.4094360000000  0.4259590000000  0.5368880000000 1.0
C      1  0.4906690000000  0.4535960000000  0.5085170000000 1.0
C      1  0.4575670000000  0.4686210000000  0.3993290000000 1.0
C      1  0.6008270000000  0.4717620000000  0.5187280000000 1.0
C      1  0.4046770000000  0.4446280000000  0.4849050000000 1.0
C      1  0.4548980000000  0.5212030000000  0.5086830000000 1.0
C      1  0.5528490000000  0.4722100000000  0.4178360000000 1.0
C      1  0.4841650000000  0.4996820000000  0.4216780000000 1.0
C      1  0.4342130000000  0.4292050000000  0.5229380000000 1.0
C      1  0.4806080000000  0.4386130000000  0.5554420000000 1.0
C      1  0.5052540000000  0.5746370000000  0.4074150000000 1.0
C      1  0.5262280000000  0.5556180000000  0.4052180000000 1.0
C      1  0.4511690000000  0.4642970000000  0.4813980000000 1.0
C      1  0.5923840000000  0.4807740000000  0.5465590000000 1.0
C      1  0.5233790000000  0.3824160000000  0.4468120000000 1.0
C      1  0.6056080000000  0.4511890000000  0.4768590000000 1.0
C      1  0.4515160000000  0.4132820000000  0.4496290000000 1.0
C      1  0.5644430000000  0.4480980000000  0.5877270000000 1.0
C      1  0.3980130000000  0.4731860000000  0.5253040000000 1.0
C      1  0.5681540000000  0.5337130000000  0.4264480000000 1.0
C      1  0.4599730000000  0.5835740000000  0.5517410000000 1.0
C      1  0.4549530000000  0.5481950000000  0.5928480000000 1.0
C      1  0.5697690000000  0.4833070000000  0.4594700000000 1.0
C      1  0.5689570000000  0.5829740000000  0.4620290000000 1.0
C      1  0.5522590000000  0.4709330000000  0.6027970000000 1.0
C      1  0.5962340000000  0.4943930000000  0.4476610000000 1.0
C      1  0.5797010000000  0.5714180000000  0.5095390000000 1.0
C      1  0.5344940000000  0.4801070000000  0.3954230000000 1.0
C      1  0.5716110000000  0.4220320000000  0.5247410000000 1.0
C      1  0.5548610000000  0.4346490000000  0.4766360000000 1.0
C      1  0.5266300000000  0.4017480000000  0.4282250000000 1.0
C      1  0.5871170000000  0.4979040000000  0.3983190000000 1.0
C      1  0.4717480000000  0.4852890000000  0.5537390000000 1.0
C      1  0.3911890000000  0.5358160000000  0.5177910000000 1.0
C      1  0.5177500000000  0.5079620000000  0.6113760000000 1.0
C      1  0.5097950000000  0.5624770000000  0.5649620000000 1.0
C      1  0.4495140000000  0.5851620000000  0.4633850000000 1.0
C      1  0.4553640000000  0.5729840000000  0.5787640000000 1.0
C      1  0.3812950000000  0.4941670000000  0.4848910000000 1.0
C      1  0.4903560000000  0.4989190000000  0.4948540000000 1.0
C      1  0.4533690000000  0.5973120000000  0.4886020000000 1.0
C      1  0.5769210000000  0.5061500000000  0.5483260000000 1.0
C      1  0.5291040000000  0.5836660000000  0.4874340000000 1.0
C      1  0.5272640000000  0.5195820000000  0.5321500000000 1.0
C      1  0.5820050000000  0.4737500000000  0.4111500000000 1.0
C      1  0.5080480000000  0.6003770000000  0.4196240000000 1.0
C      1  0.5039920000000  0.5198780000000  0.4248150000000 1.0
C      1  0.5448690000000  0.4929830000000  0.4448730000000 1.0
C      1  0.6040440000000  0.4913540000000  0.4962280000000 1.0
C      1  0.4410370000000  0.4037070000000  0.5359230000000 1.0
C      1  0.5287400000000  0.6258910000000  0.4999210000000 1.0
C      1  0.4370750000000  0.4867520000000  0.4084250000000 1.0
C      1  0.5664960000000  0.4489460000000  0.4541100000000 1.0
C      1  0.5181010000000  0.3937720000000  0.5640230000000 1.0
C      1  0.4855860000000  0.6015100000000  0.5490640000000 1.0
C      1  0.4617140000000  0.5280300000000  0.4785390000000 1.0
C      1  0.4634470000000  0.4958050000000  0.5790990000000 1.0
C      1  0.5167380000000  0.4081830000000  0.5110350000000 1.0
C      1  0.5061340000000  0.3930100000000  0.4665470000000 1.0
C      1  0.3784660000000  0.5161760000000  0.5021240000000 1.0
C      1  0.5614860000000  0.4991280000000  0.4868220000000 1.0
C      1  0.5899180000000  0.5309490000000  0.5399920000000 1.0
C      1  0.3979050000000  0.5603550000000  0.5611140000000 1.0
C      1  0.4246680000000  0.4760750000000  0.5948290000000 1.0
C      1  0.5371060000000  0.4811980000000  0.4894350000000 1.0
C      1  0.5588640000000  0.5663550000000  0.5520260000000 1.0
C      1  0.5097220000000  0.5834870000000  0.5073030000000 1.0
C      1  0.6007030000000  0.4568350000000  0.4253720000000 1.0
C      1  0.4594260000000  0.4468740000000  0.4175060000000 1.0
C      1  0.4776230000000  0.5051410000000  0.5306990000000 1.0
C      1  0.4827380000000  0.5019940000000  0.3726380000000 1.0
C      1  0.4621750000000  0.5329170000000  0.4023850000000 1.0
C      1  0.4342580000000  0.4891020000000  0.4791670000000 1.0
C      1  0.3972330000000  0.4717290000000  0.4962040000000 1.0
C      1  0.4708310000000  0.4769750000000  0.6018320000000 1.0
C      1  0.4807160000000  0.5363400000000  0.5994480000000 1.0
C      1  0.5099060000000  0.4399100000000  0.4026120000000 1.0
C      1  0.4790590000000  0.4180900000000  0.4427600000000 1.0
C      1  0.5153340000000  0.4160860000000  0.4827000000000 1.0
C      1  0.4543850000000  0.5570730000000  0.4179940000000 1.0
C      1  0.3832350000000  0.5459120000000  0.5423640000000 1.0
C      1  0.4066350000000  0.5699120000000  0.4756080000000 1.0
C      1  0.4381660000000  0.4346050000000  0.4324660000000 1.0
C      1  0.4873760000000  0.4426290000000  0.4551680000000 1.0
C      1  0.6102020000000  0.5296030000000  0.5216360000000 1.0
C      1  0.4981870000000  0.4627350000000  0.5924830000000 1.0
C      1  0.5479090000000  0.5331060000000  0.5795810000000 1.0
C      1  0.4696700000000  0.3937770000000  0.4977550000000 1.0
C      1  0.5645880000000  0.4114960000000  0.5543360000000 1.0
C      1  0.5416700000000  0.4328210000000  0.5211880000000 1.0
C      1  0.5042720000000  0.5510310000000  0.5922450000000 1.0
C      1  0.5175070000000  0.4942330000000  0.5091690000000 1.0
C      1  0.6122620000000  0.4800490000000  0.4713850000000 1.0
C      1  0.4723200000000  0.4741840000000  0.5001730000000 1.0
C      1  0.4836920000000  0.6032690000000  0.4362800000000 1.0
C      1  0.4161140000000  0.4522130000000  0.4392520000000 1.0
C      1  0.6079440000000  0.5202680000000  0.4958750000000 1.0
C      1  0.5658520000000  0.5162250000000  0.4022770000000 1.0
C      1  0.5186360000000  0.4681180000000  0.5500490000000 1.0
C      1  0.5243670000000  0.6236650000000  0.4694110000000 1.0
C      1  0.5018920000000  0.4321560000000  0.5968290000000 1.0
C      1  0.3946310000000  0.4487920000000  0.5383220000000 1.0
C      1  0.5894940000000  0.4556170000000  0.5755760000000 1.0
C      1  0.5115610000000  0.5264830000000  0.4526790000000 1.0
C      1  0.4323480000000  0.5967600000000  0.5101490000000 1.0
C      1  0.4462250000000  0.4597820000000  0.6045620000000 1.0
C      1  0.5244730000000  0.4824210000000  0.5947550000000 1.0
C      1  0.5102670000000  0.4708100000000  0.5229880000000 1.0
C      1  0.4742300000000  0.4913060000000  0.4485020000000 1.0
C      1  0.4152530000000  0.5501110000000  0.5075540000000 1.0
C      1  0.4345150000000  0.5013470000000  0.5807560000000 1.0
C      1  0.4867100000000  0.4065420000000  0.5209670000000 1.0
C      1  0.4650790000000  0.5595780000000  0.5358770000000 1.0
C      1  0.5761810000000  0.5601580000000  0.4820300000000 1.0
C      1  0.4916580000000  0.4639550000000  0.5627760000000 1.0
C      1  0.4439240000000  0.5452490000000  0.5210330000000 1.0
C      1  0.5453300000000  0.4520700000000  0.4978010000000 1.0
C      1  0.4633560000000  0.4244820000000  0.5752540000000 1.0
C      1  0.4914210000000  0.3773440000000  0.4856990000000 1.0
C      1  0.5151370000000  0.5287690000000  0.3992320000000 1.0
C      1  0.5419970000000  0.5241790000000  0.4539030000000 1.0
C      1  0.5083320000000  0.5926170000000  0.5644970000000 1.0
C      1  0.5230270000000  0.4813380000000  0.4625180000000 1.0
C      1  0.4855000000000  0.6276900000000  0.5084970000000 1.0
C      1  0.4761220000000  0.5724550000000  0.4323570000000 1.0
C      1  0.4780260000000  0.4339420000000  0.5270480000000 1.0
C      1  0.4861300000000  0.3909420000000  0.5471490000000 1.0
C      1  0.5231120000000  0.3791250000000  0.5078800000000 1.0
C      1  0.5312730000000  0.6055220000000  0.5559220000000 1.0
C      1  0.4720730000000  0.5537270000000  0.4665820000000 1.0
END
