TITL C-950528-5794-560 1.06351500686318e-06 125000 -348.167132469775 0 0 58 (C1) n - 1
REM
REM in /home/bkarasulu/work/CARBON/AIRSS/Generating-Clusters/EDIP-Nigel-Params/with-SteepDescent/Only-C1/SD-CG/HFTN-CG
REM
REM
REM
REM
REM
REM ./C.cell (11c1c37f851c82e70ff6c80c92926a4b)
REM
REM compiler GCC version 9.2.1 20190827 (Red Hat 9.2.1-1)
REM options -cpp -mtune=generic -march=x86-64 -g -O0 -fpre-include=/usr/include/finclude/math-vector-fortran.h
REM seed 1998155892 436108352 604946011 369025575 483338620 1806464769 -1914942812 1675854255 1727325658 1955897365 -364602030 -2070011875 -1556753112 1496637781 1566600861 1489458448 1678432215 309305482 -1614438816 1837308205 -1807523100 -1237447018 -270545343 956164638 -461513798 1193642182 488888355 -426947524 693205571 691461060 -1956507236 -1841820626 -1832663166
REM
CELL 1.54180   50.00000   50.00000   50.00000   90.00000   90.00000   90.00000
LATT -1
SFAC C  
C      1  0.5049940000000  0.5370230000000  0.5634180000000 1.0
C      1  0.4460580000000  0.5026890000000  0.4955040000000 1.0
C      1  0.5196100000000  0.4197160000000  0.4951970000000 1.0
C      1  0.4393240000000  0.4751970000000  0.5067350000000 1.0
C      1  0.4443580000000  0.5045780000000  0.4432900000000 1.0
C      1  0.5192390000000  0.5176670000000  0.4986070000000 1.0
C      1  0.5496840000000  0.5639350000000  0.4834330000000 1.0
C      1  0.4616080000000  0.4567090000000  0.4921750000000 1.0
C      1  0.4798620000000  0.4568460000000  0.4422420000000 1.0
C      1  0.5472420000000  0.4838670000000  0.4690010000000 1.0
C      1  0.4946640000000  0.5647560000000  0.4908060000000 1.0
C      1  0.4756100000000  0.4712740000000  0.5342990000000 1.0
C      1  0.4826800000000  0.5314880000000  0.4369330000000 1.0
C      1  0.5491840000000  0.5228100000000  0.5430040000000 1.0
C      1  0.5252120000000  0.5182340000000  0.4259420000000 1.0
C      1  0.4551530000000  0.5305890000000  0.4447130000000 1.0
C      1  0.5640050000000  0.4616260000000  0.4693940000000 1.0
C      1  0.5257990000000  0.4445790000000  0.5068950000000 1.0
C      1  0.5417990000000  0.5640320000000  0.5105000000000 1.0
C      1  0.5329040000000  0.4896800000000  0.4950790000000 1.0
C      1  0.5091640000000  0.5639410000000  0.4658780000000 1.0
C      1  0.4572160000000  0.5413090000000  0.5136460000000 1.0
C      1  0.4883650000000  0.4904590000000  0.5518720000000 1.0
C      1  0.5065430000000  0.4750650000000  0.5683770000000 1.0
C      1  0.4697630000000  0.4286620000000  0.5019410000000 1.0
C      1  0.4343400000000  0.5249270000000  0.5090770000000 1.0
C      1  0.5547050000000  0.5458330000000  0.5275790000000 1.0
C      1  0.4416580000000  0.4986410000000  0.5519770000000 1.0
C      1  0.4931110000000  0.4192770000000  0.4899600000000 1.0
C      1  0.4976210000000  0.5089410000000  0.4262900000000 1.0
C      1  0.4843100000000  0.4760790000000  0.5039350000000 1.0
C      1  0.5125520000000  0.5614300000000  0.5152340000000 1.0
C      1  0.5548990000000  0.4820100000000  0.5148670000000 1.0
C      1  0.5575630000000  0.4948490000000  0.5403090000000 1.0
C      1  0.4770540000000  0.5059060000000  0.4958330000000 1.0
C      1  0.4762840000000  0.5325900000000  0.5588450000000 1.0
C      1  0.4581960000000  0.4595390000000  0.4623200000000 1.0
C      1  0.4973500000000  0.5539740000000  0.4433450000000 1.0
C      1  0.4461730000000  0.4756070000000  0.5359660000000 1.0
C      1  0.4512340000000  0.5484300000000  0.4661040000000 1.0
C      1  0.4648140000000  0.4894250000000  0.4577570000000 1.0
C      1  0.5054530000000  0.4473800000000  0.5617620000000 1.0
C      1  0.5502590000000  0.5502990000000  0.4599000000000 1.0
C      1  0.4664610000000  0.5054240000000  0.5645540000000 1.0
C      1  0.4911430000000  0.4844610000000  0.4413710000000 1.0
C      1  0.5103920000000  0.5332000000000  0.5248690000000 1.0
C      1  0.4663200000000  0.5538740000000  0.4895920000000 1.0
C      1  0.5302530000000  0.4906400000000  0.5675660000000 1.0
C      1  0.4996550000000  0.5287520000000  0.4771870000000 1.0
C      1  0.4826980000000  0.4454400000000  0.5452500000000 1.0
C      1  0.5123500000000  0.4685310000000  0.4973560000000 1.0
C      1  0.5703540000000  0.4438790000000  0.4890430000000 1.0
C      1  0.4794630000000  0.5267830000000  0.5283360000000 1.0
C      1  0.5519270000000  0.5036580000000  0.4498510000000 1.0
C      1  0.5362210000000  0.5272220000000  0.4518110000000 1.0
C      1  0.4724520000000  0.4249630000000  0.5295780000000 1.0
C      1  0.5279460000000  0.5193890000000  0.5621410000000 1.0
C      1  0.5547480000000  0.4519160000000  0.5115500000000 1.0
END
