TITL C-950528-5794-113 1.61004504713512e-06 125000 -1167.37099936169 0 0 187 (C1) n - 1
REM
REM in /home/bkarasulu/work/CARBON/AIRSS/Generating-Clusters/EDIP-Nigel-Params/with-SteepDescent/Only-C1/SD-CG/HFTN-CG
REM
REM
REM
REM
REM
REM ./C.cell (11c1c37f851c82e70ff6c80c92926a4b)
REM
REM compiler GCC version 9.2.1 20190827 (Red Hat 9.2.1-1)
REM options -cpp -mtune=generic -march=x86-64 -g -O0 -fpre-include=/usr/include/finclude/math-vector-fortran.h
REM seed 1692959146 -1070396314 477784635 1480749159 2061293830 107781486 1994198093 1809720393 72625453 -1477938478 -1094102731 -1059048088 -1221289849 2019059377 1208482614 -876439912 1219397613 -1031065219 -1383478046 1630018769 -96120604 -38300766 1096547572 1157114838 -590932717 -2023670682 -365108656 -1061160876 14880083 229740030 -576163076 1808124519 337535890
REM
CELL 1.54180   50.00000   50.00000   50.00000   90.00000   90.00000   90.00000
LATT -1
SFAC C  
C      1  0.5431540000000  0.6190180000000  0.5021790000000 1.0
C      1  0.5967600000000  0.4900470000000  0.4325880000000 1.0
C      1  0.5228030000000  0.5835760000000  0.5762450000000 1.0
C      1  0.4884790000000  0.6053530000000  0.5578810000000 1.0
C      1  0.5040340000000  0.5481770000000  0.5084200000000 1.0
C      1  0.4639650000000  0.4480790000000  0.4759010000000 1.0
C      1  0.4186900000000  0.4737110000000  0.4794070000000 1.0
C      1  0.5591370000000  0.4217640000000  0.5435910000000 1.0
C      1  0.4217950000000  0.5778950000000  0.5430600000000 1.0
C      1  0.5038810000000  0.4926970000000  0.5576790000000 1.0
C      1  0.4721330000000  0.4223640000000  0.5688370000000 1.0
C      1  0.5327700000000  0.5099300000000  0.5586270000000 1.0
C      1  0.5218060000000  0.3770260000000  0.4398600000000 1.0
C      1  0.4329580000000  0.5183640000000  0.4049270000000 1.0
C      1  0.4883370000000  0.6171910000000  0.5319070000000 1.0
C      1  0.5442670000000  0.4521780000000  0.5024140000000 1.0
C      1  0.5578000000000  0.4963300000000  0.5152320000000 1.0
C      1  0.5322520000000  0.5061440000000  0.4700770000000 1.0
C      1  0.4864300000000  0.4457770000000  0.4566400000000 1.0
C      1  0.4817630000000  0.4639330000000  0.5942650000000 1.0
C      1  0.5632880000000  0.6048530000000  0.5674770000000 1.0
C      1  0.4629630000000  0.3842350000000  0.5308810000000 1.0
C      1  0.5622500000000  0.5982900000000  0.5401390000000 1.0
C      1  0.5600850000000  0.5051630000000  0.4608650000000 1.0
C      1  0.5158270000000  0.4427760000000  0.5653770000000 1.0
C      1  0.5555340000000  0.4935690000000  0.5472970000000 1.0
C      1  0.4355890000000  0.6028930000000  0.5006010000000 1.0
C      1  0.4738730000000  0.5793430000000  0.5602140000000 1.0
C      1  0.4283780000000  0.4429540000000  0.4377800000000 1.0
C      1  0.5312260000000  0.4073620000000  0.4888920000000 1.0
C      1  0.4387780000000  0.3948250000000  0.5204420000000 1.0
C      1  0.5222390000000  0.5518960000000  0.4170940000000 1.0
C      1  0.4587070000000  0.5763060000000  0.5850890000000 1.0
C      1  0.4799500000000  0.5133850000000  0.6166800000000 1.0
C      1  0.4802140000000  0.3790210000000  0.4976410000000 1.0
C      1  0.5659280000000  0.5491560000000  0.5533290000000 1.0
C      1  0.4388830000000  0.4431420000000  0.5215810000000 1.0
C      1  0.4720820000000  0.4493060000000  0.5262900000000 1.0
C      1  0.5106180000000  0.4590210000000  0.4687720000000 1.0
C      1  0.5019150000000  0.5896950000000  0.4432390000000 1.0
C      1  0.3976440000000  0.5022470000000  0.5122760000000 1.0
C      1  0.5071290000000  0.4214650000000  0.4194350000000 1.0
C      1  0.5098360000000  0.5162170000000  0.3868610000000 1.0
C      1  0.4276170000000  0.4433800000000  0.5496830000000 1.0
C      1  0.5222480000000  0.5219220000000  0.4125030000000 1.0
C      1  0.5013140000000  0.4692840000000  0.4967710000000 1.0
C      1  0.5735370000000  0.4168310000000  0.4685770000000 1.0
C      1  0.4794080000000  0.5103960000000  0.4847910000000 1.0
C      1  0.4959290000000  0.3714920000000  0.4476470000000 1.0
C      1  0.4100510000000  0.4868700000000  0.4345160000000 1.0
C      1  0.5169040000000  0.4849830000000  0.4548770000000 1.0
C      1  0.4499130000000  0.4427030000000  0.5689320000000 1.0
C      1  0.4547570000000  0.4193900000000  0.4829350000000 1.0
C      1  0.5719180000000  0.5087810000000  0.4332680000000 1.0
C      1  0.4804240000000  0.5554710000000  0.4594680000000 1.0
C      1  0.4182130000000  0.5782000000000  0.4957040000000 1.0
C      1  0.5587090000000  0.3970630000000  0.4850440000000 1.0
C      1  0.5352320000000  0.4372300000000  0.4770710000000 1.0
C      1  0.5959970000000  0.5421130000000  0.5038370000000 1.0
C      1  0.4381250000000  0.4386800000000  0.4106200000000 1.0
C      1  0.5380830000000  0.6031970000000  0.5244860000000 1.0
C      1  0.5524430000000  0.4666320000000  0.5576530000000 1.0
C      1  0.5301670000000  0.5075360000000  0.5018630000000 1.0
C      1  0.4744950000000  0.4611030000000  0.5003350000000 1.0
C      1  0.5183400000000  0.5623960000000  0.5551100000000 1.0
C      1  0.4370230000000  0.5261820000000  0.5390920000000 1.0
C      1  0.5134520000000  0.3979060000000  0.5411240000000 1.0
C      1  0.3939640000000  0.5228860000000  0.5316700000000 1.0
C      1  0.4379870000000  0.5291470000000  0.4773000000000 1.0
C      1  0.5665780000000  0.4517830000000  0.4334520000000 1.0
C      1  0.4549620000000  0.5029710000000  0.5480890000000 1.0
C      1  0.4470200000000  0.4041740000000  0.4583990000000 1.0
C      1  0.5692170000000  0.4700820000000  0.5040460000000 1.0
C      1  0.5485930000000  0.5543490000000  0.4973450000000 1.0
C      1  0.4601260000000  0.5717250000000  0.4746420000000 1.0
C      1  0.4660200000000  0.4064900000000  0.4380560000000 1.0
C      1  0.5567480000000  0.4288250000000  0.4479150000000 1.0
C      1  0.4243630000000  0.4643380000000  0.5068950000000 1.0
C      1  0.4605890000000  0.5797320000000  0.5330530000000 1.0
C      1  0.5353740000000  0.4593990000000  0.5788680000000 1.0
C      1  0.5203440000000  0.5701880000000  0.4595500000000 1.0
C      1  0.5423090000000  0.5391610000000  0.5964650000000 1.0
C      1  0.5508380000000  0.5860850000000  0.5843820000000 1.0
C      1  0.5722360000000  0.3868150000000  0.5077180000000 1.0
C      1  0.5115960000000  0.3930870000000  0.4197690000000 1.0
C      1  0.4553960000000  0.5947870000000  0.4371720000000 1.0
C      1  0.4079260000000  0.4784090000000  0.5238080000000 1.0
C      1  0.5613040000000  0.5583470000000  0.5824420000000 1.0
C      1  0.4988990000000  0.4907670000000  0.3909540000000 1.0
C      1  0.5222530000000  0.4966210000000  0.6057540000000 1.0
C      1  0.5306700000000  0.4180940000000  0.5538520000000 1.0
C      1  0.5698500000000  0.5579300000000  0.4430720000000 1.0
C      1  0.3887250000000  0.5481240000000  0.5221410000000 1.0
C      1  0.4210170000000  0.5373030000000  0.5779340000000 1.0
C      1  0.4033820000000  0.5715510000000  0.5204730000000 1.0
C      1  0.4397500000000  0.5581190000000  0.4886540000000 1.0
C      1  0.4782400000000  0.4079660000000  0.4962990000000 1.0
C      1  0.5100050000000  0.6086450000000  0.5748270000000 1.0
C      1  0.4328020000000  0.4184030000000  0.5042650000000 1.0
C      1  0.5894760000000  0.4362860000000  0.4836670000000 1.0
C      1  0.4547780000000  0.5179330000000  0.4988850000000 1.0
C      1  0.5460870000000  0.4324910000000  0.3946980000000 1.0
C      1  0.4712730000000  0.4925290000000  0.3983210000000 1.0
C      1  0.4993770000000  0.4978740000000  0.5042770000000 1.0
C      1  0.5170120000000  0.4693460000000  0.3996900000000 1.0
C      1  0.4109290000000  0.5464850000000  0.4481960000000 1.0
C      1  0.6044010000000  0.4887410000000  0.4802540000000 1.0
C      1  0.5401790000000  0.5599680000000  0.4391990000000 1.0
C      1  0.5201260000000  0.4611080000000  0.5176810000000 1.0
C      1  0.6091900000000  0.5311500000000  0.4522180000000 1.0
C      1  0.4947660000000  0.5368360000000  0.4788950000000 1.0
C      1  0.5737680000000  0.5720320000000  0.5353320000000 1.0
C      1  0.4042050000000  0.5023630000000  0.4833850000000 1.0
C      1  0.4594160000000  0.5602460000000  0.6074840000000 1.0
C      1  0.4637470000000  0.4924210000000  0.4600900000000 1.0
C      1  0.4315930000000  0.5650870000000  0.4411870000000 1.0
C      1  0.4732440000000  0.5286820000000  0.4327900000000 1.0
C      1  0.4428460000000  0.4933050000000  0.5745950000000 1.0
C      1  0.5888770000000  0.4569980000000  0.5259020000000 1.0
C      1  0.5080600000000  0.5191360000000  0.6204110000000 1.0
C      1  0.4411140000000  0.5190070000000  0.5909800000000 1.0
C      1  0.4824620000000  0.5946980000000  0.5140840000000 1.0
C      1  0.5775540000000  0.4096410000000  0.5233890000000 1.0
C      1  0.4087250000000  0.4675670000000  0.5506260000000 1.0
C      1  0.4909840000000  0.5541860000000  0.5570400000000 1.0
C      1  0.5129710000000  0.5430080000000  0.6025740000000 1.0
C      1  0.5781950000000  0.5070550000000  0.4830650000000 1.0
C      1  0.5890590000000  0.5355950000000  0.4757460000000 1.0
C      1  0.4541700000000  0.4664040000000  0.5852820000000 1.0
C      1  0.5749610000000  0.5642560000000  0.5069030000000 1.0
C      1  0.4558170000000  0.5391640000000  0.5194640000000 1.0
C      1  0.4929070000000  0.4374980000000  0.5836570000000 1.0
C      1  0.5855720000000  0.5720530000000  0.4628470000000 1.0
C      1  0.5787210000000  0.5022370000000  0.5633370000000 1.0
C      1  0.4221380000000  0.4178420000000  0.4524660000000 1.0
C      1  0.5941580000000  0.5193910000000  0.5226110000000 1.0
C      1  0.4913320000000  0.5373790000000  0.5814060000000 1.0
C      1  0.4827000000000  0.4042110000000  0.5441830000000 1.0
C      1  0.6020160000000  0.4900450000000  0.5146340000000 1.0
C      1  0.4452070000000  0.4681100000000  0.4625220000000 1.0
C      1  0.4953930000000  0.4908720000000  0.5898480000000 1.0
C      1  0.5603580000000  0.4549230000000  0.4050580000000 1.0
C      1  0.4005950000000  0.5268080000000  0.4665380000000 1.0
C      1  0.5369230000000  0.5394440000000  0.5452380000000 1.0
C      1  0.5515300000000  0.6005970000000  0.4827140000000 1.0
C      1  0.4815280000000  0.4297560000000  0.4309570000000 1.0
C      1  0.4588130000000  0.4714870000000  0.4126460000000 1.0
C      1  0.4270260000000  0.5091550000000  0.4308320000000 1.0
C      1  0.4080860000000  0.4259170000000  0.4766850000000 1.0
C      1  0.4944050000000  0.5658720000000  0.4244660000000 1.0
C      1  0.5909470000000  0.4632440000000  0.4427310000000 1.0
C      1  0.4040740000000  0.4599760000000  0.4396700000000 1.0
C      1  0.4879830000000  0.3670200000000  0.4737870000000 1.0
C      1  0.5712090000000  0.5032540000000  0.5906250000000 1.0
C      1  0.4613310000000  0.5196030000000  0.4047710000000 1.0
C      1  0.4389990000000  0.6003640000000  0.5305430000000 1.0
C      1  0.3985960000000  0.4533970000000  0.4689350000000 1.0
C      1  0.5313880000000  0.5366200000000  0.5135120000000 1.0
C      1  0.4847050000000  0.5380040000000  0.5312100000000 1.0
C      1  0.5167500000000  0.5295210000000  0.4600700000000 1.0
C      1  0.4839520000000  0.5070250000000  0.5386370000000 1.0
C      1  0.6154160000000  0.5020850000000  0.4530640000000 1.0
C      1  0.4782440000000  0.6046240000000  0.4523430000000 1.0
C      1  0.4498680000000  0.5160980000000  0.4498720000000 1.0
C      1  0.5782340000000  0.5873280000000  0.4864950000000 1.0
C      1  0.4645740000000  0.5991860000000  0.4873890000000 1.0
C      1  0.4049090000000  0.5173010000000  0.5602140000000 1.0
C      1  0.5710930000000  0.4477620000000  0.5484980000000 1.0
C      1  0.4133790000000  0.4893700000000  0.5697470000000 1.0
C      1  0.4661430000000  0.4442460000000  0.4095990000000 1.0
C      1  0.5444380000000  0.4794010000000  0.3993820000000 1.0
C      1  0.4666190000000  0.5331180000000  0.5987380000000 1.0
C      1  0.5951010000000  0.4311290000000  0.5118660000000 1.0
C      1  0.4562710000000  0.5682760000000  0.4250320000000 1.0
C      1  0.5858910000000  0.5358820000000  0.4320810000000 1.0
C      1  0.5327870000000  0.5774680000000  0.4862630000000 1.0
C      1  0.5034920000000  0.5137320000000  0.4365110000000 1.0
C      1  0.5429520000000  0.5109750000000  0.5884320000000 1.0
C      1  0.5865600000000  0.5265720000000  0.5500520000000 1.0
C      1  0.5491070000000  0.5056510000000  0.4128680000000 1.0
C      1  0.5100260000000  0.5798280000000  0.5097190000000 1.0
C      1  0.5029940000000  0.4614780000000  0.5436890000000 1.0
C      1  0.4352770000000  0.5523820000000  0.5565450000000 1.0
C      1  0.5201400000000  0.3967540000000  0.5132650000000 1.0
C      1  0.5191940000000  0.4392720000000  0.3995040000000 1.0
C      1  0.4826700000000  0.4225940000000  0.5213780000000 1.0
C      1  0.5963830000000  0.4615360000000  0.4708610000000 1.0
END
