TITL C-950532-2784-103 -8.92298549057126e-07 125000 -591.013544487194 0 0 97 (C1) n - 1
REM
REM in /home/bkarasulu/work/CARBON/AIRSS/Generating-Clusters/EDIP-Nigel-Params/with-SteepDescent/Only-C1/SD-CG/HFTN-CG
REM
REM
REM
REM
REM
REM ./C.cell (11c1c37f851c82e70ff6c80c92926a4b)
REM
REM compiler GCC version 9.2.1 20190827 (Red Hat 9.2.1-1)
REM options -cpp -mtune=generic -march=x86-64 -g -O0 -fpre-include=/usr/include/finclude/math-vector-fortran.h
REM seed -543113727 1277627589 -1779229626 2109553450 -1881910760 1658017736 1350281146 -1159197971 -1580225633 1767860457 -1418993005 -1369298875 -632854903 -1947981474 1940899720 -254725904 1008837705 -2119851011 -1883130858 -415991346 -1280904132 -1020236819 701001551 -1772839473 617306464 608250159 1407836499 -928707070 -1058328652 724351595 462529871 -363184145 1200261882
REM
CELL 1.54180   50.00000   50.00000   50.00000   90.00000   90.00000   90.00000
LATT -1
SFAC C  
C      1  0.4287680000000  0.4959480000000  0.4521360000000 1.0
C      1  0.4973290000000  0.4171970000000  0.5208230000000 1.0
C      1  0.5692430000000  0.4324100000000  0.5009490000000 1.0
C      1  0.4989620000000  0.5082510000000  0.5825380000000 1.0
C      1  0.4140960000000  0.4754750000000  0.5058560000000 1.0
C      1  0.5201650000000  0.5787830000000  0.5390800000000 1.0
C      1  0.4750250000000  0.5100500000000  0.4662910000000 1.0
C      1  0.5006340000000  0.5684890000000  0.4665990000000 1.0
C      1  0.4957170000000  0.4366050000000  0.5439410000000 1.0
C      1  0.4961810000000  0.5287930000000  0.4548400000000 1.0
C      1  0.5002650000000  0.4787710000000  0.5722140000000 1.0
C      1  0.5006300000000  0.4864440000000  0.5430900000000 1.0
C      1  0.5627410000000  0.4738770000000  0.5146200000000 1.0
C      1  0.4940460000000  0.6022760000000  0.5054640000000 1.0
C      1  0.4007790000000  0.5284710000000  0.4630450000000 1.0
C      1  0.5674650000000  0.4787850000000  0.5433900000000 1.0
C      1  0.4854960000000  0.5526600000000  0.5079290000000 1.0
C      1  0.4933900000000  0.5336580000000  0.4252310000000 1.0
C      1  0.4536260000000  0.5762190000000  0.4716310000000 1.0
C      1  0.4729420000000  0.4484160000000  0.4338060000000 1.0
C      1  0.5465230000000  0.4350380000000  0.5494800000000 1.0
C      1  0.5460560000000  0.4331330000000  0.5199860000000 1.0
C      1  0.4794150000000  0.4759510000000  0.4208820000000 1.0
C      1  0.5447620000000  0.4624500000000  0.4357610000000 1.0
C      1  0.5229760000000  0.4599380000000  0.5781520000000 1.0
C      1  0.5282390000000  0.4224790000000  0.4777720000000 1.0
C      1  0.5597500000000  0.5616800000000  0.5006430000000 1.0
C      1  0.5451080000000  0.5338800000000  0.4421830000000 1.0
C      1  0.5135300000000  0.4433920000000  0.4614150000000 1.0
C      1  0.5305210000000  0.5385350000000  0.4921930000000 1.0
C      1  0.4776950000000  0.5073570000000  0.5366080000000 1.0
C      1  0.4707480000000  0.5118380000000  0.5737660000000 1.0
C      1  0.5839900000000  0.4585440000000  0.4998740000000 1.0
C      1  0.4726550000000  0.4663900000000  0.5751480000000 1.0
C      1  0.4351020000000  0.5011940000000  0.5445360000000 1.0
C      1  0.5575140000000  0.4591610000000  0.5622320000000 1.0
C      1  0.4947280000000  0.5306040000000  0.5251830000000 1.0
C      1  0.5846830000000  0.5102020000000  0.4938060000000 1.0
C      1  0.4907720000000  0.5502550000000  0.5643440000000 1.0
C      1  0.5710090000000  0.5492330000000  0.4787180000000 1.0
C      1  0.5097350000000  0.5614110000000  0.4929560000000 1.0
C      1  0.4962650000000  0.4618630000000  0.5258470000000 1.0
C      1  0.5178420000000  0.5864430000000  0.5093930000000 1.0
C      1  0.4699120000000  0.5874610000000  0.5424700000000 1.0
C      1  0.4217590000000  0.5283940000000  0.4820330000000 1.0
C      1  0.4832360000000  0.5032020000000  0.4928440000000 1.0
C      1  0.4488780000000  0.5832690000000  0.4984270000000 1.0
C      1  0.5863960000000  0.4685040000000  0.4706020000000 1.0
C      1  0.4742670000000  0.4153740000000  0.5032550000000 1.0
C      1  0.5277580000000  0.5234410000000  0.4645620000000 1.0
C      1  0.4507600000000  0.4772830000000  0.5544620000000 1.0
C      1  0.4938030000000  0.5772830000000  0.5538540000000 1.0
C      1  0.5329460000000  0.4881820000000  0.4292810000000 1.0
C      1  0.4124410000000  0.5256690000000  0.5099420000000 1.0
C      1  0.5159960000000  0.5308690000000  0.5678570000000 1.0
C      1  0.4458900000000  0.4477520000000  0.5456070000000 1.0
C      1  0.5570290000000  0.5489710000000  0.5260720000000 1.0
C      1  0.4511590000000  0.4423560000000  0.5177750000000 1.0
C      1  0.4181180000000  0.4986990000000  0.5210440000000 1.0
C      1  0.4247750000000  0.5460010000000  0.5272530000000 1.0
C      1  0.4640430000000  0.4696500000000  0.4562060000000 1.0
C      1  0.5578010000000  0.4991790000000  0.4998590000000 1.0
C      1  0.4750100000000  0.4285010000000  0.4768540000000 1.0
C      1  0.4294740000000  0.5700860000000  0.5134860000000 1.0
C      1  0.4704440000000  0.4384270000000  0.5616500000000 1.0
C      1  0.5719520000000  0.5395520000000  0.4522250000000 1.0
C      1  0.5406670000000  0.4937480000000  0.4724630000000 1.0
C      1  0.5198850000000  0.5171150000000  0.5137850000000 1.0
C      1  0.5593660000000  0.5065010000000  0.5482930000000 1.0
C      1  0.5179900000000  0.4729240000000  0.4749070000000 1.0
C      1  0.5704360000000  0.5235750000000  0.5273390000000 1.0
C      1  0.4599730000000  0.4937280000000  0.5094260000000 1.0
C      1  0.4771870000000  0.4567940000000  0.4803630000000 1.0
C      1  0.5077970000000  0.4881070000000  0.4994900000000 1.0
C      1  0.4222110000000  0.4630640000000  0.4833660000000 1.0
C      1  0.4631120000000  0.5377710000000  0.5652540000000 1.0
C      1  0.5357190000000  0.5546890000000  0.5448310000000 1.0
C      1  0.4731410000000  0.5527170000000  0.4315260000000 1.0
C      1  0.4019670000000  0.5045550000000  0.4501080000000 1.0
C      1  0.4429640000000  0.5066580000000  0.4769730000000 1.0
C      1  0.4821640000000  0.4249520000000  0.4489260000000 1.0
C      1  0.4335340000000  0.4681290000000  0.4582140000000 1.0
C      1  0.4416570000000  0.5302110000000  0.5458660000000 1.0
C      1  0.4740230000000  0.5818540000000  0.5142000000000 1.0
C      1  0.5509500000000  0.5104230000000  0.4260030000000 1.0
C      1  0.5562210000000  0.4314570000000  0.4740410000000 1.0
C      1  0.5252580000000  0.4425970000000  0.4343110000000 1.0
C      1  0.5583130000000  0.4597550000000  0.4623690000000 1.0
C      1  0.4698200000000  0.4636140000000  0.5086080000000 1.0
C      1  0.5200030000000  0.4357240000000  0.5621450000000 1.0
C      1  0.4750110000000  0.5678200000000  0.4554380000000 1.0
C      1  0.5835960000000  0.5128030000000  0.4459430000000 1.0
C      1  0.5072990000000  0.4868940000000  0.4146530000000 1.0
C      1  0.5234660000000  0.4206730000000  0.5070330000000 1.0
C      1  0.5298910000000  0.5117290000000  0.5445740000000 1.0
C      1  0.4922240000000  0.5108450000000  0.4084810000000 1.0
C      1  0.5931890000000  0.4979210000000  0.4691000000000 1.0
END
