TITL C-950532-2784-543 1.74171305928484e-06 125000 -1060.88197379196 0 0 171 (C1) n - 1
REM
REM in /home/bkarasulu/work/CARBON/AIRSS/Generating-Clusters/EDIP-Nigel-Params/with-SteepDescent/Only-C1/SD-CG/HFTN-CG
REM
REM
REM
REM
REM
REM ./C.cell (11c1c37f851c82e70ff6c80c92926a4b)
REM
REM compiler GCC version 9.2.1 20190827 (Red Hat 9.2.1-1)
REM options -cpp -mtune=generic -march=x86-64 -g -O0 -fpre-include=/usr/include/finclude/math-vector-fortran.h
REM seed 787414364 1097386133 2017700183 -238176608 1714879454 1245287089 -1860855530 1729305681 -1598144306 825336504 -1165116986 197863052 1731753615 -1891774743 1045412948 -572261667 565561671 1787440252 -559503950 -959193054 260708007 1650525395 2145826608 731815235 318086187 -1139247204 -1235396614 -907415626 -431627030 2117136510 -1460845857 -259710998 1916952104
REM
CELL 1.54180   50.00000   50.00000   50.00000   90.00000   90.00000   90.00000
LATT -1
SFAC C  
C      1  0.5684750000000  0.5862470000000  0.4766630000000 1.0
C      1  0.5589510000000  0.4614360000000  0.5928450000000 1.0
C      1  0.4394450000000  0.4726130000000  0.5083870000000 1.0
C      1  0.4408040000000  0.4532800000000  0.5517060000000 1.0
C      1  0.5873400000000  0.4236000000000  0.5237900000000 1.0
C      1  0.3989270000000  0.4594280000000  0.5373870000000 1.0
C      1  0.4601240000000  0.3989500000000  0.4633450000000 1.0
C      1  0.5101700000000  0.5428340000000  0.5968410000000 1.0
C      1  0.5339630000000  0.5657510000000  0.5067480000000 1.0
C      1  0.4598720000000  0.5439320000000  0.5905470000000 1.0
C      1  0.4382180000000  0.5931870000000  0.5060550000000 1.0
C      1  0.5658980000000  0.5881600000000  0.5057790000000 1.0
C      1  0.4669940000000  0.4837520000000  0.6075170000000 1.0
C      1  0.4811000000000  0.4692900000000  0.4933950000000 1.0
C      1  0.4870330000000  0.5598790000000  0.5317990000000 1.0
C      1  0.4250190000000  0.5209260000000  0.5172730000000 1.0
C      1  0.5766380000000  0.5461500000000  0.5369660000000 1.0
C      1  0.5484210000000  0.4722540000000  0.4024790000000 1.0
C      1  0.4029280000000  0.4313760000000  0.5256850000000 1.0
C      1  0.4552770000000  0.5815650000000  0.4623420000000 1.0
C      1  0.4777680000000  0.4366300000000  0.4926690000000 1.0
C      1  0.4179390000000  0.5760190000000  0.4950300000000 1.0
C      1  0.5142500000000  0.4364680000000  0.5353610000000 1.0
C      1  0.5673950000000  0.4373540000000  0.5810940000000 1.0
C      1  0.5260660000000  0.5999060000000  0.5337810000000 1.0
C      1  0.5173090000000  0.5167910000000  0.3943250000000 1.0
C      1  0.4676430000000  0.5275210000000  0.4002620000000 1.0
C      1  0.6043470000000  0.4662730000000  0.4560570000000 1.0
C      1  0.3835400000000  0.4806180000000  0.5229250000000 1.0
C      1  0.5085530000000  0.6016430000000  0.5078360000000 1.0
C      1  0.5392380000000  0.4868190000000  0.5636980000000 1.0
C      1  0.4524690000000  0.4923620000000  0.4313970000000 1.0
C      1  0.5091190000000  0.5302720000000  0.4720820000000 1.0
C      1  0.5048480000000  0.6147490000000  0.4549120000000 1.0
C      1  0.5238870000000  0.5128480000000  0.5166660000000 1.0
C      1  0.5643480000000  0.5531200000000  0.4338740000000 1.0
C      1  0.5368340000000  0.4968550000000  0.3951030000000 1.0
C      1  0.4856770000000  0.5583100000000  0.5923000000000 1.0
C      1  0.5615440000000  0.4709090000000  0.4301200000000 1.0
C      1  0.4745420000000  0.5544400000000  0.4117490000000 1.0
C      1  0.5477230000000  0.5431570000000  0.4950880000000 1.0
C      1  0.4919270000000  0.5815240000000  0.5744510000000 1.0
C      1  0.5183230000000  0.5051590000000  0.4886200000000 1.0
C      1  0.5279220000000  0.4109880000000  0.4621430000000 1.0
C      1  0.4257380000000  0.5733730000000  0.4668570000000 1.0
C      1  0.4265880000000  0.5125940000000  0.4668810000000 1.0
C      1  0.4296490000000  0.4177850000000  0.4908960000000 1.0
C      1  0.5462750000000  0.4225010000000  0.5696990000000 1.0
C      1  0.5390940000000  0.4570380000000  0.4445610000000 1.0
C      1  0.5241130000000  0.5140680000000  0.5657990000000 1.0
C      1  0.4606570000000  0.5975860000000  0.4885240000000 1.0
C      1  0.5701270000000  0.4602830000000  0.4935390000000 1.0
C      1  0.4079410000000  0.5290830000000  0.4484100000000 1.0
C      1  0.5985370000000  0.5037540000000  0.5425160000000 1.0
C      1  0.5750780000000  0.4021880000000  0.5108270000000 1.0
C      1  0.5043670000000  0.5137160000000  0.5406350000000 1.0
C      1  0.5480560000000  0.3964650000000  0.5058140000000 1.0
C      1  0.4454300000000  0.5174380000000  0.4167900000000 1.0
C      1  0.5245320000000  0.4613950000000  0.5241260000000 1.0
C      1  0.5453090000000  0.4977680000000  0.4743820000000 1.0
C      1  0.5241380000000  0.5933310000000  0.4610380000000 1.0
C      1  0.5210530000000  0.4302750000000  0.5814470000000 1.0
C      1  0.4442840000000  0.3953060000000  0.5060090000000 1.0
C      1  0.4885720000000  0.4953610000000  0.5910390000000 1.0
C      1  0.5995570000000  0.4582570000000  0.4854440000000 1.0
C      1  0.5201820000000  0.5774920000000  0.5648950000000 1.0
C      1  0.5081530000000  0.4750980000000  0.4817280000000 1.0
C      1  0.4663820000000  0.4900640000000  0.4784780000000 1.0
C      1  0.5599690000000  0.5666750000000  0.5480090000000 1.0
C      1  0.4783980000000  0.4233270000000  0.4638040000000 1.0
C      1  0.5127360000000  0.4759720000000  0.4483590000000 1.0
C      1  0.5689890000000  0.5300560000000  0.5126580000000 1.0
C      1  0.5537650000000  0.4460870000000  0.4704790000000 1.0
C      1  0.4701920000000  0.5546470000000  0.4639750000000 1.0
C      1  0.4972950000000  0.5184580000000  0.4458130000000 1.0
C      1  0.4825420000000  0.5446460000000  0.4384690000000 1.0
C      1  0.4518260000000  0.5316860000000  0.4733010000000 1.0
C      1  0.5382910000000  0.5404760000000  0.4658050000000 1.0
C      1  0.5558970000000  0.5919270000000  0.5333420000000 1.0
C      1  0.6019530000000  0.5017280000000  0.5133480000000 1.0
C      1  0.4570760000000  0.4442200000000  0.4243540000000 1.0
C      1  0.4831280000000  0.4786040000000  0.3988200000000 1.0
C      1  0.6033840000000  0.5262540000000  0.4962520000000 1.0
C      1  0.5486610000000  0.5153810000000  0.4506530000000 1.0
C      1  0.4564710000000  0.5205830000000  0.5188050000000 1.0
C      1  0.5270590000000  0.4509320000000  0.4020930000000 1.0
C      1  0.4597020000000  0.4574610000000  0.5936560000000 1.0
C      1  0.4479560000000  0.4397180000000  0.5038600000000 1.0
C      1  0.4262310000000  0.4727690000000  0.5362820000000 1.0
C      1  0.5530850000000  0.4088490000000  0.4465650000000 1.0
C      1  0.5031820000000  0.4206820000000  0.5100560000000 1.0
C      1  0.4136330000000  0.5088950000000  0.5580400000000 1.0
C      1  0.5324050000000  0.3942290000000  0.5307770000000 1.0
C      1  0.4222120000000  0.4617030000000  0.4586120000000 1.0
C      1  0.4751650000000  0.5814280000000  0.5497210000000 1.0
C      1  0.4685660000000  0.6079190000000  0.5360650000000 1.0
C      1  0.5926710000000  0.5182880000000  0.4488840000000 1.0
C      1  0.5087360000000  0.5137390000000  0.6002960000000 1.0
C      1  0.3886960000000  0.4798820000000  0.4938600000000 1.0
C      1  0.5017500000000  0.3932100000000  0.5248960000000 1.0
C      1  0.5685700000000  0.4875910000000  0.5763700000000 1.0
C      1  0.5261370000000  0.4556370000000  0.4956240000000 1.0
C      1  0.5236400000000  0.5040990000000  0.4360300000000 1.0
C      1  0.4676340000000  0.5161780000000  0.4917360000000 1.0
C      1  0.4776490000000  0.4932330000000  0.4505490000000 1.0
C      1  0.4570820000000  0.4710540000000  0.4115750000000 1.0
C      1  0.4979480000000  0.4755600000000  0.5713200000000 1.0
C      1  0.4300320000000  0.4881040000000  0.4496860000000 1.0
C      1  0.4847720000000  0.4354650000000  0.4217220000000 1.0
C      1  0.4935130000000  0.4865530000000  0.5430170000000 1.0
C      1  0.5026880000000  0.4161460000000  0.4489260000000 1.0
C      1  0.4403350000000  0.4409610000000  0.4492010000000 1.0
C      1  0.5296970000000  0.4167750000000  0.4917150000000 1.0
C      1  0.6054160000000  0.4937650000000  0.4505200000000 1.0
C      1  0.4213400000000  0.5325170000000  0.4226510000000 1.0
C      1  0.5521710000000  0.5022800000000  0.5201490000000 1.0
C      1  0.5265500000000  0.5416410000000  0.4037880000000 1.0
C      1  0.4561200000000  0.5211620000000  0.6074330000000 1.0
C      1  0.4617520000000  0.3835890000000  0.4874480000000 1.0
C      1  0.5987960000000  0.4587090000000  0.5337640000000 1.0
C      1  0.4347960000000  0.4625500000000  0.5786520000000 1.0
C      1  0.4800760000000  0.4522140000000  0.5715880000000 1.0
C      1  0.5169070000000  0.5619220000000  0.5353720000000 1.0
C      1  0.5441980000000  0.4786790000000  0.5365710000000 1.0
C      1  0.5284210000000  0.4586530000000  0.5882750000000 1.0
C      1  0.4817650000000  0.4030480000000  0.5449740000000 1.0
C      1  0.4343470000000  0.5037050000000  0.6041170000000 1.0
C      1  0.5737640000000  0.4275670000000  0.4560140000000 1.0
C      1  0.5408620000000  0.4231910000000  0.5401800000000 1.0
C      1  0.5329250000000  0.5563100000000  0.5834400000000 1.0
C      1  0.5341900000000  0.4340500000000  0.4248310000000 1.0
C      1  0.4062490000000  0.4587390000000  0.4836130000000 1.0
C      1  0.5365330000000  0.5569850000000  0.4251000000000 1.0
C      1  0.5761420000000  0.5272240000000  0.4272910000000 1.0
C      1  0.4480030000000  0.5741190000000  0.5567050000000 1.0
C      1  0.5201510000000  0.5780390000000  0.4357530000000 1.0
C      1  0.4996930000000  0.4577130000000  0.4105940000000 1.0
C      1  0.4201450000000  0.5370650000000  0.5584750000000 1.0
C      1  0.4752280000000  0.4768210000000  0.5218640000000 1.0
C      1  0.4542890000000  0.4064340000000  0.5318560000000 1.0
C      1  0.4072770000000  0.5524860000000  0.5384660000000 1.0
C      1  0.4351350000000  0.4148930000000  0.4615340000000 1.0
C      1  0.4276280000000  0.4917150000000  0.5788640000000 1.0
C      1  0.4395920000000  0.6029150000000  0.5329470000000 1.0
C      1  0.4037090000000  0.4318110000000  0.4959630000000 1.0
C      1  0.5702530000000  0.5197600000000  0.5787340000000 1.0
C      1  0.5137790000000  0.5789460000000  0.4874990000000 1.0
C      1  0.4801480000000  0.6082710000000  0.5087650000000 1.0
C      1  0.4071220000000  0.5540930000000  0.5104630000000 1.0
C      1  0.4899670000000  0.5077060000000  0.4006090000000 1.0
C      1  0.4205690000000  0.4989670000000  0.4951360000000 1.0
C      1  0.4940450000000  0.5553480000000  0.4824990000000 1.0
C      1  0.4563820000000  0.5763250000000  0.4136410000000 1.0
C      1  0.5935640000000  0.5369280000000  0.4706550000000 1.0
C      1  0.5731110000000  0.5590260000000  0.4629480000000 1.0
C      1  0.5884550000000  0.5274830000000  0.5562950000000 1.0
C      1  0.6105830000000  0.4732990000000  0.5091120000000 1.0
C      1  0.4632480000000  0.5931970000000  0.4352920000000 1.0
C      1  0.4483560000000  0.5459740000000  0.5632010000000 1.0
C      1  0.5653090000000  0.4433050000000  0.5220620000000 1.0
C      1  0.5635180000000  0.4899780000000  0.4947720000000 1.0
C      1  0.4088230000000  0.5578850000000  0.4497220000000 1.0
C      1  0.5511230000000  0.6031290000000  0.4630500000000 1.0
C      1  0.5843450000000  0.4515050000000  0.4388670000000 1.0
C      1  0.4329360000000  0.4279000000000  0.5377480000000 1.0
C      1  0.5463570000000  0.5356220000000  0.5669940000000 1.0
C      1  0.4906990000000  0.6023260000000  0.4335030000000 1.0
C      1  0.5910370000000  0.4791700000000  0.5556070000000 1.0
C      1  0.4759500000000  0.5330500000000  0.5393090000000 1.0
C      1  0.3951980000000  0.5043910000000  0.5355950000000 1.0
C      1  0.4970260000000  0.4285550000000  0.5623270000000 1.0
END
