TITL C-950528-5794-45 2.42622650565251e-07 125000 -276.84508102423 0 0 46 (C1) n - 1
REM
REM in /home/bkarasulu/work/CARBON/AIRSS/Generating-Clusters/EDIP-Nigel-Params/with-SteepDescent/Only-C1/SD-CG/HFTN-CG
REM
REM
REM
REM
REM
REM ./C.cell (11c1c37f851c82e70ff6c80c92926a4b)
REM
REM compiler GCC version 9.2.1 20190827 (Red Hat 9.2.1-1)
REM options -cpp -mtune=generic -march=x86-64 -g -O0 -fpre-include=/usr/include/finclude/math-vector-fortran.h
REM seed 640202415 -150819358 338994905 104377137 -705362699 1608965976 -2135898120 -102402653 173407046 -554255580 -1964960734 434222942 -1093460954 -903029423 -1400999665 194563776 -83676928 1438885379 1274326410 924094517 1040349536 -241520121 -1811509697 1101163155 -1665489357 647358898 1354295632 -2126991191 -919865168 -982441091 809558383 1615356294 -581565583
REM
CELL 1.54180   50.00000   50.00000   50.00000   90.00000   90.00000   90.00000
LATT -1
SFAC C  
C      1  0.5066620000000  0.5084980000000  0.5256630000000 1.0
C      1  0.5024450000000  0.5540450000000  0.5051410000000 1.0
C      1  0.5357890000000  0.4857810000000  0.4359950000000 1.0
C      1  0.5050400000000  0.5147980000000  0.4755060000000 1.0
C      1  0.5471850000000  0.4766880000000  0.4977720000000 1.0
C      1  0.5370030000000  0.5199060000000  0.5601340000000 1.0
C      1  0.5446800000000  0.5418130000000  0.4592170000000 1.0
C      1  0.4889460000000  0.5390240000000  0.4835360000000 1.0
C      1  0.4985810000000  0.4943360000000  0.4978250000000 1.0
C      1  0.4737410000000  0.4502870000000  0.5336880000000 1.0
C      1  0.4867300000000  0.5172550000000  0.5476010000000 1.0
C      1  0.5043100000000  0.4412840000000  0.4944070000000 1.0
C      1  0.4577920000000  0.5627270000000  0.5209860000000 1.0
C      1  0.5261220000000  0.4724510000000  0.5553290000000 1.0
C      1  0.4441540000000  0.5549810000000  0.4989260000000 1.0
C      1  0.4253200000000  0.4961670000000  0.5125430000000 1.0
C      1  0.5194010000000  0.4395680000000  0.4473700000000 1.0
C      1  0.4981230000000  0.4338920000000  0.4655320000000 1.0
C      1  0.4214690000000  0.5054240000000  0.4872340000000 1.0
C      1  0.5459870000000  0.5242100000000  0.5042240000000 1.0
C      1  0.4772680000000  0.4413960000000  0.5073850000000 1.0
C      1  0.4494920000000  0.5078470000000  0.4814190000000 1.0
C      1  0.4602160000000  0.5132840000000  0.5384760000000 1.0
C      1  0.4761730000000  0.4541730000000  0.4613380000000 1.0
C      1  0.5168730000000  0.5056110000000  0.4287800000000 1.0
C      1  0.4949260000000  0.5468970000000  0.5521060000000 1.0
C      1  0.4850920000000  0.5631050000000  0.5280250000000 1.0
C      1  0.4844940000000  0.4784600000000  0.4493920000000 1.0
C      1  0.5621860000000  0.5245210000000  0.4467130000000 1.0
C      1  0.5062940000000  0.4780850000000  0.5728070000000 1.0
C      1  0.5364880000000  0.5198750000000  0.4763800000000 1.0
C      1  0.4639330000000  0.4589030000000  0.4876870000000 1.0
C      1  0.4970730000000  0.5035000000000  0.4486550000000 1.0
C      1  0.5221270000000  0.5358940000000  0.5185900000000 1.0
C      1  0.4598740000000  0.5353700000000  0.4861060000000 1.0
C      1  0.4515740000000  0.4906080000000  0.5235530000000 1.0
C      1  0.5254790000000  0.5433240000000  0.5485510000000 1.0
C      1  0.5604520000000  0.4956840000000  0.4484770000000 1.0
C      1  0.4916610000000  0.5005200000000  0.5704200000000 1.0
C      1  0.5176160000000  0.4700650000000  0.4910430000000 1.0
C      1  0.5614710000000  0.4846410000000  0.4746290000000 1.0
C      1  0.4531270000000  0.4666580000000  0.5394270000000 1.0
C      1  0.5265250000000  0.4657320000000  0.4549280000000 1.0
C      1  0.5315300000000  0.4975180000000  0.5414840000000 1.0
C      1  0.4674440000000  0.4872820000000  0.4969000000000 1.0
C      1  0.5511330000000  0.4979100000000  0.5181010000000 1.0
END
