TITL C-950526-5686-175 -7.54964249997079e-06 125000 -1002.97581219109 0 0 160 (C1) n - 1
REM
REM in /home/bkarasulu/work/CARBON/AIRSS/Generating-Clusters/EDIP-Nigel-Params/with-SteepDescent/Only-C1/SD-CG/HFTN-CG
REM
REM
REM
REM
REM
REM ./C.cell (11c1c37f851c82e70ff6c80c92926a4b)
REM
REM compiler GCC version 9.2.1 20190827 (Red Hat 9.2.1-1)
REM options -cpp -mtune=generic -march=x86-64 -g -O0 -fpre-include=/usr/include/finclude/math-vector-fortran.h
REM seed 906351861 -1379188624 1836273674 -1376575264 -1464951625 -1607584896 -2141397260 121576649 -704642712 1821527577 -1504245907 -1479434753 1823613733 1591899897 -1910243580 -1973224540 1769771808 -1638313204 -534497289 329289931 271793113 649691966 -689666432 1760138326 1485314099 -370521693 -259691994 -255154708 1483168624 -1985875968 341135655 885704764 -322481947
REM
CELL 1.54180   50.00000   50.00000   50.00000   90.00000   90.00000   90.00000
LATT -1
SFAC C  
C      1  0.5459680000000  0.4692870000000  0.5945100000000 1.0
C      1  0.4552760000000  0.5546360000000  0.4502000000000 1.0
C      1  0.5109500000000  0.5181810000000  0.4441130000000 1.0
C      1  0.4568560000000  0.5321890000000  0.4296910000000 1.0
C      1  0.5111070000000  0.4244140000000  0.4264480000000 1.0
C      1  0.5393620000000  0.3997560000000  0.5197850000000 1.0
C      1  0.5348760000000  0.5435260000000  0.5301020000000 1.0
C      1  0.5690910000000  0.4740080000000  0.4408910000000 1.0
C      1  0.4509750000000  0.5990720000000  0.4806520000000 1.0
C      1  0.4140710000000  0.5623500000000  0.4844410000000 1.0
C      1  0.5835320000000  0.4693160000000  0.5625430000000 1.0
C      1  0.4362960000000  0.5824670000000  0.5257420000000 1.0
C      1  0.4451970000000  0.5379280000000  0.5145530000000 1.0
C      1  0.5512420000000  0.4595140000000  0.4030590000000 1.0
C      1  0.5901420000000  0.4706840000000  0.5007820000000 1.0
C      1  0.4564160000000  0.4986310000000  0.5308220000000 1.0
C      1  0.5089500000000  0.4959950000000  0.5496860000000 1.0
C      1  0.4294880000000  0.5632020000000  0.5706090000000 1.0
C      1  0.5626740000000  0.5617360000000  0.4708530000000 1.0
C      1  0.5905760000000  0.5551410000000  0.4807270000000 1.0
C      1  0.4807640000000  0.4069030000000  0.5536980000000 1.0
C      1  0.4802850000000  0.4628730000000  0.5410110000000 1.0
C      1  0.5216020000000  0.5828190000000  0.4800910000000 1.0
C      1  0.4144530000000  0.4989840000000  0.5545210000000 1.0
C      1  0.5022790000000  0.4681930000000  0.4635280000000 1.0
C      1  0.5653490000000  0.4073620000000  0.5326400000000 1.0
C      1  0.4008830000000  0.4803290000000  0.4692540000000 1.0
C      1  0.5565990000000  0.5192680000000  0.4957840000000 1.0
C      1  0.5839380000000  0.5433970000000  0.5077790000000 1.0
C      1  0.5958000000000  0.4719140000000  0.4514990000000 1.0
C      1  0.5079240000000  0.4359750000000  0.3984780000000 1.0
C      1  0.5788690000000  0.4331040000000  0.5213190000000 1.0
C      1  0.4938630000000  0.5299640000000  0.5923610000000 1.0
C      1  0.5224390000000  0.5149040000000  0.3982620000000 1.0
C      1  0.5020930000000  0.4869470000000  0.4373850000000 1.0
C      1  0.4197270000000  0.4334270000000  0.4755630000000 1.0
C      1  0.4247970000000  0.4670960000000  0.4270870000000 1.0
C      1  0.4741600000000  0.4058350000000  0.4833740000000 1.0
C      1  0.6012770000000  0.4833020000000  0.4762820000000 1.0
C      1  0.5741860000000  0.4197530000000  0.4748560000000 1.0
C      1  0.5566300000000  0.4471570000000  0.4304220000000 1.0
C      1  0.5761490000000  0.5269820000000  0.5649840000000 1.0
C      1  0.5986410000000  0.5174160000000  0.5087010000000 1.0
C      1  0.4529480000000  0.4727880000000  0.5467120000000 1.0
C      1  0.5031810000000  0.5301410000000  0.4163680000000 1.0
C      1  0.4589400000000  0.4961970000000  0.4807850000000 1.0
C      1  0.5361230000000  0.5600450000000  0.4124280000000 1.0
C      1  0.4718980000000  0.4909650000000  0.4125830000000 1.0
C      1  0.5058500000000  0.5607570000000  0.4122880000000 1.0
C      1  0.5677770000000  0.4401860000000  0.4945470000000 1.0
C      1  0.4340270000000  0.5153000000000  0.4301180000000 1.0
C      1  0.5049450000000  0.6091930000000  0.5174770000000 1.0
C      1  0.4800320000000  0.4461390000000  0.3937090000000 1.0
C      1  0.4377500000000  0.4406010000000  0.4272540000000 1.0
C      1  0.5064380000000  0.5170740000000  0.4941970000000 1.0
C      1  0.4417080000000  0.4265750000000  0.5477480000000 1.0
C      1  0.6052270000000  0.5361290000000  0.4654480000000 1.0
C      1  0.5312380000000  0.4298510000000  0.5654420000000 1.0
C      1  0.5070700000000  0.5810510000000  0.5614970000000 1.0
C      1  0.5354680000000  0.4309590000000  0.4458660000000 1.0
C      1  0.5592070000000  0.4897480000000  0.4880920000000 1.0
C      1  0.5404980000000  0.5209040000000  0.6004050000000 1.0
C      1  0.4816940000000  0.4755240000000  0.3883310000000 1.0
C      1  0.4259180000000  0.4798690000000  0.5736080000000 1.0
C      1  0.5722550000000  0.5554160000000  0.5572540000000 1.0
C      1  0.5273960000000  0.4882550000000  0.4155740000000 1.0
C      1  0.5880180000000  0.4947580000000  0.5499330000000 1.0
C      1  0.5690570000000  0.4915410000000  0.4162920000000 1.0
C      1  0.4752820000000  0.4969390000000  0.5058520000000 1.0
C      1  0.4762400000000  0.5205790000000  0.4119060000000 1.0
C      1  0.5544350000000  0.5689530000000  0.5745810000000 1.0
C      1  0.5020010000000  0.4056220000000  0.4922530000000 1.0
C      1  0.5601710000000  0.4240680000000  0.5601890000000 1.0
C      1  0.4586980000000  0.5038560000000  0.6004530000000 1.0
C      1  0.5030750000000  0.5379760000000  0.4679860000000 1.0
C      1  0.5028110000000  0.4685300000000  0.5587210000000 1.0
C      1  0.5014480000000  0.6010630000000  0.4892220000000 1.0
C      1  0.4385910000000  0.4518610000000  0.5312000000000 1.0
C      1  0.4222390000000  0.4627890000000  0.4839170000000 1.0
C      1  0.4631090000000  0.5890970000000  0.5363500000000 1.0
C      1  0.4978490000000  0.4148460000000  0.5199650000000 1.0
C      1  0.5486190000000  0.4111750000000  0.4667580000000 1.0
C      1  0.4009190000000  0.5382260000000  0.5010980000000 1.0
C      1  0.4655910000000  0.5416960000000  0.5937860000000 1.0
C      1  0.5491480000000  0.5827740000000  0.4898340000000 1.0
C      1  0.4757640000000  0.4537180000000  0.4709480000000 1.0
C      1  0.4771400000000  0.5711460000000  0.5574810000000 1.0
C      1  0.4516450000000  0.5271960000000  0.5415160000000 1.0
C      1  0.5359410000000  0.4768770000000  0.5025390000000 1.0
C      1  0.4659640000000  0.4385110000000  0.4180920000000 1.0
C      1  0.5711600000000  0.4490250000000  0.5460260000000 1.0
C      1  0.5319190000000  0.4027800000000  0.4903920000000 1.0
C      1  0.5424380000000  0.5645700000000  0.4408140000000 1.0
C      1  0.5591710000000  0.5180840000000  0.4233820000000 1.0
C      1  0.4323870000000  0.5090130000000  0.4791060000000 1.0
C      1  0.4640120000000  0.5798920000000  0.4371870000000 1.0
C      1  0.4291650000000  0.5857550000000  0.4967010000000 1.0
C      1  0.4696520000000  0.5404450000000  0.4997700000000 1.0
C      1  0.4826650000000  0.4210080000000  0.4346650000000 1.0
C      1  0.4174310000000  0.5697940000000  0.5444070000000 1.0
C      1  0.5732340000000  0.4693460000000  0.5883970000000 1.0
C      1  0.4571620000000  0.4050110000000  0.5331920000000 1.0
C      1  0.5143710000000  0.5606580000000  0.5176630000000 1.0
C      1  0.5122150000000  0.4422800000000  0.5185240000000 1.0
C      1  0.4182380000000  0.4650380000000  0.5142850000000 1.0
C      1  0.4244080000000  0.5189950000000  0.5054640000000 1.0
C      1  0.5010420000000  0.5239020000000  0.5621050000000 1.0
C      1  0.5426330000000  0.5158450000000  0.4488630000000 1.0
C      1  0.4687730000000  0.4254460000000  0.4613430000000 1.0
C      1  0.4017810000000  0.4726130000000  0.4423100000000 1.0
C      1  0.5517830000000  0.5841440000000  0.5200400000000 1.0
C      1  0.4541290000000  0.4103850000000  0.5044250000000 1.0
C      1  0.4427280000000  0.4891300000000  0.4214470000000 1.0
C      1  0.4795290000000  0.5416490000000  0.5472610000000 1.0
C      1  0.4864320000000  0.5059170000000  0.6084610000000 1.0
C      1  0.5509380000000  0.4887080000000  0.4594770000000 1.0
C      1  0.4633070000000  0.4294720000000  0.5697070000000 1.0
C      1  0.4945080000000  0.5793460000000  0.4338220000000 1.0
C      1  0.4699940000000  0.4560820000000  0.5833510000000 1.0
C      1  0.4184190000000  0.5244940000000  0.4541270000000 1.0
C      1  0.4756600000000  0.5542320000000  0.4746050000000 1.0
C      1  0.5190390000000  0.5436970000000  0.6018940000000 1.0
C      1  0.4179620000000  0.4935170000000  0.5246340000000 1.0
C      1  0.4771340000000  0.6108300000000  0.5248810000000 1.0
C      1  0.5159360000000  0.5669600000000  0.4556320000000 1.0
C      1  0.5265990000000  0.4555450000000  0.3868470000000 1.0
C      1  0.5223810000000  0.4500700000000  0.5461690000000 1.0
C      1  0.4519690000000  0.6002000000000  0.4524650000000 1.0
C      1  0.5155670000000  0.3988180000000  0.5379440000000 1.0
C      1  0.4877680000000  0.4660300000000  0.5113950000000 1.0
C      1  0.5046540000000  0.4842030000000  0.6089460000000 1.0
C      1  0.4747520000000  0.5876650000000  0.4936500000000 1.0
C      1  0.4984750000000  0.4582520000000  0.5961310000000 1.0
C      1  0.5627370000000  0.5571710000000  0.5288400000000 1.0
C      1  0.5264380000000  0.5681780000000  0.5822850000000 1.0
C      1  0.5328320000000  0.4919050000000  0.6079630000000 1.0
C      1  0.4501370000000  0.4784690000000  0.5894350000000 1.0
C      1  0.3935600000000  0.5103520000000  0.4748250000000 1.0
C      1  0.5361100000000  0.4467970000000  0.4953010000000 1.0
C      1  0.4383070000000  0.4254910000000  0.4533290000000 1.0
C      1  0.5244020000000  0.4483560000000  0.4670530000000 1.0
C      1  0.5309270000000  0.4950830000000  0.5299660000000 1.0
C      1  0.5493130000000  0.5342630000000  0.4719140000000 1.0
C      1  0.5323160000000  0.5199920000000  0.5131840000000 1.0
C      1  0.4572520000000  0.5646570000000  0.5790940000000 1.0
C      1  0.4024870000000  0.5453190000000  0.5339600000000 1.0
C      1  0.5488440000000  0.5194190000000  0.5717790000000 1.0
C      1  0.5283440000000  0.5372120000000  0.5590840000000 1.0
C      1  0.4520460000000  0.4695550000000  0.4760980000000 1.0
C      1  0.5463000000000  0.5332260000000  0.4018110000000 1.0
C      1  0.5269980000000  0.4465200000000  0.5902980000000 1.0
C      1  0.4884110000000  0.5474880000000  0.5205680000000 1.0
C      1  0.4280390000000  0.4162420000000  0.4959680000000 1.0
C      1  0.5197290000000  0.5870340000000  0.5325490000000 1.0
C      1  0.5887740000000  0.4935860000000  0.5211540000000 1.0
C      1  0.4254320000000  0.5531280000000  0.4589070000000 1.0
C      1  0.5105720000000  0.4811990000000  0.3822700000000 1.0
C      1  0.6038140000000  0.5123420000000  0.4807960000000 1.0
C      1  0.4231810000000  0.5281030000000  0.5554130000000 1.0
C      1  0.5120860000000  0.4866680000000  0.4865520000000 1.0
END
