TITL C-950535-5962-666 -8.72886407953027e-07 125000 -304.042193864776 0 0 50 (C1) n - 1
REM
REM in /home/bkarasulu/work/CARBON/AIRSS/Generating-Clusters/EDIP-Nigel-Params/with-SteepDescent/Only-C1/SD-CG/HFTN-CG
REM
REM
REM
REM
REM
REM ./C.cell (11c1c37f851c82e70ff6c80c92926a4b)
REM
REM compiler GCC version 9.2.1 20190827 (Red Hat 9.2.1-1)
REM options -cpp -mtune=generic -march=x86-64 -g -O0 -fpre-include=/usr/include/finclude/math-vector-fortran.h
REM seed -128447270 -875643871 865436333 -1395414182 -197689002 1727280966 -1583001822 -69633649 657284671 241793776 -1679948390 -964020574 651873022 -94536832 -1248468095 1672546013 -1305256365 -527652248 932242341 -902015948 713019494 1249356292 -891775343 1193310474 -2042459565 -1141557682 675035384 283003838 -527859004 -1699083855 -1749875644 -930733637 -1137009821
REM
CELL 1.54180   50.00000   50.00000   50.00000   90.00000   90.00000   90.00000
LATT -1
SFAC C  
C      1  0.4454470000000  0.4750370000000  0.4258200000000 1.0
C      1  0.5043040000000  0.5417610000000  0.5223890000000 1.0
C      1  0.5082370000000  0.4989800000000  0.5849140000000 1.0
C      1  0.5373390000000  0.4684810000000  0.4802230000000 1.0
C      1  0.5461810000000  0.4524350000000  0.5253140000000 1.0
C      1  0.4699250000000  0.4766040000000  0.5688910000000 1.0
C      1  0.5322920000000  0.5139420000000  0.4736840000000 1.0
C      1  0.5077600000000  0.5110450000000  0.4911430000000 1.0
C      1  0.5608610000000  0.5015320000000  0.5104530000000 1.0
C      1  0.4552820000000  0.4775850000000  0.4504500000000 1.0
C      1  0.4697820000000  0.4850860000000  0.5079450000000 1.0
C      1  0.5006850000000  0.4735660000000  0.5200690000000 1.0
C      1  0.4290740000000  0.5090270000000  0.4750820000000 1.0
C      1  0.4833100000000  0.4979260000000  0.4840710000000 1.0
C      1  0.5112370000000  0.5032740000000  0.5196400000000 1.0
C      1  0.5613760000000  0.5401960000000  0.5390050000000 1.0
C      1  0.5646200000000  0.5310390000000  0.5124450000000 1.0
C      1  0.4597670000000  0.5055180000000  0.5290010000000 1.0
C      1  0.5120660000000  0.4623510000000  0.5543090000000 1.0
C      1  0.4974140000000  0.4277760000000  0.4759780000000 1.0
C      1  0.5144280000000  0.4912680000000  0.4421780000000 1.0
C      1  0.5419100000000  0.5416540000000  0.4616630000000 1.0
C      1  0.5002130000000  0.5369210000000  0.4393140000000 1.0
C      1  0.5162040000000  0.5546890000000  0.4543720000000 1.0
C      1  0.5461520000000  0.5449860000000  0.4924390000000 1.0
C      1  0.5043330000000  0.4450010000000  0.4552650000000 1.0
C      1  0.4709060000000  0.5028860000000  0.4576560000000 1.0
C      1  0.5379830000000  0.4713700000000  0.5444830000000 1.0
C      1  0.4760700000000  0.5502390000000  0.5164400000000 1.0
C      1  0.4762110000000  0.5596440000000  0.4886090000000 1.0
C      1  0.4348890000000  0.4808590000000  0.4725670000000 1.0
C      1  0.4706490000000  0.4259190000000  0.4823330000000 1.0
C      1  0.5047040000000  0.5644970000000  0.4809990000000 1.0
C      1  0.5138480000000  0.5343840000000  0.5504570000000 1.0
C      1  0.4933580000000  0.5098490000000  0.4388010000000 1.0
C      1  0.5222460000000  0.5581580000000  0.5043600000000 1.0
C      1  0.5213210000000  0.4671480000000  0.4555440000000 1.0
C      1  0.4494490000000  0.5235260000000  0.4618380000000 1.0
C      1  0.4559880000000  0.5321420000000  0.5220350000000 1.0
C      1  0.4518660000000  0.4411380000000  0.4936080000000 1.0
C      1  0.4706950000000  0.5024530000000  0.5563610000000 1.0
C      1  0.4974900000000  0.4736190000000  0.5765000000000 1.0
C      1  0.5418170000000  0.5230820000000  0.5498650000000 1.0
C      1  0.5388270000000  0.4990060000000  0.5315850000000 1.0
C      1  0.5250020000000  0.4554720000000  0.5051340000000 1.0
C      1  0.4574660000000  0.5485990000000  0.4708780000000 1.0
C      1  0.5525080000000  0.4939410000000  0.4827520000000 1.0
C      1  0.5144360000000  0.4297140000000  0.4978360000000 1.0
C      1  0.4463980000000  0.4681660000000  0.4972460000000 1.0
C      1  0.4956730000000  0.5165140000000  0.5660540000000 1.0
END
