TITL C-951337-3020-619 -1.40556844265467e-07 125000 -128.079940006356 0 0 22 (C1) n - 1
REM
REM in /home/bkarasulu/work/CARBON/AIRSS/Generating-Clusters/EDIP-Nigel-Params/with-SteepDescent/Only-C1/SD-CG/HFTN-CG
REM
REM
REM
REM
REM
REM ./C.cell (11c1c37f851c82e70ff6c80c92926a4b)
REM
REM compiler GCC version 9.2.1 20190827 (Red Hat 9.2.1-1)
REM options -cpp -mtune=generic -march=x86-64 -g -O0 -fpre-include=/usr/include/finclude/math-vector-fortran.h
REM seed 80390134 1367341850 -46408419 -942621472 -1335351532 -1762312289 -1030132165 -1332018513 1603461727 -677926835 517749817 -1577899677 1385660297 -338894591 -938749131 -618195781 651880624 335824870 -2071800216 1569187787 -196524297 -1700887644 1246714292 -199775688 -1578242849 -843302450 -1348285262 197846544 750821380 1855827308 -587006325 2062211330 -69954374
REM
CELL 1.54180   50.00000   50.00000   50.00000   90.00000   90.00000   90.00000
LATT -1
SFAC C  
C      1  0.4740800000000  0.5443410000000  0.4646310000000 1.0
C      1  0.5041900000000  0.4886540000000  0.4602780000000 1.0
C      1  0.5466320000000  0.5337330000000  0.4706730000000 1.0
C      1  0.4587300000000  0.5234080000000  0.4719840000000 1.0
C      1  0.5221000000000  0.5463990000000  0.4729500000000 1.0
C      1  0.5000690000000  0.5383810000000  0.4566410000000 1.0
C      1  0.5317160000000  0.4768330000000  0.4931200000000 1.0
C      1  0.5023360000000  0.5126370000000  0.4464530000000 1.0
C      1  0.5442250000000  0.5258270000000  0.4970970000000 1.0
C      1  0.4845930000000  0.4901500000000  0.5699950000000 1.0
C      1  0.4604220000000  0.4983770000000  0.4837690000000 1.0
C      1  0.5064510000000  0.4734090000000  0.5669090000000 1.0
C      1  0.4471600000000  0.4895760000000  0.5324890000000 1.0
C      1  0.4453550000000  0.4933080000000  0.5062430000000 1.0
C      1  0.5210850000000  0.4960220000000  0.5604300000000 1.0
C      1  0.5160010000000  0.4564270000000  0.5048430000000 1.0
C      1  0.4846750000000  0.4832030000000  0.4808850000000 1.0
C      1  0.4624110000000  0.4885540000000  0.5541260000000 1.0
C      1  0.4902920000000  0.4612530000000  0.4972320000000 1.0
C      1  0.5299450000000  0.4785680000000  0.4649360000000 1.0
C      1  0.5350100000000  0.5013090000000  0.5084900000000 1.0
C      1  0.5325220000000  0.4996290000000  0.5358250000000 1.0
END
