TITL C-950528-5794-151 4.35542588038438e-06 125000 -403.611367934964 0 0 66 (C1) n - 1
REM
REM in /home/bkarasulu/work/CARBON/AIRSS/Generating-Clusters/EDIP-Nigel-Params/with-SteepDescent/Only-C1/SD-CG/HFTN-CG
REM
REM
REM
REM
REM
REM ./C.cell (11c1c37f851c82e70ff6c80c92926a4b)
REM
REM compiler GCC version 9.2.1 20190827 (Red Hat 9.2.1-1)
REM options -cpp -mtune=generic -march=x86-64 -g -O0 -fpre-include=/usr/include/finclude/math-vector-fortran.h
REM seed -1349365326 1856880624 1057529462 -1239767786 -168627230 -1031295220 -1528099976 -1795381747 31615926 509744696 206789532 999916068 -1614653005 -1957303273 291498917 575318145 -1206040372 36076298 -1016409574 -1512515746 1533882928 -1986197544 1809250875 -1748914532 371370289 -777230111 -1829400010 -1102505130 48237237 342119618 257410802 1702120986 240523251
REM
CELL 1.54180   50.00000   50.00000   50.00000   90.00000   90.00000   90.00000
LATT -1
SFAC C  
C      1  0.4488410000000  0.5329850000000  0.4668790000000 1.0
C      1  0.4358880000000  0.5375000000000  0.5122070000000 1.0
C      1  0.4406450000000  0.5071940000000  0.5094750000000 1.0
C      1  0.4527080000000  0.5126700000000  0.5586300000000 1.0
C      1  0.4900270000000  0.4583770000000  0.5743540000000 1.0
C      1  0.5182150000000  0.4942610000000  0.5212630000000 1.0
C      1  0.5175450000000  0.5464630000000  0.5189810000000 1.0
C      1  0.5663130000000  0.4996000000000  0.5336460000000 1.0
C      1  0.5631270000000  0.5119890000000  0.4818710000000 1.0
C      1  0.5759610000000  0.4653450000000  0.4991450000000 1.0
C      1  0.4635160000000  0.4882600000000  0.4494740000000 1.0
C      1  0.4522010000000  0.4495690000000  0.4810940000000 1.0
C      1  0.4317080000000  0.5472500000000  0.4858850000000 1.0
C      1  0.5035850000000  0.4978670000000  0.5474450000000 1.0
C      1  0.4356550000000  0.4836160000000  0.5282110000000 1.0
C      1  0.5138450000000  0.4237350000000  0.5387130000000 1.0
C      1  0.4768120000000  0.4531220000000  0.5279000000000 1.0
C      1  0.5182880000000  0.4617230000000  0.5694020000000 1.0
C      1  0.4393720000000  0.5049620000000  0.4594630000000 1.0
C      1  0.4659650000000  0.4659840000000  0.5040920000000 1.0
C      1  0.5544200000000  0.5023640000000  0.5618440000000 1.0
C      1  0.5119510000000  0.5424390000000  0.5713380000000 1.0
C      1  0.5161330000000  0.5123320000000  0.4131100000000 1.0
C      1  0.5646300000000  0.5499700000000  0.5125920000000 1.0
C      1  0.4748820000000  0.5280190000000  0.4813470000000 1.0
C      1  0.5086440000000  0.4381790000000  0.4752820000000 1.0
C      1  0.4833890000000  0.5399460000000  0.4395400000000 1.0
C      1  0.5195900000000  0.5006120000000  0.4597010000000 1.0
C      1  0.4285070000000  0.4673190000000  0.4937120000000 1.0
C      1  0.5227780000000  0.4918970000000  0.4313700000000 1.0
C      1  0.4912280000000  0.5632290000000  0.4805730000000 1.0
C      1  0.4914980000000  0.5568400000000  0.5087540000000 1.0
C      1  0.5575360000000  0.5204980000000  0.5104320000000 1.0
C      1  0.4949410000000  0.4557270000000  0.4551140000000 1.0
C      1  0.4892510000000  0.5186020000000  0.4199390000000 1.0
C      1  0.4851040000000  0.4721920000000  0.4096940000000 1.0
C      1  0.5535730000000  0.4640670000000  0.4816030000000 1.0
C      1  0.4703560000000  0.5103030000000  0.5059340000000 1.0
C      1  0.5574930000000  0.5284020000000  0.5721250000000 1.0
C      1  0.4716600000000  0.4945380000000  0.4209000000000 1.0
C      1  0.4877500000000  0.4978100000000  0.4673200000000 1.0
C      1  0.5343500000000  0.4668180000000  0.5206680000000 1.0
C      1  0.4676890000000  0.5351370000000  0.5516400000000 1.0
C      1  0.5057110000000  0.4672470000000  0.4290530000000 1.0
C      1  0.4266370000000  0.4960310000000  0.4845780000000 1.0
C      1  0.5636980000000  0.4718630000000  0.5239520000000 1.0
C      1  0.4517720000000  0.4856330000000  0.5526750000000 1.0
C      1  0.5618370000000  0.5595230000000  0.4849670000000 1.0
C      1  0.5249670000000  0.4909600000000  0.5684800000000 1.0
C      1  0.5376460000000  0.5453700000000  0.5782500000000 1.0
C      1  0.4925690000000  0.4298880000000  0.5217030000000 1.0
C      1  0.5438980000000  0.4904570000000  0.4756880000000 1.0
C      1  0.4963270000000  0.5279570000000  0.5529910000000 1.0
C      1  0.5044650000000  0.5502050000000  0.4582360000000 1.0
C      1  0.5269740000000  0.5203660000000  0.5063640000000 1.0
C      1  0.5328910000000  0.4458330000000  0.4891100000000 1.0
C      1  0.4602480000000  0.5482760000000  0.5260440000000 1.0
C      1  0.5543520000000  0.5372970000000  0.4675700000000 1.0
C      1  0.4933140000000  0.4240340000000  0.4941410000000 1.0
C      1  0.5261350000000  0.4486250000000  0.5439990000000 1.0
C      1  0.5398650000000  0.5649330000000  0.5163610000000 1.0
C      1  0.4838990000000  0.4871240000000  0.4952820000000 1.0
C      1  0.4564150000000  0.5483730000000  0.4433830000000 1.0
C      1  0.4795690000000  0.4728930000000  0.5508170000000 1.0
C      1  0.4645360000000  0.4573760000000  0.4548940000000 1.0
C      1  0.5247070000000  0.5300230000000  0.4688030000000 1.0
END
