TITL C-950529-3362-359 -1.16342070368114e-07 125000 -24.2560956791089 0 0 6 (D2h) n - 1
REM
REM in /home/bkarasulu/work/CARBON/AIRSS/Generating-Clusters/EDIP-Nigel-Params/with-SteepDescent/Only-C1/SD-CG/HFTN-CG
REM
REM
REM
REM
REM
REM ./C.cell (11c1c37f851c82e70ff6c80c92926a4b)
REM
REM compiler GCC version 9.2.1 20190827 (Red Hat 9.2.1-1)
REM options -cpp -mtune=generic -march=x86-64 -g -O0 -fpre-include=/usr/include/finclude/math-vector-fortran.h
REM seed -656310045 -189062349 874776203 865255879 82188946 1099643218 1493184988 -1870402334 1572644612 -399694954 -2113617698 -1637770397 1145787308 1490764208 -887632127 -258766816 2045592329 -199414869 738171015 1205392573 -357855826 209716895 -696379885 323378264 -1934009879 -870873263 1842563707 -711373543 725410978 1333129839 -1015212994 -1398484767 -1269491051
REM
CELL 1.54180   50.00000   50.00000   50.00000   90.00000   90.00000   90.00000
LATT -1
SFAC C  
C      1  0.4657060000000  0.4962050000000  0.4908820000000 1.0
C      1  0.5129820000000  0.4970080000000  0.4950870000000 1.0
C      1  0.5158070000000  0.4846600000000  0.4719210000000 1.0
C      1  0.4841930000000  0.5153400000000  0.5280790000000 1.0
C      1  0.5342940000000  0.5037950000000  0.5091180000000 1.0
C      1  0.4870180000000  0.5029920000000  0.5049130000000 1.0
END
