TITL C-950522-5749-357 -2.02442159339104e-07 125000 -556.304464514025 0 0 91 (C1) n - 1
REM
REM in /home/bkarasulu/work/CARBON/AIRSS/Generating-Clusters/EDIP-Nigel-Params/with-SteepDescent/Only-C1/SD-CG/HFTN-CG
REM
REM
REM
REM
REM
REM ./C.cell (11c1c37f851c82e70ff6c80c92926a4b)
REM
REM compiler GCC version 9.2.1 20190827 (Red Hat 9.2.1-1)
REM options -cpp -mtune=generic -march=x86-64 -g -O0 -fpre-include=/usr/include/finclude/math-vector-fortran.h
REM seed -292926753 622059071 -1399318939 -1380029815 -508195296 998675860 -1228693639 615685553 2027924030 -2019881369 1508642194 1680787839 -1001655264 1047632852 -971265675 -888870450 671485569 -45810096 -216273984 1180826147 -1423289579 1445526227 1219206424 -2142770725 1024864525 1560559909 311681709 802543076 -397365074 290696108 1622227521 1537779475 -1995816461
REM
CELL 1.54180   50.00000   50.00000   50.00000   90.00000   90.00000   90.00000
LATT -1
SFAC C  
C      1  0.4746090000000  0.5162010000000  0.5023980000000 1.0
C      1  0.4986840000000  0.5530350000000  0.5785370000000 1.0
C      1  0.5052660000000  0.5646370000000  0.4367740000000 1.0
C      1  0.4459770000000  0.4744410000000  0.4779960000000 1.0
C      1  0.5742660000000  0.4614250000000  0.5006000000000 1.0
C      1  0.5368090000000  0.5764100000000  0.4989020000000 1.0
C      1  0.4857650000000  0.5759600000000  0.5690330000000 1.0
C      1  0.4587260000000  0.4454080000000  0.5196750000000 1.0
C      1  0.5199610000000  0.4916570000000  0.4137960000000 1.0
C      1  0.5132190000000  0.4404740000000  0.4840440000000 1.0
C      1  0.4436370000000  0.5697260000000  0.5321480000000 1.0
C      1  0.5176250000000  0.4903170000000  0.4629860000000 1.0
C      1  0.4881830000000  0.4637310000000  0.5022840000000 1.0
C      1  0.4900690000000  0.4297110000000  0.4412380000000 1.0
C      1  0.5630450000000  0.4399430000000  0.4845330000000 1.0
C      1  0.4498050000000  0.5308030000000  0.4367280000000 1.0
C      1  0.4769450000000  0.4284280000000  0.4834630000000 1.0
C      1  0.5483010000000  0.4409100000000  0.5391920000000 1.0
C      1  0.4233270000000  0.4677660000000  0.5264860000000 1.0
C      1  0.4504120000000  0.5023510000000  0.4304910000000 1.0
C      1  0.4928050000000  0.4785970000000  0.4090710000000 1.0
C      1  0.5338480000000  0.4794780000000  0.4394000000000 1.0
C      1  0.4556820000000  0.5648480000000  0.4835660000000 1.0
C      1  0.5016580000000  0.5820770000000  0.4847540000000 1.0
C      1  0.5099660000000  0.5535890000000  0.5317150000000 1.0
C      1  0.5254970000000  0.4419910000000  0.5576320000000 1.0
C      1  0.5387440000000  0.4299830000000  0.4970010000000 1.0
C      1  0.5002990000000  0.4262810000000  0.5544020000000 1.0
C      1  0.5517960000000  0.5232700000000  0.4467510000000 1.0
C      1  0.5588400000000  0.4963930000000  0.5680150000000 1.0
C      1  0.5141160000000  0.5396530000000  0.5577310000000 1.0
C      1  0.5141960000000  0.4356840000000  0.4545500000000 1.0
C      1  0.4473090000000  0.5377220000000  0.4856670000000 1.0
C      1  0.5481070000000  0.5311620000000  0.5306550000000 1.0
C      1  0.4934640000000  0.4150740000000  0.5293540000000 1.0
C      1  0.5480610000000  0.5335780000000  0.4197690000000 1.0
C      1  0.5050680000000  0.5288420000000  0.5047890000000 1.0
C      1  0.4996800000000  0.5385710000000  0.4262900000000 1.0
C      1  0.5604560000000  0.5019810000000  0.4922200000000 1.0
C      1  0.5838750000000  0.5164340000000  0.5008750000000 1.0
C      1  0.4785610000000  0.4437220000000  0.5657530000000 1.0
C      1  0.4160740000000  0.5068330000000  0.5041210000000 1.0
C      1  0.4255370000000  0.5277840000000  0.5519280000000 1.0
C      1  0.5759620000000  0.5193480000000  0.5299670000000 1.0
C      1  0.4333340000000  0.5309120000000  0.4600820000000 1.0
C      1  0.5726550000000  0.4918880000000  0.5438350000000 1.0
C      1  0.5416500000000  0.5521570000000  0.4838470000000 1.0
C      1  0.5367500000000  0.5657240000000  0.5256800000000 1.0
C      1  0.4245230000000  0.4799180000000  0.5006720000000 1.0
C      1  0.5096750000000  0.5108450000000  0.5633500000000 1.0
C      1  0.4166610000000  0.5077640000000  0.4600820000000 1.0
C      1  0.4250850000000  0.5337830000000  0.5047180000000 1.0
C      1  0.4733820000000  0.4229940000000  0.5115010000000 1.0
C      1  0.5604430000000  0.4936980000000  0.4449060000000 1.0
C      1  0.5221210000000  0.5229800000000  0.4135510000000 1.0
C      1  0.5214910000000  0.4648250000000  0.5750370000000 1.0
C      1  0.5368520000000  0.4491430000000  0.4412270000000 1.0
C      1  0.5622040000000  0.4661720000000  0.5275810000000 1.0
C      1  0.4883660000000  0.4918880000000  0.4590840000000 1.0
C      1  0.4683920000000  0.5132400000000  0.5324310000000 1.0
C      1  0.4993160000000  0.5610060000000  0.4645210000000 1.0
C      1  0.4747720000000  0.5803860000000  0.4961580000000 1.0
C      1  0.5686440000000  0.4845940000000  0.4708810000000 1.0
C      1  0.5284310000000  0.4854730000000  0.5298640000000 1.0
C      1  0.4556270000000  0.4453440000000  0.4705050000000 1.0
C      1  0.4779270000000  0.4881830000000  0.5843150000000 1.0
C      1  0.4739600000000  0.4873530000000  0.4861770000000 1.0
C      1  0.4409760000000  0.5060100000000  0.5405470000000 1.0
C      1  0.4392010000000  0.4765800000000  0.5487380000000 1.0
C      1  0.5002720000000  0.4764910000000  0.5272430000000 1.0
C      1  0.5435330000000  0.4193040000000  0.5224400000000 1.0
C      1  0.5645800000000  0.5441390000000  0.4670010000000 1.0
C      1  0.5320700000000  0.5115490000000  0.5140850000000 1.0
C      1  0.4921650000000  0.4631640000000  0.5836760000000 1.0
C      1  0.4271180000000  0.5469400000000  0.5308580000000 1.0
C      1  0.4672460000000  0.4934740000000  0.4077110000000 1.0
C      1  0.4347120000000  0.4873590000000  0.4520110000000 1.0
C      1  0.4911390000000  0.5758250000000  0.5412660000000 1.0
C      1  0.4806340000000  0.4719080000000  0.4371450000000 1.0
C      1  0.4672270000000  0.4455880000000  0.4435640000000 1.0
C      1  0.4632710000000  0.4589930000000  0.5445100000000 1.0
C      1  0.4958340000000  0.5100660000000  0.5895100000000 1.0
C      1  0.4864520000000  0.4953540000000  0.5472950000000 1.0
C      1  0.4847900000000  0.5229370000000  0.4478000000000 1.0
C      1  0.5158930000000  0.5400400000000  0.4777250000000 1.0
C      1  0.4866660000000  0.5354520000000  0.5969650000000 1.0
C      1  0.5872510000000  0.5384440000000  0.4831270000000 1.0
C      1  0.5315490000000  0.4897980000000  0.5607510000000 1.0
C      1  0.5596120000000  0.4437830000000  0.4568490000000 1.0
C      1  0.5228930000000  0.5195630000000  0.4575610000000 1.0
C      1  0.4684240000000  0.5807470000000  0.5243350000000 1.0
END
