TITL C-951346-9544-449 1.63632209232993e-06 125000 -907.856030664593 0 0 144 (C1) n - 1
REM
REM in /home/bkarasulu/work/CARBON/AIRSS/Generating-Clusters/EDIP-Nigel-Params/with-SteepDescent/Only-C1/SD-CG/HFTN-CG
REM
REM
REM
REM
REM
REM ./C.cell (11c1c37f851c82e70ff6c80c92926a4b)
REM
REM compiler GCC version 9.2.1 20190827 (Red Hat 9.2.1-1)
REM options -cpp -mtune=generic -march=x86-64 -g -O0 -fpre-include=/usr/include/finclude/math-vector-fortran.h
REM seed 1637141601 -1805987429 230077175 -1375542184 -1198988308 792254296 1940655607 -1698380519 1651858124 -1586348771 940475343 1799983329 1985360172 -915075815 -1209177309 1911890231 -368905732 983795837 -257166188 2034268650 48448588 -961420047 1855412919 -325416727 1563477131 722153451 -601029369 1081658691 29201796 -802717008 1181609476 -2003618734 -288123466
REM
CELL 1.54180   50.00000   50.00000   50.00000   90.00000   90.00000   90.00000
LATT -1
SFAC C  
C      1  0.4465960000000  0.5856960000000  0.4654390000000 1.0
C      1  0.4956960000000  0.5109280000000  0.4228600000000 1.0
C      1  0.5541650000000  0.4439260000000  0.4404080000000 1.0
C      1  0.4885800000000  0.4623060000000  0.5910240000000 1.0
C      1  0.4538320000000  0.5042170000000  0.5870130000000 1.0
C      1  0.5056350000000  0.5298450000000  0.5784390000000 1.0
C      1  0.5579620000000  0.4936500000000  0.5051930000000 1.0
C      1  0.5058710000000  0.5600220000000  0.4995640000000 1.0
C      1  0.4795270000000  0.5248640000000  0.4683020000000 1.0
C      1  0.5781850000000  0.4521340000000  0.4576670000000 1.0
C      1  0.5393210000000  0.4173580000000  0.4433810000000 1.0
C      1  0.5247940000000  0.4878870000000  0.5396980000000 1.0
C      1  0.5784370000000  0.4820890000000  0.4626540000000 1.0
C      1  0.5574300000000  0.4980720000000  0.5753720000000 1.0
C      1  0.4156850000000  0.4530110000000  0.4854790000000 1.0
C      1  0.5870070000000  0.4817290000000  0.5085030000000 1.0
C      1  0.5535160000000  0.4258200000000  0.4905100000000 1.0
C      1  0.4788090000000  0.4884160000000  0.5772870000000 1.0
C      1  0.4671670000000  0.5062600000000  0.4167610000000 1.0
C      1  0.4590220000000  0.5641220000000  0.4800330000000 1.0
C      1  0.5105760000000  0.5220770000000  0.5085670000000 1.0
C      1  0.5677990000000  0.5546340000000  0.5483410000000 1.0
C      1  0.4333240000000  0.4519570000000  0.5579550000000 1.0
C      1  0.4981730000000  0.5957830000000  0.4600170000000 1.0
C      1  0.5299330000000  0.4700600000000  0.4724210000000 1.0
C      1  0.4735100000000  0.4375600000000  0.5864290000000 1.0
C      1  0.5547110000000  0.5415900000000  0.4256590000000 1.0
C      1  0.4656420000000  0.5521670000000  0.4317570000000 1.0
C      1  0.5013900000000  0.5828100000000  0.5614780000000 1.0
C      1  0.5189610000000  0.4332630000000  0.5698460000000 1.0
C      1  0.5176780000000  0.4592510000000  0.5832540000000 1.0
C      1  0.5941960000000  0.5251910000000  0.5167420000000 1.0
C      1  0.5321660000000  0.4640850000000  0.4425840000000 1.0
C      1  0.6004630000000  0.4909170000000  0.4823520000000 1.0
C      1  0.4335530000000  0.5050530000000  0.5620100000000 1.0
C      1  0.4592280000000  0.4383150000000  0.4951380000000 1.0
C      1  0.5286260000000  0.5231710000000  0.4575220000000 1.0
C      1  0.4868620000000  0.4313660000000  0.4809400000000 1.0
C      1  0.5306670000000  0.5237200000000  0.4876180000000 1.0
C      1  0.4890020000000  0.3978820000000  0.5259350000000 1.0
C      1  0.4922560000000  0.4653900000000  0.4093320000000 1.0
C      1  0.4186540000000  0.4778540000000  0.5582690000000 1.0
C      1  0.4526300000000  0.4221170000000  0.5207720000000 1.0
C      1  0.4586960000000  0.5927300000000  0.5532620000000 1.0
C      1  0.4954170000000  0.4471840000000  0.5264040000000 1.0
C      1  0.4557870000000  0.5698580000000  0.5337150000000 1.0
C      1  0.5502230000000  0.5685460000000  0.4641520000000 1.0
C      1  0.4595790000000  0.5264480000000  0.5196230000000 1.0
C      1  0.5686540000000  0.5523410000000  0.4814920000000 1.0
C      1  0.4465790000000  0.4408030000000  0.5795640000000 1.0
C      1  0.5140000000000  0.4064310000000  0.5116680000000 1.0
C      1  0.4659770000000  0.3877430000000  0.5104960000000 1.0
C      1  0.5349220000000  0.5007490000000  0.4066990000000 1.0
C      1  0.4194440000000  0.5827640000000  0.4724870000000 1.0
C      1  0.4488800000000  0.5266620000000  0.4283010000000 1.0
C      1  0.4393500000000  0.4034450000000  0.4737000000000 1.0
C      1  0.5768270000000  0.5266010000000  0.4391240000000 1.0
C      1  0.5420090000000  0.4952180000000  0.4348510000000 1.0
C      1  0.4766600000000  0.5519990000000  0.4603440000000 1.0
C      1  0.5886330000000  0.5368780000000  0.4659720000000 1.0
C      1  0.4787860000000  0.6042960000000  0.4992850000000 1.0
C      1  0.4533760000000  0.5046940000000  0.5396190000000 1.0
C      1  0.4744590000000  0.4868280000000  0.5466520000000 1.0
C      1  0.5248460000000  0.5166570000000  0.5336460000000 1.0
C      1  0.5616250000000  0.4127700000000  0.5157260000000 1.0
C      1  0.5449240000000  0.5933460000000  0.4791450000000 1.0
C      1  0.5160350000000  0.3938310000000  0.4841280000000 1.0
C      1  0.4703830000000  0.6059360000000  0.4702210000000 1.0
C      1  0.5932930000000  0.4994260000000  0.5325420000000 1.0
C      1  0.5015270000000  0.5105840000000  0.4541800000000 1.0
C      1  0.5046200000000  0.5592450000000  0.5419450000000 1.0
C      1  0.5846840000000  0.5519620000000  0.5263530000000 1.0
C      1  0.4581300000000  0.4671850000000  0.5043610000000 1.0
C      1  0.5290070000000  0.4859430000000  0.5698100000000 1.0
C      1  0.4763670000000  0.5474980000000  0.5370010000000 1.0
C      1  0.4611210000000  0.5287090000000  0.5986020000000 1.0
C      1  0.4321990000000  0.5388120000000  0.5116810000000 1.0
C      1  0.4823600000000  0.4735860000000  0.5210440000000 1.0
C      1  0.5535990000000  0.5897730000000  0.5078300000000 1.0
C      1  0.5080760000000  0.4354400000000  0.5034060000000 1.0
C      1  0.5057230000000  0.5020370000000  0.5818190000000 1.0
C      1  0.4157550000000  0.5563870000000  0.4822820000000 1.0
C      1  0.4814520000000  0.4721960000000  0.4637730000000 1.0
C      1  0.5048920000000  0.5379290000000  0.4159240000000 1.0
C      1  0.4580360000000  0.4883900000000  0.4562650000000 1.0
C      1  0.4091700000000  0.4794720000000  0.4732790000000 1.0
C      1  0.4845410000000  0.6044530000000  0.5486410000000 1.0
C      1  0.4850460000000  0.5572810000000  0.4115450000000 1.0
C      1  0.4144930000000  0.5261820000000  0.5431350000000 1.0
C      1  0.5411340000000  0.4726020000000  0.5198980000000 1.0
C      1  0.5774600000000  0.5698090000000  0.5043510000000 1.0
C      1  0.4201490000000  0.4867710000000  0.4461800000000 1.0
C      1  0.4130270000000  0.5050130000000  0.4902910000000 1.0
C      1  0.4574610000000  0.5849520000000  0.5805850000000 1.0
C      1  0.4813440000000  0.5433610000000  0.5859250000000 1.0
C      1  0.4272600000000  0.5571610000000  0.5345790000000 1.0
C      1  0.5076830000000  0.6112260000000  0.5032470000000 1.0
C      1  0.4160970000000  0.5289040000000  0.4719380000000 1.0
C      1  0.4388740000000  0.4328340000000  0.4730300000000 1.0
C      1  0.4803330000000  0.4239910000000  0.5390690000000 1.0
C      1  0.4750490000000  0.5749570000000  0.5031080000000 1.0
C      1  0.5228600000000  0.6010450000000  0.5503850000000 1.0
C      1  0.5371360000000  0.5560810000000  0.5173830000000 1.0
C      1  0.5239650000000  0.5933800000000  0.5218680000000 1.0
C      1  0.5403350000000  0.4278830000000  0.5508030000000 1.0
C      1  0.4533670000000  0.4415160000000  0.4475660000000 1.0
C      1  0.5278860000000  0.5539910000000  0.4500890000000 1.0
C      1  0.5798440000000  0.4373140000000  0.4833980000000 1.0
C      1  0.4444030000000  0.4668400000000  0.4347300000000 1.0
C      1  0.4637820000000  0.4770750000000  0.4135020000000 1.0
C      1  0.5532860000000  0.4874490000000  0.4771140000000 1.0
C      1  0.4636640000000  0.3908820000000  0.4819170000000 1.0
C      1  0.4908090000000  0.4222540000000  0.5679900000000 1.0
C      1  0.4948790000000  0.4964370000000  0.5016870000000 1.0
C      1  0.5488210000000  0.5454450000000  0.5661720000000 1.0
C      1  0.5032440000000  0.5660310000000  0.4661710000000 1.0
C      1  0.5119970000000  0.4193630000000  0.4308060000000 1.0
C      1  0.4697950000000  0.5120240000000  0.4940320000000 1.0
C      1  0.5774950000000  0.4953260000000  0.5556650000000 1.0
C      1  0.5402960000000  0.4064120000000  0.4714540000000 1.0
C      1  0.5719370000000  0.4976820000000  0.4381320000000 1.0
C      1  0.4490070000000  0.4907110000000  0.4869790000000 1.0
C      1  0.5101550000000  0.4865610000000  0.3979680000000 1.0
C      1  0.5334570000000  0.4503410000000  0.4968700000000 1.0
C      1  0.5333280000000  0.5309780000000  0.4081520000000 1.0
C      1  0.4930510000000  0.4021330000000  0.4424870000000 1.0
C      1  0.5542330000000  0.5320470000000  0.5010750000000 1.0
C      1  0.4896400000000  0.4024960000000  0.4711970000000 1.0
C      1  0.4264860000000  0.5169200000000  0.4465460000000 1.0
C      1  0.5378990000000  0.4067410000000  0.5306200000000 1.0
C      1  0.4165770000000  0.4562820000000  0.5152020000000 1.0
C      1  0.5570070000000  0.5249070000000  0.5833280000000 1.0
C      1  0.4825190000000  0.4463510000000  0.4546160000000 1.0
C      1  0.5869400000000  0.4507510000000  0.5101700000000 1.0
C      1  0.4057560000000  0.4789100000000  0.5313100000000 1.0
C      1  0.4293850000000  0.4370580000000  0.5332060000000 1.0
C      1  0.4045420000000  0.5062960000000  0.5201010000000 1.0
C      1  0.5728410000000  0.4348770000000  0.5314160000000 1.0
C      1  0.6018470000000  0.5199990000000  0.4873450000000 1.0
C      1  0.4823940000000  0.5722680000000  0.5842850000000 1.0
C      1  0.5046510000000  0.4488010000000  0.4326280000000 1.0
C      1  0.5038420000000  0.4861820000000  0.4739370000000 1.0
C      1  0.5193650000000  0.6086900000000  0.4761380000000 1.0
C      1  0.5220090000000  0.5378750000000  0.5551390000000 1.0
END
