TITL C-950523-3027-82 -3.75449960184578e-07 125000 -765.48736651058 0 0 125 (C1) n - 1
REM
REM in /home/bkarasulu/work/CARBON/AIRSS/Generating-Clusters/EDIP-Nigel-Params/with-SteepDescent/Only-C1/SD-CG/HFTN-CG
REM
REM
REM
REM
REM
REM ./C.cell (11c1c37f851c82e70ff6c80c92926a4b)
REM
REM compiler GCC version 9.2.1 20190827 (Red Hat 9.2.1-1)
REM options -cpp -mtune=generic -march=x86-64 -g -O0 -fpre-include=/usr/include/finclude/math-vector-fortran.h
REM seed 1838128708 -1817023894 -1349940952 -542363894 -1534013677 1107542560 -1044078387 2109515449 -1498266716 1237134572 -786499512 -820365268 -1895813334 829573742 -951158634 1232977634 1866393585 689981950 1011743252 -1581517238 -1564326081 1775467052 -1373684094 1349909326 -868212122 -1036628167 -618814297 1007496141 199544342 -2041169901 -4904058 368006480 -2013529783
REM
CELL 1.54180   50.00000   50.00000   50.00000   90.00000   90.00000   90.00000
LATT -1
SFAC C  
C      1  0.5541420000000  0.4385760000000  0.4334490000000 1.0
C      1  0.4590510000000  0.5049480000000  0.5936160000000 1.0
C      1  0.3864850000000  0.4793120000000  0.5296620000000 1.0
C      1  0.4194070000000  0.5636810000000  0.5226530000000 1.0
C      1  0.4849840000000  0.4292740000000  0.5341430000000 1.0
C      1  0.5264170000000  0.5624720000000  0.5465810000000 1.0
C      1  0.4862060000000  0.5287530000000  0.4053470000000 1.0
C      1  0.5813850000000  0.4289380000000  0.4706400000000 1.0
C      1  0.5668700000000  0.4507180000000  0.5684390000000 1.0
C      1  0.4853950000000  0.4832680000000  0.5371410000000 1.0
C      1  0.5071580000000  0.4336710000000  0.4372180000000 1.0
C      1  0.5772760000000  0.4627190000000  0.5430090000000 1.0
C      1  0.4743690000000  0.5976120000000  0.5089800000000 1.0
C      1  0.5468820000000  0.5616800000000  0.4738770000000 1.0
C      1  0.4575330000000  0.4202660000000  0.5286570000000 1.0
C      1  0.4884670000000  0.4650550000000  0.5885930000000 1.0
C      1  0.5521300000000  0.4844880000000  0.4268830000000 1.0
C      1  0.5115290000000  0.4791390000000  0.5493230000000 1.0
C      1  0.4500770000000  0.5163110000000  0.5385150000000 1.0
C      1  0.5085400000000  0.4559490000000  0.5063160000000 1.0
C      1  0.4227680000000  0.4860380000000  0.5667920000000 1.0
C      1  0.5567090000000  0.5117620000000  0.4136170000000 1.0
C      1  0.4330430000000  0.4609120000000  0.5761960000000 1.0
C      1  0.4363670000000  0.4534550000000  0.4588960000000 1.0
C      1  0.4864860000000  0.4935100000000  0.5956630000000 1.0
C      1  0.4319390000000  0.4725760000000  0.5187910000000 1.0
C      1  0.5593510000000  0.4740550000000  0.4971210000000 1.0
C      1  0.4061800000000  0.5218560000000  0.5162250000000 1.0
C      1  0.4686390000000  0.4240940000000  0.4660090000000 1.0
C      1  0.5133320000000  0.5409120000000  0.5916230000000 1.0
C      1  0.5944420000000  0.4435690000000  0.4910760000000 1.0
C      1  0.5387460000000  0.4193230000000  0.4834420000000 1.0
C      1  0.4695200000000  0.5269660000000  0.5192970000000 1.0
C      1  0.4939920000000  0.5251430000000  0.5557400000000 1.0
C      1  0.5044350000000  0.5881850000000  0.4673010000000 1.0
C      1  0.5561110000000  0.5305850000000  0.5712960000000 1.0
C      1  0.5750580000000  0.5156050000000  0.4589310000000 1.0
C      1  0.4769290000000  0.5183380000000  0.4767100000000 1.0
C      1  0.4555720000000  0.4723340000000  0.4754660000000 1.0
C      1  0.5554710000000  0.4933770000000  0.5985920000000 1.0
C      1  0.5407490000000  0.5014160000000  0.5740380000000 1.0
C      1  0.4880810000000  0.5757350000000  0.5696840000000 1.0
C      1  0.4189350000000  0.4972220000000  0.4735450000000 1.0
C      1  0.4042210000000  0.4681490000000  0.5102090000000 1.0
C      1  0.5369610000000  0.4450260000000  0.5747020000000 1.0
C      1  0.4383940000000  0.5450860000000  0.4582500000000 1.0
C      1  0.5945110000000  0.5101930000000  0.5030050000000 1.0
C      1  0.5320190000000  0.5189570000000  0.5102270000000 1.0
C      1  0.4266280000000  0.4810410000000  0.4502320000000 1.0
C      1  0.5653550000000  0.5601740000000  0.5169490000000 1.0
C      1  0.5817690000000  0.5305540000000  0.4843060000000 1.0
C      1  0.5647660000000  0.5310230000000  0.4355770000000 1.0
C      1  0.5940640000000  0.4628370000000  0.4475530000000 1.0
C      1  0.4462270000000  0.5263930000000  0.4364900000000 1.0
C      1  0.5345200000000  0.4163890000000  0.5310250000000 1.0
C      1  0.5542190000000  0.4360740000000  0.4636040000000 1.0
C      1  0.5269980000000  0.4730800000000  0.4171780000000 1.0
C      1  0.4322450000000  0.5033420000000  0.5168860000000 1.0
C      1  0.5106550000000  0.5107050000000  0.5821890000000 1.0
C      1  0.5398740000000  0.4707310000000  0.4738890000000 1.0
C      1  0.5063890000000  0.4132620000000  0.5200180000000 1.0
C      1  0.5464510000000  0.4895580000000  0.5199550000000 1.0
C      1  0.5217130000000  0.5599930000000  0.4261130000000 1.0
C      1  0.3961300000000  0.4919590000000  0.4937190000000 1.0
C      1  0.5679520000000  0.4912760000000  0.5405470000000 1.0
C      1  0.4331720000000  0.5106790000000  0.5794610000000 1.0
C      1  0.4882020000000  0.5472890000000  0.4729560000000 1.0
C      1  0.5079220000000  0.5044750000000  0.4952000000000 1.0
C      1  0.4575560000000  0.5662840000000  0.4608970000000 1.0
C      1  0.4858300000000  0.4992010000000  0.4026300000000 1.0
C      1  0.4506330000000  0.4294600000000  0.4990590000000 1.0
C      1  0.4434180000000  0.5117510000000  0.4870150000000 1.0
C      1  0.4880440000000  0.5487970000000  0.5771520000000 1.0
C      1  0.5578650000000  0.5436990000000  0.4953090000000 1.0
C      1  0.4826570000000  0.4445610000000  0.4468830000000 1.0
C      1  0.5669410000000  0.5188450000000  0.5961460000000 1.0
C      1  0.3980240000000  0.4858870000000  0.5538230000000 1.0
C      1  0.5312420000000  0.5165210000000  0.3973120000000 1.0
C      1  0.5538260000000  0.4211670000000  0.5087060000000 1.0
C      1  0.5126370000000  0.5399830000000  0.5280200000000 1.0
C      1  0.4118860000000  0.5410450000000  0.5417380000000 1.0
C      1  0.4726590000000  0.5665490000000  0.4367050000000 1.0
C      1  0.4649030000000  0.4825410000000  0.4168190000000 1.0
C      1  0.5727820000000  0.4616460000000  0.4286370000000 1.0
C      1  0.5834560000000  0.4877290000000  0.4853910000000 1.0
C      1  0.4683130000000  0.5405270000000  0.4245600000000 1.0
C      1  0.4968680000000  0.5607080000000  0.5014070000000 1.0
C      1  0.4542400000000  0.4591430000000  0.5032180000000 1.0
C      1  0.4592640000000  0.4504310000000  0.5706370000000 1.0
C      1  0.5112900000000  0.4747910000000  0.4846360000000 1.0
C      1  0.5713880000000  0.4480610000000  0.5111910000000 1.0
C      1  0.4444880000000  0.4970530000000  0.4323520000000 1.0
C      1  0.4854620000000  0.4711510000000  0.4644020000000 1.0
C      1  0.4683970000000  0.4549690000000  0.4232650000000 1.0
C      1  0.5141380000000  0.4907770000000  0.3972960000000 1.0
C      1  0.5275770000000  0.4442260000000  0.4217110000000 1.0
C      1  0.5387470000000  0.4433830000000  0.5434860000000 1.0
C      1  0.5151930000000  0.5386480000000  0.4577770000000 1.0
C      1  0.4190680000000  0.5406870000000  0.4788290000000 1.0
C      1  0.4886350000000  0.5049710000000  0.5166510000000 1.0
C      1  0.5435310000000  0.4938560000000  0.4545820000000 1.0
C      1  0.5135590000000  0.5398230000000  0.4042550000000 1.0
C      1  0.5259490000000  0.5787320000000  0.4833800000000 1.0
C      1  0.4350650000000  0.5337610000000  0.5585650000000 1.0
C      1  0.4821770000000  0.5961290000000  0.4822730000000 1.0
C      1  0.5493660000000  0.5731910000000  0.5337190000000 1.0
C      1  0.5168030000000  0.5096890000000  0.4525420000000 1.0
C      1  0.4723770000000  0.5545270000000  0.5176060000000 1.0
C      1  0.5146870000000  0.4659270000000  0.5751300000000 1.0
C      1  0.5478080000000  0.5546000000000  0.4434740000000 1.0
C      1  0.4948150000000  0.5958870000000  0.5277620000000 1.0
C      1  0.4998080000000  0.5758500000000  0.4406530000000 1.0
C      1  0.4057310000000  0.5558580000000  0.4982660000000 1.0
C      1  0.5271880000000  0.4669350000000  0.5289570000000 1.0
C      1  0.6017490000000  0.4674570000000  0.4745960000000 1.0
C      1  0.4810200000000  0.4573960000000  0.5201150000000 1.0
C      1  0.5060040000000  0.5840070000000  0.5503480000000 1.0
C      1  0.4693120000000  0.5011730000000  0.5562520000000 1.0
C      1  0.5867860000000  0.5090640000000  0.5299340000000 1.0
C      1  0.5354880000000  0.5512940000000  0.5739150000000 1.0
C      1  0.4890540000000  0.4998520000000  0.4555890000000 1.0
C      1  0.4406490000000  0.4248490000000  0.4618650000000 1.0
C      1  0.4487220000000  0.5718070000000  0.5175620000000 1.0
C      1  0.5120280000000  0.4274150000000  0.4943180000000 1.0
C      1  0.4443800000000  0.4336890000000  0.5513460000000 1.0
END
