TITL C-950524-1808-495 3.60910674820744e-07 125000 -601.701550438619 0 0 95 (C1) n - 1
REM
REM in /home/bkarasulu/work/CARBON/AIRSS/Generating-Clusters/EDIP-Nigel-Params/with-SteepDescent/Only-C1/SD-CG/HFTN-CG
REM
REM
REM
REM
REM
REM ./C.cell (11c1c37f851c82e70ff6c80c92926a4b)
REM
REM compiler GCC version 9.2.1 20190827 (Red Hat 9.2.1-1)
REM options -cpp -mtune=generic -march=x86-64 -g -O0 -fpre-include=/usr/include/finclude/math-vector-fortran.h
REM seed -211420387 -2090367209 656801713 -521749336 -1764492954 -1350826387 -276628032 -851876984 -1246651675 941056686 1146663083 1681602378 146566792 644212950 434343812 -816535334 -197059227 -1363953042 -129774766 -2007398733 -35990740 328778251 -1261504078 842025743 2114811308 1563144163 -435429370 -702153467 871412332 997449334 1914044362 -2000930519 1892664825
REM
CELL 1.54180   50.00000   50.00000   50.00000   90.00000   90.00000   90.00000
LATT -1
SFAC C  
C      1  0.4284240000000  0.5512140000000  0.4938200000000 1.0
C      1  0.4804630000000  0.4557400000000  0.5277270000000 1.0
C      1  0.4484900000000  0.4501680000000  0.4653420000000 1.0
C      1  0.4812800000000  0.5845110000000  0.4846710000000 1.0
C      1  0.5459310000000  0.5394420000000  0.5467750000000 1.0
C      1  0.4541560000000  0.5171030000000  0.4320520000000 1.0
C      1  0.4687570000000  0.4313240000000  0.5627570000000 1.0
C      1  0.5096240000000  0.5853660000000  0.4737670000000 1.0
C      1  0.4350080000000  0.4638220000000  0.5511790000000 1.0
C      1  0.5164800000000  0.4563200000000  0.5817250000000 1.0
C      1  0.4561310000000  0.4975880000000  0.5244950000000 1.0
C      1  0.4658300000000  0.4290170000000  0.4595060000000 1.0
C      1  0.4923180000000  0.5347080000000  0.4808950000000 1.0
C      1  0.5389690000000  0.5495600000000  0.4870450000000 1.0
C      1  0.5454640000000  0.5208290000000  0.5701560000000 1.0
C      1  0.4459250000000  0.5459650000000  0.4708610000000 1.0
C      1  0.5687640000000  0.5227580000000  0.4238530000000 1.0
C      1  0.4678550000000  0.5424920000000  0.5317750000000 1.0
C      1  0.5315120000000  0.5021840000000  0.4729010000000 1.0
C      1  0.5004560000000  0.5182340000000  0.4263930000000 1.0
C      1  0.4776600000000  0.5356140000000  0.4258930000000 1.0
C      1  0.4318160000000  0.5218240000000  0.5586180000000 1.0
C      1  0.5220480000000  0.5149350000000  0.5192980000000 1.0
C      1  0.4430640000000  0.5229600000000  0.5316240000000 1.0
C      1  0.5774830000000  0.5352660000000  0.4653910000000 1.0
C      1  0.4633140000000  0.5006070000000  0.5876070000000 1.0
C      1  0.4484620000000  0.4705710000000  0.4454640000000 1.0
C      1  0.5495220000000  0.4907380000000  0.5712150000000 1.0
C      1  0.4839900000000  0.5819780000000  0.5143290000000 1.0
C      1  0.4916760000000  0.4238860000000  0.4688360000000 1.0
C      1  0.4226310000000  0.5263900000000  0.5091310000000 1.0
C      1  0.5145020000000  0.4351440000000  0.4545950000000 1.0
C      1  0.5094180000000  0.5679790000000  0.5204630000000 1.0
C      1  0.5232480000000  0.5268320000000  0.4116510000000 1.0
C      1  0.5293390000000  0.5461050000000  0.4437330000000 1.0
C      1  0.4368720000000  0.5728710000000  0.5096410000000 1.0
C      1  0.4737290000000  0.5576030000000  0.4705900000000 1.0
C      1  0.4786840000000  0.5007220000000  0.5062270000000 1.0
C      1  0.5012710000000  0.4994410000000  0.5588950000000 1.0
C      1  0.5301560000000  0.4537600000000  0.4719940000000 1.0
C      1  0.4165270000000  0.4721230000000  0.5319720000000 1.0
C      1  0.5135610000000  0.4717940000000  0.4200990000000 1.0
C      1  0.5265290000000  0.5738360000000  0.4969340000000 1.0
C      1  0.5207830000000  0.5557780000000  0.5458710000000 1.0
C      1  0.4233420000000  0.4748000000000  0.5047790000000 1.0
C      1  0.5430590000000  0.5073050000000  0.4994910000000 1.0
C      1  0.4923360000000  0.4901020000000  0.4319670000000 1.0
C      1  0.5420840000000  0.4753350000000  0.5456910000000 1.0
C      1  0.4948530000000  0.4242270000000  0.4975040000000 1.0
C      1  0.5558870000000  0.4627920000000  0.4601880000000 1.0
C      1  0.5200730000000  0.4266930000000  0.5113210000000 1.0
C      1  0.5034880000000  0.5431610000000  0.5671310000000 1.0
C      1  0.5211800000000  0.5319890000000  0.4695120000000 1.0
C      1  0.5414080000000  0.4843300000000  0.4239510000000 1.0
C      1  0.5663570000000  0.4741850000000  0.5262930000000 1.0
C      1  0.4549030000000  0.5241160000000  0.5747640000000 1.0
C      1  0.4403180000000  0.4530470000000  0.4939100000000 1.0
C      1  0.4743080000000  0.4153420000000  0.5162010000000 1.0
C      1  0.5650240000000  0.4518090000000  0.5065850000000 1.0
C      1  0.4818110000000  0.5614440000000  0.4418500000000 1.0
C      1  0.4777640000000  0.4839500000000  0.5687910000000 1.0
C      1  0.4211280000000  0.5045280000000  0.4647010000000 1.0
C      1  0.5107770000000  0.4335860000000  0.5382050000000 1.0
C      1  0.5166650000000  0.4905180000000  0.5344960000000 1.0
C      1  0.5520900000000  0.4907510000000  0.4523060000000 1.0
C      1  0.4930800000000  0.5277050000000  0.5114340000000 1.0
C      1  0.5798560000000  0.5056540000000  0.4572420000000 1.0
C      1  0.4899950000000  0.4849250000000  0.4612020000000 1.0
C      1  0.4984930000000  0.4773260000000  0.5120580000000 1.0
C      1  0.4469660000000  0.5175530000000  0.4611750000000 1.0
C      1  0.5466080000000  0.5099710000000  0.4103350000000 1.0
C      1  0.4501920000000  0.4338820000000  0.5171030000000 1.0
C      1  0.5296950000000  0.4488650000000  0.5561000000000 1.0
C      1  0.5707040000000  0.4986320000000  0.5081200000000 1.0
C      1  0.5610520000000  0.5443840000000  0.4418880000000 1.0
C      1  0.4616830000000  0.4761450000000  0.5440950000000 1.0
C      1  0.4197780000000  0.5015640000000  0.4925260000000 1.0
C      1  0.5110150000000  0.4451790000000  0.4288050000000 1.0
C      1  0.4862760000000  0.4568210000000  0.5793780000000 1.0
C      1  0.5698190000000  0.5442160000000  0.5311660000000 1.0
C      1  0.5126520000000  0.4788540000000  0.4787350000000 1.0
C      1  0.5840580000000  0.5220960000000  0.5205700000000 1.0
C      1  0.4617950000000  0.4881460000000  0.4270080000000 1.0
C      1  0.5108240000000  0.5711280000000  0.4454850000000 1.0
C      1  0.5675990000000  0.5431220000000  0.4929520000000 1.0
C      1  0.5774400000000  0.4619110000000  0.4806140000000 1.0
C      1  0.5281290000000  0.4821950000000  0.5896680000000 1.0
C      1  0.4866740000000  0.4163620000000  0.5446690000000 1.0
C      1  0.5157840000000  0.5173880000000  0.5788420000000 1.0
C      1  0.4747410000000  0.5412960000000  0.5606430000000 1.0
C      1  0.4598690000000  0.5702120000000  0.5252570000000 1.0
C      1  0.5374690000000  0.4450370000000  0.4987810000000 1.0
C      1  0.5866030000000  0.4900880000000  0.4834540000000 1.0
C      1  0.4712490000000  0.5021080000000  0.4759660000000 1.0
C      1  0.4429310000000  0.4361210000000  0.5473240000000 1.0
END
