TITL C-951337-3020-104 -3.53404487092376e-06 125000 -1013.48343889226 0 0 162 (C1) n - 1
REM
REM in /home/bkarasulu/work/CARBON/AIRSS/Generating-Clusters/EDIP-Nigel-Params/with-SteepDescent/Only-C1/SD-CG/HFTN-CG
REM
REM
REM
REM
REM
REM ./C.cell (11c1c37f851c82e70ff6c80c92926a4b)
REM
REM compiler GCC version 9.2.1 20190827 (Red Hat 9.2.1-1)
REM options -cpp -mtune=generic -march=x86-64 -g -O0 -fpre-include=/usr/include/finclude/math-vector-fortran.h
REM seed 1696383878 -1341777153 -55643785 -1866118632 -1396986540 1025441502 473222631 -1526427741 68396200 1103246364 -744532237 488812748 1519078074 -841682056 1632045795 539643712 869386055 -153707004 -1081186576 -365325331 765388621 -748415491 -897488509 -707790181 -1683002738 496074067 -983128736 1249151045 -622427441 -481561807 -1656598470 -816498782 874522682
REM
CELL 1.54180   50.00000   50.00000   50.00000   90.00000   90.00000   90.00000
LATT -1
SFAC C  
C      1  0.4573820000000  0.4809150000000  0.5179210000000 1.0
C      1  0.4587740000000  0.4534410000000  0.4038180000000 1.0
C      1  0.4220980000000  0.4458310000000  0.5418280000000 1.0
C      1  0.4283520000000  0.5170830000000  0.5739570000000 1.0
C      1  0.5898890000000  0.4557130000000  0.5367390000000 1.0
C      1  0.5149190000000  0.5391790000000  0.4813690000000 1.0
C      1  0.5605500000000  0.4862630000000  0.5872910000000 1.0
C      1  0.5045820000000  0.4624020000000  0.5181880000000 1.0
C      1  0.4502860000000  0.5277890000000  0.5009840000000 1.0
C      1  0.5006840000000  0.5555040000000  0.5025330000000 1.0
C      1  0.4070670000000  0.4455480000000  0.5191770000000 1.0
C      1  0.4016400000000  0.4803520000000  0.4849830000000 1.0
C      1  0.4099420000000  0.4359680000000  0.4706330000000 1.0
C      1  0.5804470000000  0.4636620000000  0.4247870000000 1.0
C      1  0.5297600000000  0.4155350000000  0.4500120000000 1.0
C      1  0.5106630000000  0.5281720000000  0.4353010000000 1.0
C      1  0.4101700000000  0.5479740000000  0.4749680000000 1.0
C      1  0.5631730000000  0.5493790000000  0.4900520000000 1.0
C      1  0.4172730000000  0.5062930000000  0.4316560000000 1.0
C      1  0.5749060000000  0.4268540000000  0.4568250000000 1.0
C      1  0.4857230000000  0.4473890000000  0.5342000000000 1.0
C      1  0.6008170000000  0.5122810000000  0.4803820000000 1.0
C      1  0.4974140000000  0.5604850000000  0.5825750000000 1.0
C      1  0.5401050000000  0.5804410000000  0.4453490000000 1.0
C      1  0.5464250000000  0.4316790000000  0.5478680000000 1.0
C      1  0.4228430000000  0.5438180000000  0.5637080000000 1.0
C      1  0.4749520000000  0.4362520000000  0.4217830000000 1.0
C      1  0.5723930000000  0.4548990000000  0.4714530000000 1.0
C      1  0.5512880000000  0.5961690000000  0.5160780000000 1.0
C      1  0.5704750000000  0.4187460000000  0.5102060000000 1.0
C      1  0.5617810000000  0.5289190000000  0.5129590000000 1.0
C      1  0.4398230000000  0.4704670000000  0.4187510000000 1.0
C      1  0.4635760000000  0.6003690000000  0.5012980000000 1.0
C      1  0.3867300000000  0.4782660000000  0.4587710000000 1.0
C      1  0.5274210000000  0.4896500000000  0.4605900000000 1.0
C      1  0.5776130000000  0.5384110000000  0.4450350000000 1.0
C      1  0.6052550000000  0.4891930000000  0.5501820000000 1.0
C      1  0.4011140000000  0.4518400000000  0.4935210000000 1.0
C      1  0.4564270000000  0.4855940000000  0.5468460000000 1.0
C      1  0.4967710000000  0.5142750000000  0.5599520000000 1.0
C      1  0.5635920000000  0.5621900000000  0.5461770000000 1.0
C      1  0.4877150000000  0.5657480000000  0.4403180000000 1.0
C      1  0.4282350000000  0.4632740000000  0.5860740000000 1.0
C      1  0.4017230000000  0.4542560000000  0.4470400000000 1.0
C      1  0.4629070000000  0.5471390000000  0.4319920000000 1.0
C      1  0.4955750000000  0.5746450000000  0.5573570000000 1.0
C      1  0.4317130000000  0.4602680000000  0.4452210000000 1.0
C      1  0.5531450000000  0.4083720000000  0.4660660000000 1.0
C      1  0.4780670000000  0.4662040000000  0.5578110000000 1.0
C      1  0.5921410000000  0.5579450000000  0.4897580000000 1.0
C      1  0.4401750000000  0.4997320000000  0.5030600000000 1.0
C      1  0.4777870000000  0.4029610000000  0.5307520000000 1.0
C      1  0.4484470000000  0.5571180000000  0.5422560000000 1.0
C      1  0.4734180000000  0.5357940000000  0.4038300000000 1.0
C      1  0.5781950000000  0.4774240000000  0.4492790000000 1.0
C      1  0.5390430000000  0.5466540000000  0.5889070000000 1.0
C      1  0.6103870000000  0.5152980000000  0.5078580000000 1.0
C      1  0.4316060000000  0.5537140000000  0.4957330000000 1.0
C      1  0.3917360000000  0.5063820000000  0.4484720000000 1.0
C      1  0.5438490000000  0.5043850000000  0.4043940000000 1.0
C      1  0.5220350000000  0.4089650000000  0.5080540000000 1.0
C      1  0.4843850000000  0.4832760000000  0.4418940000000 1.0
C      1  0.5486940000000  0.4093600000000  0.4952100000000 1.0
C      1  0.4519040000000  0.4171740000000  0.5253290000000 1.0
C      1  0.4474470000000  0.4382850000000  0.4615760000000 1.0
C      1  0.5434460000000  0.5765310000000  0.4952250000000 1.0
C      1  0.5386170000000  0.4391320000000  0.4343390000000 1.0
C      1  0.5502610000000  0.5038990000000  0.4714140000000 1.0
C      1  0.4630430000000  0.5334570000000  0.5290930000000 1.0
C      1  0.5643650000000  0.5486100000000  0.5737640000000 1.0
C      1  0.4303310000000  0.4882000000000  0.4787490000000 1.0
C      1  0.4508250000000  0.5882950000000  0.4551860000000 1.0
C      1  0.4705480000000  0.5301890000000  0.4776360000000 1.0
C      1  0.4545590000000  0.4626360000000  0.5945070000000 1.0
C      1  0.5553930000000  0.5331660000000  0.4643190000000 1.0
C      1  0.5348840000000  0.4987700000000  0.5808720000000 1.0
C      1  0.4982360000000  0.4463900000000  0.4666520000000 1.0
C      1  0.5005320000000  0.5089800000000  0.5104480000000 1.0
C      1  0.4531360000000  0.5776640000000  0.4840200000000 1.0
C      1  0.4941980000000  0.4546430000000  0.4364010000000 1.0
C      1  0.4637960000000  0.5984990000000  0.5285160000000 1.0
C      1  0.5254240000000  0.5646270000000  0.5162630000000 1.0
C      1  0.4071440000000  0.5141250000000  0.5283690000000 1.0
C      1  0.5200260000000  0.5890610000000  0.5512270000000 1.0
C      1  0.4740110000000  0.5091790000000  0.3952280000000 1.0
C      1  0.5993880000000  0.4618430000000  0.4846020000000 1.0
C      1  0.5903490000000  0.5598400000000  0.5271670000000 1.0
C      1  0.3937690000000  0.5233610000000  0.4757970000000 1.0
C      1  0.5188550000000  0.4868100000000  0.4108160000000 1.0
C      1  0.5317940000000  0.5206600000000  0.6000280000000 1.0
C      1  0.5174220000000  0.4470350000000  0.5848660000000 1.0
C      1  0.5432150000000  0.5434730000000  0.5320720000000 1.0
C      1  0.5242310000000  0.4167670000000  0.5362180000000 1.0
C      1  0.5100700000000  0.4983830000000  0.4377920000000 1.0
C      1  0.4068470000000  0.5423590000000  0.5381640000000 1.0
C      1  0.4165010000000  0.5572760000000  0.4494670000000 1.0
C      1  0.4934670000000  0.4890330000000  0.3917900000000 1.0
C      1  0.5530660000000  0.4940660000000  0.5002810000000 1.0
C      1  0.4692760000000  0.4397560000000  0.5848180000000 1.0
C      1  0.4945110000000  0.4898070000000  0.6054140000000 1.0
C      1  0.5065340000000  0.5675510000000  0.4151510000000 1.0
C      1  0.5905110000000  0.5295500000000  0.5256670000000 1.0
C      1  0.4395320000000  0.5672770000000  0.4370960000000 1.0
C      1  0.5995720000000  0.5384280000000  0.4668000000000 1.0
C      1  0.5350270000000  0.5677600000000  0.4198320000000 1.0
C      1  0.5215820000000  0.5675810000000  0.5955650000000 1.0
C      1  0.4937530000000  0.3987730000000  0.5057520000000 1.0
C      1  0.4771750000000  0.5604740000000  0.4776310000000 1.0
C      1  0.5057320000000  0.4172120000000  0.4680890000000 1.0
C      1  0.4977440000000  0.5151100000000  0.4804170000000 1.0
C      1  0.5639830000000  0.4590150000000  0.5838600000000 1.0
C      1  0.5465180000000  0.5333300000000  0.4097860000000 1.0
C      1  0.4966360000000  0.4214900000000  0.5465530000000 1.0
C      1  0.5969140000000  0.4691010000000  0.5120950000000 1.0
C      1  0.3924230000000  0.5059650000000  0.5023620000000 1.0
C      1  0.4817890000000  0.4017510000000  0.4549870000000 1.0
C      1  0.4883400000000  0.5311760000000  0.5851110000000 1.0
C      1  0.5936400000000  0.5154850000000  0.5514030000000 1.0
C      1  0.5281550000000  0.5012000000000  0.5225660000000 1.0
C      1  0.5309340000000  0.5188930000000  0.5479190000000 1.0
C      1  0.5723390000000  0.5251910000000  0.4194710000000 1.0
C      1  0.4397500000000  0.5005690000000  0.4513260000000 1.0
C      1  0.5438510000000  0.4425180000000  0.5742760000000 1.0
C      1  0.4629670000000  0.4429410000000  0.5132190000000 1.0
C      1  0.5800650000000  0.5047960000000  0.5955770000000 1.0
C      1  0.5198920000000  0.4563480000000  0.4200310000000 1.0
C      1  0.6145020000000  0.4894320000000  0.5219640000000 1.0
C      1  0.5211830000000  0.4768060000000  0.5370710000000 1.0
C      1  0.6030580000000  0.4863600000000  0.4658650000000 1.0
C      1  0.4187010000000  0.4680150000000  0.5604740000000 1.0
C      1  0.4664730000000  0.5135530000000  0.5521420000000 1.0
C      1  0.4203790000000  0.4887900000000  0.4090780000000 1.0
C      1  0.4592480000000  0.5238800000000  0.4517980000000 1.0
C      1  0.4780440000000  0.4659090000000  0.3874250000000 1.0
C      1  0.5801730000000  0.5239200000000  0.5746870000000 1.0
C      1  0.5482830000000  0.5896060000000  0.5442020000000 1.0
C      1  0.5268970000000  0.5862980000000  0.4704090000000 1.0
C      1  0.4678530000000  0.5797830000000  0.5478820000000 1.0
C      1  0.4990080000000  0.5982980000000  0.4703130000000 1.0
C      1  0.5477920000000  0.4638990000000  0.4906570000000 1.0
C      1  0.4731070000000  0.4855710000000  0.4696750000000 1.0
C      1  0.4675740000000  0.4884350000000  0.5949360000000 1.0
C      1  0.5037210000000  0.5176250000000  0.6064410000000 1.0
C      1  0.4777500000000  0.3938010000000  0.4823080000000 1.0
C      1  0.4692580000000  0.4518720000000  0.4795440000000 1.0
C      1  0.4870980000000  0.6115290000000  0.4917520000000 1.0
C      1  0.5027700000000  0.5395820000000  0.4083350000000 1.0
C      1  0.5130540000000  0.4687190000000  0.6023500000000 1.0
C      1  0.4907570000000  0.5352460000000  0.5216350000000 1.0
C      1  0.4609170000000  0.4193360000000  0.4419440000000 1.0
C      1  0.5048790000000  0.4830860000000  0.5625630000000 1.0
C      1  0.4855900000000  0.4828560000000  0.5066130000000 1.0
C      1  0.4195090000000  0.4974540000000  0.5525020000000 1.0
C      1  0.5206760000000  0.4662690000000  0.4770360000000 1.0
C      1  0.4353870000000  0.4218360000000  0.5478730000000 1.0
C      1  0.4799100000000  0.5930390000000  0.4480130000000 1.0
C      1  0.4537300000000  0.5147450000000  0.5901300000000 1.0
C      1  0.4952830000000  0.4300300000000  0.5763090000000 1.0
C      1  0.5280670000000  0.5448950000000  0.4553270000000 1.0
C      1  0.4235630000000  0.5623200000000  0.5232990000000 1.0
C      1  0.5675050000000  0.4389470000000  0.4300810000000 1.0
C      1  0.5719800000000  0.4326890000000  0.5343550000000 1.0
END
