TITL C-950526-5686-134 1.42469352422754e-06 125000 -333.207097468666 0 0 56 (C1) n - 1
REM
REM in /home/bkarasulu/work/CARBON/AIRSS/Generating-Clusters/EDIP-Nigel-Params/with-SteepDescent/Only-C1/SD-CG/HFTN-CG
REM
REM
REM
REM
REM
REM ./C.cell (11c1c37f851c82e70ff6c80c92926a4b)
REM
REM compiler GCC version 9.2.1 20190827 (Red Hat 9.2.1-1)
REM options -cpp -mtune=generic -march=x86-64 -g -O0 -fpre-include=/usr/include/finclude/math-vector-fortran.h
REM seed 1819498343 1003777694 -89791436 -747466158 1437250228 774184091 -1377789318 -661157312 156130388 1011372905 -1908515952 -653541329 -2040205239 656322515 176380089 -1054491121 1139572102 2037847166 1124731860 -242179133 217883969 -946998230 145132789 496912143 829860970 -348454547 1483537789 772351747 -804649214 -1594480083 2109809500 -1841816147 1748830897
REM
CELL 1.54180   50.00000   50.00000   50.00000   90.00000   90.00000   90.00000
LATT -1
SFAC C  
C      1  0.4943160000000  0.5050540000000  0.5354400000000 1.0
C      1  0.5258200000000  0.4999550000000  0.4437990000000 1.0
C      1  0.4381060000000  0.4735180000000  0.5277240000000 1.0
C      1  0.4766740000000  0.4953990000000  0.4963900000000 1.0
C      1  0.5265730000000  0.4316670000000  0.4679280000000 1.0
C      1  0.5284240000000  0.4519080000000  0.5395840000000 1.0
C      1  0.5596390000000  0.4759990000000  0.5034970000000 1.0
C      1  0.4731290000000  0.5104640000000  0.5572200000000 1.0
C      1  0.5297120000000  0.5278620000000  0.5453480000000 1.0
C      1  0.5240580000000  0.4745690000000  0.5588510000000 1.0
C      1  0.4636300000000  0.4502430000000  0.4852930000000 1.0
C      1  0.5489570000000  0.4575530000000  0.5212830000000 1.0
C      1  0.4979550000000  0.4734000000000  0.5697140000000 1.0
C      1  0.4857350000000  0.5198820000000  0.5116180000000 1.0
C      1  0.4948950000000  0.4908090000000  0.4744450000000 1.0
C      1  0.4994400000000  0.4315150000000  0.4566390000000 1.0
C      1  0.4673230000000  0.5413270000000  0.5242300000000 1.0
C      1  0.4867070000000  0.5714480000000  0.4985440000000 1.0
C      1  0.5241910000000  0.4904770000000  0.4812650000000 1.0
C      1  0.5263170000000  0.5448820000000  0.5196750000000 1.0
C      1  0.4837570000000  0.4662050000000  0.5206430000000 1.0
C      1  0.4314800000000  0.4951900000000  0.5112610000000 1.0
C      1  0.4875720000000  0.5256270000000  0.5773270000000 1.0
C      1  0.4299520000000  0.5170680000000  0.5282710000000 1.0
C      1  0.5468190000000  0.5492990000000  0.4757830000000 1.0
C      1  0.4828190000000  0.4915830000000  0.4473620000000 1.0
C      1  0.5112280000000  0.5319580000000  0.5657910000000 1.0
C      1  0.5171030000000  0.4846110000000  0.5124360000000 1.0
C      1  0.4628520000000  0.5302220000000  0.4707470000000 1.0
C      1  0.5695330000000  0.5276140000000  0.5119140000000 1.0
C      1  0.5281780000000  0.5692590000000  0.4647870000000 1.0
C      1  0.5210170000000  0.5317240000000  0.4724080000000 1.0
C      1  0.4506730000000  0.5275590000000  0.5435040000000 1.0
C      1  0.4956070000000  0.4555740000000  0.4385590000000 1.0
C      1  0.4842490000000  0.4309190000000  0.4818140000000 1.0
C      1  0.5069140000000  0.5693630000000  0.5212810000000 1.0
C      1  0.5395560000000  0.4558690000000  0.4588980000000 1.0
C      1  0.4490280000000  0.4702130000000  0.4714090000000 1.0
C      1  0.5526920000000  0.5488250000000  0.5049340000000 1.0
C      1  0.4617630000000  0.4656620000000  0.5404890000000 1.0
C      1  0.5020170000000  0.5611330000000  0.4562700000000 1.0
C      1  0.5123600000000  0.5273890000000  0.5012900000000 1.0
C      1  0.4822890000000  0.5630440000000  0.5361020000000 1.0
C      1  0.5037760000000  0.4445170000000  0.5243860000000 1.0
C      1  0.4486300000000  0.4978350000000  0.4859360000000 1.0
C      1  0.5064170000000  0.4287400000000  0.5005840000000 1.0
C      1  0.4613970000000  0.4712380000000  0.4453540000000 1.0
C      1  0.5673990000000  0.5007780000000  0.5135920000000 1.0
C      1  0.5325380000000  0.4971700000000  0.5384390000000 1.0
C      1  0.4711140000000  0.4807550000000  0.5641320000000 1.0
C      1  0.4824750000000  0.5529670000000  0.4759740000000 1.0
C      1  0.4863700000000  0.5316510000000  0.4273560000000 1.0
C      1  0.5217570000000  0.4711640000000  0.4414420000000 1.0
C      1  0.5577460000000  0.4715140000000  0.4751890000000 1.0
C      1  0.5107360000000  0.5196460000000  0.4311900000000 1.0
C      1  0.4685850000000  0.5181820000000  0.4446610000000 1.0
END
