TITL C-951337-3020-498 3.35273945164948e-08 125000 -159.638186523053 0 0 28 (C1) n - 1
REM
REM in /home/bkarasulu/work/CARBON/AIRSS/Generating-Clusters/EDIP-Nigel-Params/with-SteepDescent/Only-C1/SD-CG/HFTN-CG
REM
REM
REM
REM
REM
REM ./C.cell (11c1c37f851c82e70ff6c80c92926a4b)
REM
REM compiler GCC version 9.2.1 20190827 (Red Hat 9.2.1-1)
REM options -cpp -mtune=generic -march=x86-64 -g -O0 -fpre-include=/usr/include/finclude/math-vector-fortran.h
REM seed 789114447 -1586010354 -1335963478 2087833483 -234809435 -656272672 -30748242 544104103 -1448000995 -411493692 2015997479 1552663427 1472810593 -972895236 2013300486 -1444168751 927651556 1224402293 -1660331038 -1526338942 2034531053 1942862845 65159559 -1700544126 -1945013589 -65107749 -417306661 -2142916911 -494893326 697122752 1160771200 -86913014 1030188735
REM
CELL 1.54180   50.00000   50.00000   50.00000   90.00000   90.00000   90.00000
LATT -1
SFAC C  
C      1  0.5565160000000  0.5637710000000  0.5325730000000 1.0
C      1  0.5377510000000  0.4703280000000  0.5026110000000 1.0
C      1  0.5336520000000  0.5616950000000  0.5193400000000 1.0
C      1  0.4408900000000  0.4997980000000  0.5021340000000 1.0
C      1  0.4779940000000  0.5049670000000  0.5093700000000 1.0
C      1  0.4569790000000  0.4790040000000  0.4882630000000 1.0
C      1  0.5794860000000  0.4822530000000  0.5309820000000 1.0
C      1  0.4519120000000  0.4501660000000  0.4907880000000 1.0
C      1  0.4875250000000  0.5534300000000  0.5093510000000 1.0
C      1  0.5015840000000  0.5021090000000  0.4888710000000 1.0
C      1  0.4328510000000  0.5235760000000  0.4886550000000 1.0
C      1  0.4674830000000  0.4840970000000  0.4604930000000 1.0
C      1  0.5910740000000  0.5293300000000  0.5464000000000 1.0
C      1  0.4711040000000  0.5322020000000  0.4686850000000 1.0
C      1  0.5150370000000  0.4755220000000  0.4881820000000 1.0
C      1  0.4366280000000  0.4287990000000  0.5366150000000 1.0
C      1  0.5779400000000  0.5520550000000  0.5428140000000 1.0
C      1  0.4807540000000  0.4570460000000  0.4576300000000 1.0
C      1  0.4432930000000  0.5299360000000  0.4634160000000 1.0
C      1  0.5067740000000  0.4586100000000  0.4679330000000 1.0
C      1  0.5913860000000  0.5032320000000  0.5418880000000 1.0
C      1  0.5202890000000  0.5233460000000  0.4941620000000 1.0
C      1  0.4649220000000  0.4367910000000  0.4699420000000 1.0
C      1  0.5144520000000  0.5480850000000  0.5052530000000 1.0
C      1  0.4457800000000  0.4381360000000  0.5146190000000 1.0
C      1  0.4867210000000  0.5071650000000  0.4625190000000 1.0
C      1  0.4693150000000  0.5333020000000  0.4994910000000 1.0
C      1  0.5599080000000  0.4712480000000  0.5170200000000 1.0
END
