TITL C-951339-9237-26 -1.4243925410608e-06 125000 -868.164262612599 0 0 140 (C1) n - 1
REM
REM in /home/bkarasulu/work/CARBON/AIRSS/Generating-Clusters/EDIP-Nigel-Params/with-SteepDescent/Only-C1/SD-CG/HFTN-CG
REM
REM
REM
REM
REM
REM ./C.cell (11c1c37f851c82e70ff6c80c92926a4b)
REM
REM compiler GCC version 9.2.1 20190827 (Red Hat 9.2.1-1)
REM options -cpp -mtune=generic -march=x86-64 -g -O0 -fpre-include=/usr/include/finclude/math-vector-fortran.h
REM seed -1555510773 -1090358304 561582789 1761942186 1272780660 1469209701 1349337188 -1827405580 -480229931 -2133041287 -1715758531 1072921089 2021873346 1088499405 1309483777 844141720 -920766107 -1188257404 -2037853763 -1875406915 -1883284299 1346554433 -848874236 -151503040 1136426177 767439959 2100744839 -941998898 53086474 137849503 -171700054 2002378535 -1234637476
REM
CELL 1.54180   50.00000   50.00000   50.00000   90.00000   90.00000   90.00000
LATT -1
SFAC C  
C      1  0.4503730000000  0.5428050000000  0.4568910000000 1.0
C      1  0.4762210000000  0.4809340000000  0.4088620000000 1.0
C      1  0.5064840000000  0.4850040000000  0.5426340000000 1.0
C      1  0.5658590000000  0.4785800000000  0.5200230000000 1.0
C      1  0.5606630000000  0.5253840000000  0.5194260000000 1.0
C      1  0.5821490000000  0.5033640000000  0.5252670000000 1.0
C      1  0.3942970000000  0.5213370000000  0.4841800000000 1.0
C      1  0.4867140000000  0.4541820000000  0.4113910000000 1.0
C      1  0.4920250000000  0.5264280000000  0.4084730000000 1.0
C      1  0.5439530000000  0.4235340000000  0.5293300000000 1.0
C      1  0.5379070000000  0.4548940000000  0.4607130000000 1.0
C      1  0.4275740000000  0.5576980000000  0.4709950000000 1.0
C      1  0.4705310000000  0.5013660000000  0.4877590000000 1.0
C      1  0.4985940000000  0.4341620000000  0.5229890000000 1.0
C      1  0.4960090000000  0.6029750000000  0.4913480000000 1.0
C      1  0.5414860000000  0.5238770000000  0.4074190000000 1.0
C      1  0.4971450000000  0.5575430000000  0.4525770000000 1.0
C      1  0.4657200000000  0.4789980000000  0.4673950000000 1.0
C      1  0.5265740000000  0.4017290000000  0.4664570000000 1.0
C      1  0.5668840000000  0.4129790000000  0.5159940000000 1.0
C      1  0.5158680000000  0.5217310000000  0.4805630000000 1.0
C      1  0.5351770000000  0.4929560000000  0.5556200000000 1.0
C      1  0.4902530000000  0.5938360000000  0.4650880000000 1.0
C      1  0.5192170000000  0.3992550000000  0.4938640000000 1.0
C      1  0.4138240000000  0.5073820000000  0.5311380000000 1.0
C      1  0.4567020000000  0.3966560000000  0.4739780000000 1.0
C      1  0.4896240000000  0.5367000000000  0.5618450000000 1.0
C      1  0.5394880000000  0.4443600000000  0.5515180000000 1.0
C      1  0.4242380000000  0.5145670000000  0.4231920000000 1.0
C      1  0.5641300000000  0.4243310000000  0.4898370000000 1.0
C      1  0.4901590000000  0.5119660000000  0.6090930000000 1.0
C      1  0.5446190000000  0.6022340000000  0.5082020000000 1.0
C      1  0.5500870000000  0.4359560000000  0.4406810000000 1.0
C      1  0.4587390000000  0.4109830000000  0.4978630000000 1.0
C      1  0.5397290000000  0.4938290000000  0.5853410000000 1.0
C      1  0.4521420000000  0.5819460000000  0.5157130000000 1.0
C      1  0.4575290000000  0.5776450000000  0.5617000000000 1.0
C      1  0.4660700000000  0.4949480000000  0.6088120000000 1.0
C      1  0.4657990000000  0.5891030000000  0.4523910000000 1.0
C      1  0.5259880000000  0.4303100000000  0.4238730000000 1.0
C      1  0.5276830000000  0.5404490000000  0.5897650000000 1.0
C      1  0.4370730000000  0.4367640000000  0.5506250000000 1.0
C      1  0.5035280000000  0.4175020000000  0.4396730000000 1.0
C      1  0.5437200000000  0.5703190000000  0.4443910000000 1.0
C      1  0.4332800000000  0.4536060000000  0.4365080000000 1.0
C      1  0.4369720000000  0.4657840000000  0.5469460000000 1.0
C      1  0.5080920000000  0.5912030000000  0.5384830000000 1.0
C      1  0.5234690000000  0.4986480000000  0.4392810000000 1.0
C      1  0.4403990000000  0.4124570000000  0.4579250000000 1.0
C      1  0.5820270000000  0.5575720000000  0.5221910000000 1.0
C      1  0.5639810000000  0.5301850000000  0.4254590000000 1.0
C      1  0.5507670000000  0.5219060000000  0.5879020000000 1.0
C      1  0.5171550000000  0.4733460000000  0.4968600000000 1.0
C      1  0.5010100000000  0.5223920000000  0.4516120000000 1.0
C      1  0.5521780000000  0.5029820000000  0.4485670000000 1.0
C      1  0.5891500000000  0.4619630000000  0.5106840000000 1.0
C      1  0.4867090000000  0.5864660000000  0.5152610000000 1.0
C      1  0.5126570000000  0.5341440000000  0.5372250000000 1.0
C      1  0.4392870000000  0.5756850000000  0.5414510000000 1.0
C      1  0.5474030000000  0.5115260000000  0.4801910000000 1.0
C      1  0.5103290000000  0.4464740000000  0.5646990000000 1.0
C      1  0.4362830000000  0.5739170000000  0.4927220000000 1.0
C      1  0.4592950000000  0.4562970000000  0.4985440000000 1.0
C      1  0.4950990000000  0.4365400000000  0.4725200000000 1.0
C      1  0.5601120000000  0.4687430000000  0.4750240000000 1.0
C      1  0.5597140000000  0.5464130000000  0.4492050000000 1.0
C      1  0.5176920000000  0.5632860000000  0.4315120000000 1.0
C      1  0.5759420000000  0.5447020000000  0.4736160000000 1.0
C      1  0.5345040000000  0.5822380000000  0.5281590000000 1.0
C      1  0.5604870000000  0.5880690000000  0.4881330000000 1.0
C      1  0.5426680000000  0.5903200000000  0.4654640000000 1.0
C      1  0.5408930000000  0.5222620000000  0.5449330000000 1.0
C      1  0.5738240000000  0.5277310000000  0.5669630000000 1.0
C      1  0.5232210000000  0.4391080000000  0.4819730000000 1.0
C      1  0.5193940000000  0.4140490000000  0.5180320000000 1.0
C      1  0.4139650000000  0.4763060000000  0.4775080000000 1.0
C      1  0.4452550000000  0.4770330000000  0.5743820000000 1.0
C      1  0.4592840000000  0.4740110000000  0.5275220000000 1.0
C      1  0.6077580000000  0.4838220000000  0.5037640000000 1.0
C      1  0.4959340000000  0.4998300000000  0.3989030000000 1.0
C      1  0.6020230000000  0.4972290000000  0.4786370000000 1.0
C      1  0.4663560000000  0.5178180000000  0.5528370000000 1.0
C      1  0.4194260000000  0.4232040000000  0.5343220000000 1.0
C      1  0.5862440000000  0.5027920000000  0.5550510000000 1.0
C      1  0.4026280000000  0.5458010000000  0.4740360000000 1.0
C      1  0.4685130000000  0.5623830000000  0.4440360000000 1.0
C      1  0.5536140000000  0.4134030000000  0.4636230000000 1.0
C      1  0.4786560000000  0.4343400000000  0.4317600000000 1.0
C      1  0.4001310000000  0.4993010000000  0.4664580000000 1.0
C      1  0.4912690000000  0.4640490000000  0.4622310000000 1.0
C      1  0.4756210000000  0.4875670000000  0.5518590000000 1.0
C      1  0.5159370000000  0.4556050000000  0.4112610000000 1.0
C      1  0.4630130000000  0.5443520000000  0.5034410000000 1.0
C      1  0.4707490000000  0.4700650000000  0.5912120000000 1.0
C      1  0.5465120000000  0.4844720000000  0.4958990000000 1.0
C      1  0.4623120000000  0.4274980000000  0.5571440000000 1.0
C      1  0.4052450000000  0.5060430000000  0.4399320000000 1.0
C      1  0.4544170000000  0.5238900000000  0.5251910000000 1.0
C      1  0.5160570000000  0.4706130000000  0.4464610000000 1.0
C      1  0.3961390000000  0.5164630000000  0.5115000000000 1.0
C      1  0.4050980000000  0.4630620000000  0.5105740000000 1.0
C      1  0.5742470000000  0.4822620000000  0.4366470000000 1.0
C      1  0.5158930000000  0.4853400000000  0.5990020000000 1.0
C      1  0.5740260000000  0.5510710000000  0.5487360000000 1.0
C      1  0.5055260000000  0.5798200000000  0.5657780000000 1.0
C      1  0.5237910000000  0.4941990000000  0.4087330000000 1.0
C      1  0.4810720000000  0.5649080000000  0.5686460000000 1.0
C      1  0.4793900000000  0.4331890000000  0.4987230000000 1.0
C      1  0.4525040000000  0.4981840000000  0.5113350000000 1.0
C      1  0.5678640000000  0.4558690000000  0.4275580000000 1.0
C      1  0.4133560000000  0.4348580000000  0.5096340000000 1.0
C      1  0.5129400000000  0.5492650000000  0.4931650000000 1.0
C      1  0.5026300000000  0.5255850000000  0.5863110000000 1.0
C      1  0.4894380000000  0.4298680000000  0.5509550000000 1.0
C      1  0.5852400000000  0.5198050000000  0.4831630000000 1.0
C      1  0.4498910000000  0.4309550000000  0.4381880000000 1.0
C      1  0.5276750000000  0.5647820000000  0.5752970000000 1.0
C      1  0.5008210000000  0.5009720000000  0.4968090000000 1.0
C      1  0.4214560000000  0.5540560000000  0.5438120000000 1.0
C      1  0.5034860000000  0.5086860000000  0.5249360000000 1.0
C      1  0.4124310000000  0.4780230000000  0.5349480000000 1.0
C      1  0.4888510000000  0.5576020000000  0.5082320000000 1.0
C      1  0.5695320000000  0.5617200000000  0.4960570000000 1.0
C      1  0.5789600000000  0.4488110000000  0.4865250000000 1.0
C      1  0.4197630000000  0.5271930000000  0.5530890000000 1.0
C      1  0.5935400000000  0.4793440000000  0.4577340000000 1.0
C      1  0.4373940000000  0.4661310000000  0.4619260000000 1.0
C      1  0.5232640000000  0.6122610000000  0.4909280000000 1.0
C      1  0.4359810000000  0.4331220000000  0.4902120000000 1.0
C      1  0.4416940000000  0.5079840000000  0.5972990000000 1.0
C      1  0.5551820000000  0.4714290000000  0.5482260000000 1.0
C      1  0.5172590000000  0.5393210000000  0.4140600000000 1.0
C      1  0.4993430000000  0.4677690000000  0.5830270000000 1.0
C      1  0.4661240000000  0.5295930000000  0.4783050000000 1.0
C      1  0.4736650000000  0.5071580000000  0.4358870000000 1.0
C      1  0.5319960000000  0.5529350000000  0.5163620000000 1.0
C      1  0.4429840000000  0.5209420000000  0.5711040000000 1.0
C      1  0.5781830000000  0.4773820000000  0.5656270000000 1.0
C      1  0.5107210000000  0.4622160000000  0.5231670000000 1.0
C      1  0.4471930000000  0.5209270000000  0.4373810000000 1.0
END
