TITL C-951335-1172-698 2.99486015683116e-07 125000 -276.077978399339 0 0 46 (C1) n - 1
REM
REM in /home/bkarasulu/work/CARBON/AIRSS/Generating-Clusters/EDIP-Nigel-Params/with-SteepDescent/Only-C1/SD-CG/HFTN-CG
REM
REM
REM
REM
REM
REM ./C.cell (11c1c37f851c82e70ff6c80c92926a4b)
REM
REM compiler GCC version 9.2.1 20190827 (Red Hat 9.2.1-1)
REM options -cpp -mtune=generic -march=x86-64 -g -O0 -fpre-include=/usr/include/finclude/math-vector-fortran.h
REM seed -1898545744 1424648436 -1665034835 1031427125 -2124036179 1622031688 -1487071200 -1186468321 184893653 1037671867 -637118513 -1230511384 -1499674393 924118899 1473638755 1740399554 1191981333 -1093517506 -995471224 -1816323641 1729777828 -2024086909 92757345 -983745979 127923505 -683030203 -295725330 327310568 1007843332 403218871 -650871722 1746715181 729493671
REM
CELL 1.54180   50.00000   50.00000   50.00000   90.00000   90.00000   90.00000
LATT -1
SFAC C  
C      1  0.5255650000000  0.5139430000000  0.4976390000000 1.0
C      1  0.5023420000000  0.4775290000000  0.4304470000000 1.0
C      1  0.5626560000000  0.4845100000000  0.5168910000000 1.0
C      1  0.4726260000000  0.5597630000000  0.4736110000000 1.0
C      1  0.5189490000000  0.4862700000000  0.4528730000000 1.0
C      1  0.5561400000000  0.5072460000000  0.4979500000000 1.0
C      1  0.5476110000000  0.4861570000000  0.4470020000000 1.0
C      1  0.4611400000000  0.5011140000000  0.5400440000000 1.0
C      1  0.5614500000000  0.5366900000000  0.5047160000000 1.0
C      1  0.5490390000000  0.4621690000000  0.4605100000000 1.0
C      1  0.5064280000000  0.5356940000000  0.4373800000000 1.0
C      1  0.4976620000000  0.4821770000000  0.5085180000000 1.0
C      1  0.4888030000000  0.5557680000000  0.5200450000000 1.0
C      1  0.4869320000000  0.4501910000000  0.4658560000000 1.0
C      1  0.5088530000000  0.4933580000000  0.5591130000000 1.0
C      1  0.4665890000000  0.5590600000000  0.5015960000000 1.0
C      1  0.5327040000000  0.4574540000000  0.4833260000000 1.0
C      1  0.4790010000000  0.4333720000000  0.5264620000000 1.0
C      1  0.4797190000000  0.4548860000000  0.5470160000000 1.0
C      1  0.5223680000000  0.4622430000000  0.5264410000000 1.0
C      1  0.5496760000000  0.5189540000000  0.5543420000000 1.0
C      1  0.5062070000000  0.5030020000000  0.4776640000000 1.0
C      1  0.4514450000000  0.4965340000000  0.5126090000000 1.0
C      1  0.4423010000000  0.5452860000000  0.5072760000000 1.0
C      1  0.5152160000000  0.5615000000000  0.5130260000000 1.0
C      1  0.5544320000000  0.4918190000000  0.5461270000000 1.0
C      1  0.5455010000000  0.4597160000000  0.5094100000000 1.0
C      1  0.4518810000000  0.5172260000000  0.4674130000000 1.0
C      1  0.4831820000000  0.5468430000000  0.5468130000000 1.0
C      1  0.4471590000000  0.5196460000000  0.4960080000000 1.0
C      1  0.4994390000000  0.4310510000000  0.5069880000000 1.0
C      1  0.5325100000000  0.5440450000000  0.4997400000000 1.0
C      1  0.4807090000000  0.4952440000000  0.4319550000000 1.0
C      1  0.4570300000000  0.5431010000000  0.4565690000000 1.0
C      1  0.4668830000000  0.4733210000000  0.5013030000000 1.0
C      1  0.4577270000000  0.4492120000000  0.5155670000000 1.0
C      1  0.4671960000000  0.4694810000000  0.4718940000000 1.0
C      1  0.4861230000000  0.4836530000000  0.5411930000000 1.0
C      1  0.5216140000000  0.5193730000000  0.5576810000000 1.0
C      1  0.5059450000000  0.5419520000000  0.5621770000000 1.0
C      1  0.5082090000000  0.4409530000000  0.4820250000000 1.0
C      1  0.4629110000000  0.5277220000000  0.5489010000000 1.0
C      1  0.4879270000000  0.5211000000000  0.4232860000000 1.0
C      1  0.4940190000000  0.5298640000000  0.4631080000000 1.0
C      1  0.4678160000000  0.4947100000000  0.4578580000000 1.0
C      1  0.5303630000000  0.4751000000000  0.5516330000000 1.0
END
