TITL C-950521-2237-166 -3.74692831160408e-06 125000 -1086.14847152398 0 0 173 (C1) n - 1
REM
REM in /home/bkarasulu/work/CARBON/AIRSS/Generating-Clusters/EDIP-Nigel-Params/with-SteepDescent/Only-C1/SD-CG/HFTN-CG
REM
REM
REM
REM
REM
REM ./C.cell (11c1c37f851c82e70ff6c80c92926a4b)
REM
REM compiler GCC version 9.2.1 20190827 (Red Hat 9.2.1-1)
REM options -cpp -mtune=generic -march=x86-64 -g -O0 -fpre-include=/usr/include/finclude/math-vector-fortran.h
REM seed 1907960356 328576299 1053624455 1969759860 1443758491 -287446053 -1637064027 -695494038 1823800542 -1881341407 631366894 -881166602 2116270130 468305226 -2036305128 -431538403 -1288262501 509721735 -1980231144 877518375 -1730903022 -722081286 -28232356 250845546 1385010364 1386600043 782001606 -610127103 126722795 151044257 -86129883 -340315500 1379384451
REM
CELL 1.54180   50.00000   50.00000   50.00000   90.00000   90.00000   90.00000
LATT -1
SFAC C  
C      1  0.5373390000000  0.5526690000000  0.4182620000000 1.0
C      1  0.4715940000000  0.5561160000000  0.4342970000000 1.0
C      1  0.4517190000000  0.4738930000000  0.5381850000000 1.0
C      1  0.6007300000000  0.5274680000000  0.5510710000000 1.0
C      1  0.5459450000000  0.4591870000000  0.5157660000000 1.0
C      1  0.4548900000000  0.4167860000000  0.5658720000000 1.0
C      1  0.5906620000000  0.4333450000000  0.5148430000000 1.0
C      1  0.4522290000000  0.6012450000000  0.5008550000000 1.0
C      1  0.4783310000000  0.5545180000000  0.4659620000000 1.0
C      1  0.5871780000000  0.5408820000000  0.4240080000000 1.0
C      1  0.5586180000000  0.4302720000000  0.4508950000000 1.0
C      1  0.4892330000000  0.5069890000000  0.4698280000000 1.0
C      1  0.4957120000000  0.5149570000000  0.5642380000000 1.0
C      1  0.5065200000000  0.4390960000000  0.4724440000000 1.0
C      1  0.4127840000000  0.5105100000000  0.4869440000000 1.0
C      1  0.5742140000000  0.5103470000000  0.5890630000000 1.0
C      1  0.4384340000000  0.4654120000000  0.4825250000000 1.0
C      1  0.5233710000000  0.4804890000000  0.4404910000000 1.0
C      1  0.5015400000000  0.4828920000000  0.5695450000000 1.0
C      1  0.5218810000000  0.4316120000000  0.4993210000000 1.0
C      1  0.4200090000000  0.5602680000000  0.5640600000000 1.0
C      1  0.5894290000000  0.4810450000000  0.5473950000000 1.0
C      1  0.4114930000000  0.5351700000000  0.5059360000000 1.0
C      1  0.5074800000000  0.4837470000000  0.5994830000000 1.0
C      1  0.4343410000000  0.5307880000000  0.6045560000000 1.0
C      1  0.4766170000000  0.5234530000000  0.5393790000000 1.0
C      1  0.5468860000000  0.5784050000000  0.5064740000000 1.0
C      1  0.5742600000000  0.5414190000000  0.4873630000000 1.0
C      1  0.4476980000000  0.5772560000000  0.4320920000000 1.0
C      1  0.4775140000000  0.5999110000000  0.4312530000000 1.0
C      1  0.5172660000000  0.3879190000000  0.4932870000000 1.0
C      1  0.4296760000000  0.5193010000000  0.4331550000000 1.0
C      1  0.4269580000000  0.4712980000000  0.4398440000000 1.0
C      1  0.5297530000000  0.4202970000000  0.5565740000000 1.0
C      1  0.5063240000000  0.4846250000000  0.5126970000000 1.0
C      1  0.4615930000000  0.5527340000000  0.5348600000000 1.0
C      1  0.5613880000000  0.5443240000000  0.5811980000000 1.0
C      1  0.4664170000000  0.3997030000000  0.5216660000000 1.0
C      1  0.5183890000000  0.4640510000000  0.5293870000000 1.0
C      1  0.5146800000000  0.4464880000000  0.5988440000000 1.0
C      1  0.5613450000000  0.5500970000000  0.4374720000000 1.0
C      1  0.5200040000000  0.5458030000000  0.4739570000000 1.0
C      1  0.5037690000000  0.5546900000000  0.5818400000000 1.0
C      1  0.5002730000000  0.4175860000000  0.5511300000000 1.0
C      1  0.5177490000000  0.5099590000000  0.5168250000000 1.0
C      1  0.4662730000000  0.3992590000000  0.4928630000000 1.0
C      1  0.5362700000000  0.4391880000000  0.5799330000000 1.0
C      1  0.4717160000000  0.4929160000000  0.4478910000000 1.0
C      1  0.4644930000000  0.4482950000000  0.5253260000000 1.0
C      1  0.6079090000000  0.4936180000000  0.4971520000000 1.0
C      1  0.5014680000000  0.4823390000000  0.4838230000000 1.0
C      1  0.4114570000000  0.4974130000000  0.4382020000000 1.0
C      1  0.4619090000000  0.4485450000000  0.4928800000000 1.0
C      1  0.4839500000000  0.5929970000000  0.5038300000000 1.0
C      1  0.4112880000000  0.4513850000000  0.4545750000000 1.0
C      1  0.5087660000000  0.6065050000000  0.5197760000000 1.0
C      1  0.5356060000000  0.4298320000000  0.4334620000000 1.0
C      1  0.4012330000000  0.5605130000000  0.4897190000000 1.0
C      1  0.5904700000000  0.4557980000000  0.4690270000000 1.0
C      1  0.4049460000000  0.5855860000000  0.5023970000000 1.0
C      1  0.5694190000000  0.5371160000000  0.5173060000000 1.0
C      1  0.4237810000000  0.5828500000000  0.4489360000000 1.0
C      1  0.4830090000000  0.4160880000000  0.5755270000000 1.0
C      1  0.4925250000000  0.3948260000000  0.5330540000000 1.0
C      1  0.4444010000000  0.4621970000000  0.4157660000000 1.0
C      1  0.4939610000000  0.5817200000000  0.4751280000000 1.0
C      1  0.5560230000000  0.5736660000000  0.5366820000000 1.0
C      1  0.4034950000000  0.5241910000000  0.5340240000000 1.0
C      1  0.5339740000000  0.6050730000000  0.5056580000000 1.0
C      1  0.4922090000000  0.3982250000000  0.4790920000000 1.0
C      1  0.5477490000000  0.4200190000000  0.5323270000000 1.0
C      1  0.4581630000000  0.4874210000000  0.4035670000000 1.0
C      1  0.5557360000000  0.5205180000000  0.4782580000000 1.0
C      1  0.4131060000000  0.4525280000000  0.5361350000000 1.0
C      1  0.3949430000000  0.4973990000000  0.5323530000000 1.0
C      1  0.4825810000000  0.4598190000000  0.5670180000000 1.0
C      1  0.6028590000000  0.5244650000000  0.4444500000000 1.0
C      1  0.4053560000000  0.4748910000000  0.5174270000000 1.0
C      1  0.4536590000000  0.4711320000000  0.5673220000000 1.0
C      1  0.5607700000000  0.4863700000000  0.5139540000000 1.0
C      1  0.4374320000000  0.4270940000000  0.5850360000000 1.0
C      1  0.5292790000000  0.4596610000000  0.3961000000000 1.0
C      1  0.5331880000000  0.5537210000000  0.5880340000000 1.0
C      1  0.6034680000000  0.4822270000000  0.5228340000000 1.0
C      1  0.4984170000000  0.6037360000000  0.4528660000000 1.0
C      1  0.6131510000000  0.5227470000000  0.4984110000000 1.0
C      1  0.5100640000000  0.5246340000000  0.4579110000000 1.0
C      1  0.4919800000000  0.4470910000000  0.4229770000000 1.0
C      1  0.5627480000000  0.4152890000000  0.4775340000000 1.0
C      1  0.4405060000000  0.5548870000000  0.5101210000000 1.0
C      1  0.4782660000000  0.5075360000000  0.5980660000000 1.0
C      1  0.4545720000000  0.5485750000000  0.5962500000000 1.0
C      1  0.5479560000000  0.5117910000000  0.5232740000000 1.0
C      1  0.5489560000000  0.4651610000000  0.5707530000000 1.0
C      1  0.4946750000000  0.5275070000000  0.5150750000000 1.0
C      1  0.4653920000000  0.5807290000000  0.5613800000000 1.0
C      1  0.5735300000000  0.4335360000000  0.5370030000000 1.0
C      1  0.5537730000000  0.5110480000000  0.3976550000000 1.0
C      1  0.4633410000000  0.4390270000000  0.4236880000000 1.0
C      1  0.4505680000000  0.5579690000000  0.4793610000000 1.0
C      1  0.5779130000000  0.4520390000000  0.4431920000000 1.0
C      1  0.5247000000000  0.5979660000000  0.4384340000000 1.0
C      1  0.5602860000000  0.4820250000000  0.4013470000000 1.0
C      1  0.5126260000000  0.5939700000000  0.5478070000000 1.0
C      1  0.5774690000000  0.5257500000000  0.4021710000000 1.0
C      1  0.4228280000000  0.4261460000000  0.4946730000000 1.0
C      1  0.5713110000000  0.5525160000000  0.5532010000000 1.0
C      1  0.4873520000000  0.4413060000000  0.5904600000000 1.0
C      1  0.5609230000000  0.4918110000000  0.4852510000000 1.0
C      1  0.5263190000000  0.4770720000000  0.5546890000000 1.0
C      1  0.5070920000000  0.4286300000000  0.4430510000000 1.0
C      1  0.5816780000000  0.4353790000000  0.4884160000000 1.0
C      1  0.4842520000000  0.5700450000000  0.5234970000000 1.0
C      1  0.4071530000000  0.4549590000000  0.5634340000000 1.0
C      1  0.5630620000000  0.5750010000000  0.4567640000000 1.0
C      1  0.5098940000000  0.3784120000000  0.5184560000000 1.0
C      1  0.4538820000000  0.5058940000000  0.5029000000000 1.0
C      1  0.4285120000000  0.5375110000000  0.4557380000000 1.0
C      1  0.4569630000000  0.5091750000000  0.4256580000000 1.0
C      1  0.5778040000000  0.4778760000000  0.4265980000000 1.0
C      1  0.4752090000000  0.5240130000000  0.4901100000000 1.0
C      1  0.5488220000000  0.5985630000000  0.4522190000000 1.0
C      1  0.5049320000000  0.4456340000000  0.3967690000000 1.0
C      1  0.5398540000000  0.5895950000000  0.5529210000000 1.0
C      1  0.4511700000000  0.4216690000000  0.5353020000000 1.0
C      1  0.4592300000000  0.5009760000000  0.5296870000000 1.0
C      1  0.4938470000000  0.5781740000000  0.5659220000000 1.0
C      1  0.5388090000000  0.4591850000000  0.4238250000000 1.0
C      1  0.4604680000000  0.4186980000000  0.4464250000000 1.0
C      1  0.4508010000000  0.5878930000000  0.4744280000000 1.0
C      1  0.5279170000000  0.5188070000000  0.5729880000000 1.0
C      1  0.4290860000000  0.4886430000000  0.4993980000000 1.0
C      1  0.5510790000000  0.5134310000000  0.5517680000000 1.0
C      1  0.6034050000000  0.5371870000000  0.4730130000000 1.0
C      1  0.4855000000000  0.4583450000000  0.4776840000000 1.0
C      1  0.5563010000000  0.4867420000000  0.5944690000000 1.0
C      1  0.5831800000000  0.5009630000000  0.4466940000000 1.0
C      1  0.4747330000000  0.5306270000000  0.4179730000000 1.0
C      1  0.4897830000000  0.4896480000000  0.4025620000000 1.0
C      1  0.4461580000000  0.5643900000000  0.5738690000000 1.0
C      1  0.4984450000000  0.5186700000000  0.4034110000000 1.0
C      1  0.5315070000000  0.5013830000000  0.5982980000000 1.0
C      1  0.4538360000000  0.4981690000000  0.5811510000000 1.0
C      1  0.4494310000000  0.4757060000000  0.4577960000000 1.0
C      1  0.5714240000000  0.4589950000000  0.5518550000000 1.0
C      1  0.5670850000000  0.5699090000000  0.4848300000000 1.0
C      1  0.4308550000000  0.5835220000000  0.5134810000000 1.0
C      1  0.4031260000000  0.4441110000000  0.4812730000000 1.0
C      1  0.4313430000000  0.4528510000000  0.5768310000000 1.0
C      1  0.5288740000000  0.5237560000000  0.4117230000000 1.0
C      1  0.5412500000000  0.4527550000000  0.4841260000000 1.0
C      1  0.5297000000000  0.5112600000000  0.4394160000000 1.0
C      1  0.3993820000000  0.5050070000000  0.4625830000000 1.0
C      1  0.5176890000000  0.5719580000000  0.4282590000000 1.0
C      1  0.4104690000000  0.5595040000000  0.4608230000000 1.0
C      1  0.4291830000000  0.5152180000000  0.5812990000000 1.0
C      1  0.4879640000000  0.4061780000000  0.4505070000000 1.0
C      1  0.4902110000000  0.5747550000000  0.4202460000000 1.0
C      1  0.4939490000000  0.4769530000000  0.4304040000000 1.0
C      1  0.5279360000000  0.4773870000000  0.4707610000000 1.0
C      1  0.4233870000000  0.4271250000000  0.5244720000000 1.0
C      1  0.5804010000000  0.5076000000000  0.5596270000000 1.0
C      1  0.5569880000000  0.5201500000000  0.4497150000000 1.0
C      1  0.4505270000000  0.4212840000000  0.4806840000000 1.0
C      1  0.5404810000000  0.4076600000000  0.4993910000000 1.0
C      1  0.5885860000000  0.4852700000000  0.4747360000000 1.0
C      1  0.4826990000000  0.5391020000000  0.5980470000000 1.0
C      1  0.4922400000000  0.4456750000000  0.5399270000000 1.0
C      1  0.4197500000000  0.5325360000000  0.5577730000000 1.0
C      1  0.3877950000000  0.4626440000000  0.4975470000000 1.0
C      1  0.5244640000000  0.5601000000000  0.4983270000000 1.0
C      1  0.5064600000000  0.5529490000000  0.5190730000000 1.0
C      1  0.5992840000000  0.5354990000000  0.5235360000000 1.0
END
