TITL C-951348-1603-666 -1.83779303319372e-06 125000 -945.767702990941 0 0 152 (C1) n - 1
REM
REM in /home/bkarasulu/work/CARBON/AIRSS/Generating-Clusters/EDIP-Nigel-Params/with-SteepDescent/Only-C1/SD-CG/HFTN-CG
REM
REM
REM
REM
REM
REM ./C.cell (11c1c37f851c82e70ff6c80c92926a4b)
REM
REM compiler GCC version 9.2.1 20190827 (Red Hat 9.2.1-1)
REM options -cpp -mtune=generic -march=x86-64 -g -O0 -fpre-include=/usr/include/finclude/math-vector-fortran.h
REM seed -903709721 -1801860930 1954776513 143396542 1628553206 132766332 1012124029 1363863864 -1676021397 185739588 1636505939 1277956082 -1762398030 -2022934287 2100125778 775286013 -531577233 -1258859512 -1345514166 -1532303264 -71807670 1118899961 305635688 -101330787 -1588050559 377310495 1873537464 344751001 386513168 -152966237 -740384513 -424703316 1890631367
REM
CELL 1.54180   50.00000   50.00000   50.00000   90.00000   90.00000   90.00000
LATT -1
SFAC C  
C      1  0.5279910000000  0.5356130000000  0.5845920000000 1.0
C      1  0.5249730000000  0.4744060000000  0.5009350000000 1.0
C      1  0.5729290000000  0.5330730000000  0.5632220000000 1.0
C      1  0.4025640000000  0.4957430000000  0.4669400000000 1.0
C      1  0.4676020000000  0.4604000000000  0.5712360000000 1.0
C      1  0.5189500000000  0.5921840000000  0.5381590000000 1.0
C      1  0.5852870000000  0.4545930000000  0.4414110000000 1.0
C      1  0.5951030000000  0.5168840000000  0.5519290000000 1.0
C      1  0.5183600000000  0.4890510000000  0.3859150000000 1.0
C      1  0.4948980000000  0.5915470000000  0.5224200000000 1.0
C      1  0.4937170000000  0.4704980000000  0.5510220000000 1.0
C      1  0.5287620000000  0.5217000000000  0.4874000000000 1.0
C      1  0.5775250000000  0.4678460000000  0.5594050000000 1.0
C      1  0.4289490000000  0.4839090000000  0.4588750000000 1.0
C      1  0.5391750000000  0.5861480000000  0.4908310000000 1.0
C      1  0.4554530000000  0.4310840000000  0.5296320000000 1.0
C      1  0.5583420000000  0.4365360000000  0.4805740000000 1.0
C      1  0.5496030000000  0.5475120000000  0.5187160000000 1.0
C      1  0.5027530000000  0.4889920000000  0.4348100000000 1.0
C      1  0.5984810000000  0.4509740000000  0.4673050000000 1.0
C      1  0.5888100000000  0.4911590000000  0.4075760000000 1.0
C      1  0.4537390000000  0.5588170000000  0.4270360000000 1.0
C      1  0.4020110000000  0.5171970000000  0.5140420000000 1.0
C      1  0.4782110000000  0.5226990000000  0.5984610000000 1.0
C      1  0.5942040000000  0.5408020000000  0.4661710000000 1.0
C      1  0.5850410000000  0.4989880000000  0.4560960000000 1.0
C      1  0.4751200000000  0.5886650000000  0.4762950000000 1.0
C      1  0.4059130000000  0.5623140000000  0.4866290000000 1.0
C      1  0.4279300000000  0.4543070000000  0.4612050000000 1.0
C      1  0.5591080000000  0.5740270000000  0.4740180000000 1.0
C      1  0.4287280000000  0.5682680000000  0.4714830000000 1.0
C      1  0.4961840000000  0.4275040000000  0.5615270000000 1.0
C      1  0.5140160000000  0.5474950000000  0.4853920000000 1.0
C      1  0.5341420000000  0.4138100000000  0.5426760000000 1.0
C      1  0.4294720000000  0.5580380000000  0.4438580000000 1.0
C      1  0.5735080000000  0.4782280000000  0.4765330000000 1.0
C      1  0.4541720000000  0.4633670000000  0.5220800000000 1.0
C      1  0.4286530000000  0.5460370000000  0.5537440000000 1.0
C      1  0.4083870000000  0.5268740000000  0.5620150000000 1.0
C      1  0.4945760000000  0.4677330000000  0.6139420000000 1.0
C      1  0.5549030000000  0.5247820000000  0.5001090000000 1.0
C      1  0.5136210000000  0.5402340000000  0.5380290000000 1.0
C      1  0.4350670000000  0.5244340000000  0.4760380000000 1.0
C      1  0.4894760000000  0.4556960000000  0.4819330000000 1.0
C      1  0.5267830000000  0.5652370000000  0.5079620000000 1.0
C      1  0.4070920000000  0.5251110000000  0.4636040000000 1.0
C      1  0.5784680000000  0.5349220000000  0.4425080000000 1.0
C      1  0.4847810000000  0.5446340000000  0.5429930000000 1.0
C      1  0.4206330000000  0.4544270000000  0.5547050000000 1.0
C      1  0.4532190000000  0.5133820000000  0.4564390000000 1.0
C      1  0.5183260000000  0.6005130000000  0.4777840000000 1.0
C      1  0.5576630000000  0.4685230000000  0.5802490000000 1.0
C      1  0.5195410000000  0.5617970000000  0.4583560000000 1.0
C      1  0.4640990000000  0.3885440000000  0.5049290000000 1.0
C      1  0.4898010000000  0.4272250000000  0.5322190000000 1.0
C      1  0.5899200000000  0.4558620000000  0.5144270000000 1.0
C      1  0.4953470000000  0.5016480000000  0.5541310000000 1.0
C      1  0.4316060000000  0.5028040000000  0.4192980000000 1.0
C      1  0.5209820000000  0.4931850000000  0.6020970000000 1.0
C      1  0.5494010000000  0.4939150000000  0.5929940000000 1.0
C      1  0.5449750000000  0.4793810000000  0.3869840000000 1.0
C      1  0.4974350000000  0.4374150000000  0.4589920000000 1.0
C      1  0.5239260000000  0.4220350000000  0.5686770000000 1.0
C      1  0.5018520000000  0.4549020000000  0.5077450000000 1.0
C      1  0.4945060000000  0.5830060000000  0.4524980000000 1.0
C      1  0.4829620000000  0.4696780000000  0.5242560000000 1.0
C      1  0.4945900000000  0.5994860000000  0.4941320000000 1.0
C      1  0.4926460000000  0.5684170000000  0.4030740000000 1.0
C      1  0.4592970000000  0.4996150000000  0.5984260000000 1.0
C      1  0.4744310000000  0.4459450000000  0.4413260000000 1.0
C      1  0.5381200000000  0.4321590000000  0.5014160000000 1.0
C      1  0.4987260000000  0.5192720000000  0.4372270000000 1.0
C      1  0.5221880000000  0.5369440000000  0.4400960000000 1.0
C      1  0.5608350000000  0.4926510000000  0.4079520000000 1.0
C      1  0.6059230000000  0.5221970000000  0.5262350000000 1.0
C      1  0.4140570000000  0.5105550000000  0.5836500000000 1.0
C      1  0.4385720000000  0.4983240000000  0.5774740000000 1.0
C      1  0.4731770000000  0.4744050000000  0.5964880000000 1.0
C      1  0.4447920000000  0.4083320000000  0.5125320000000 1.0
C      1  0.4255880000000  0.5595820000000  0.5284480000000 1.0
C      1  0.5529100000000  0.5756290000000  0.4463010000000 1.0
C      1  0.5323760000000  0.5506070000000  0.5591280000000 1.0
C      1  0.5401090000000  0.4917180000000  0.5388560000000 1.0
C      1  0.5693090000000  0.5620930000000  0.5542140000000 1.0
C      1  0.5952590000000  0.4820720000000  0.4335090000000 1.0
C      1  0.4970520000000  0.4122520000000  0.4757760000000 1.0
C      1  0.4088190000000  0.5388190000000  0.4380780000000 1.0
C      1  0.5952450000000  0.4896300000000  0.5582920000000 1.0
C      1  0.4788490000000  0.5255240000000  0.4580940000000 1.0
C      1  0.4714840000000  0.3976230000000  0.4789440000000 1.0
C      1  0.4058430000000  0.5480300000000  0.5106940000000 1.0
C      1  0.5273910000000  0.4638690000000  0.5481360000000 1.0
C      1  0.4783390000000  0.5751110000000  0.4276880000000 1.0
C      1  0.4722010000000  0.4797880000000  0.4783230000000 1.0
C      1  0.4470750000000  0.4104520000000  0.4669670000000 1.0
C      1  0.5105020000000  0.4059450000000  0.5247530000000 1.0
C      1  0.4736220000000  0.5675140000000  0.5596780000000 1.0
C      1  0.5179470000000  0.4551090000000  0.6040110000000 1.0
C      1  0.4532830000000  0.4853660000000  0.4228660000000 1.0
C      1  0.5233790000000  0.4415850000000  0.4422940000000 1.0
C      1  0.4650790000000  0.5481510000000  0.5925790000000 1.0
C      1  0.5343360000000  0.4492160000000  0.5794890000000 1.0
C      1  0.4281600000000  0.4163930000000  0.4895160000000 1.0
C      1  0.4467140000000  0.5594680000000  0.5724880000000 1.0
C      1  0.5370510000000  0.5446990000000  0.4157790000000 1.0
C      1  0.6056870000000  0.5144470000000  0.4742850000000 1.0
C      1  0.4433140000000  0.4745570000000  0.5575650000000 1.0
C      1  0.5309550000000  0.4844830000000  0.4491010000000 1.0
C      1  0.4653480000000  0.5194060000000  0.5121710000000 1.0
C      1  0.4717490000000  0.5183420000000  0.5423220000000 1.0
C      1  0.4043240000000  0.4566210000000  0.5321540000000 1.0
C      1  0.4551580000000  0.5442000000000  0.4019080000000 1.0
C      1  0.3961700000000  0.5129270000000  0.5413790000000 1.0
C      1  0.5138410000000  0.5020270000000  0.5041340000000 1.0
C      1  0.5518800000000  0.4372090000000  0.4509420000000 1.0
C      1  0.4558820000000  0.4327940000000  0.5780170000000 1.0
C      1  0.4691030000000  0.5852690000000  0.5350210000000 1.0
C      1  0.5826430000000  0.4843000000000  0.5046950000000 1.0
C      1  0.5747700000000  0.5622880000000  0.5244200000000 1.0
C      1  0.5186920000000  0.4102180000000  0.4967940000000 1.0
C      1  0.4770370000000  0.4146480000000  0.5779330000000 1.0
C      1  0.5772460000000  0.5537250000000  0.4865300000000 1.0
C      1  0.4482220000000  0.4355420000000  0.4504730000000 1.0
C      1  0.5192530000000  0.4490750000000  0.4134400000000 1.0
C      1  0.5545620000000  0.5219180000000  0.5840270000000 1.0
C      1  0.4474020000000  0.5165000000000  0.4007200000000 1.0
C      1  0.4048080000000  0.4629570000000  0.5050930000000 1.0
C      1  0.4502370000000  0.5788660000000  0.4878590000000 1.0
C      1  0.4181810000000  0.4443720000000  0.4864920000000 1.0
C      1  0.4377890000000  0.5084130000000  0.5019740000000 1.0
C      1  0.5358770000000  0.5798760000000  0.5575470000000 1.0
C      1  0.4445930000000  0.4782960000000  0.4939270000000 1.0
C      1  0.4469090000000  0.5768590000000  0.5171100000000 1.0
C      1  0.5589030000000  0.4984340000000  0.5158750000000 1.0
C      1  0.5737830000000  0.4476100000000  0.5376430000000 1.0
C      1  0.5623690000000  0.5548790000000  0.4284080000000 1.0
C      1  0.4841990000000  0.5393790000000  0.4845850000000 1.0
C      1  0.4769430000000  0.5524140000000  0.3861150000000 1.0
C      1  0.4380660000000  0.4303160000000  0.5550960000000 1.0
C      1  0.4853320000000  0.5027950000000  0.4952120000000 1.0
C      1  0.5203780000000  0.5641400000000  0.4039100000000 1.0
C      1  0.5866350000000  0.4384550000000  0.4901730000000 1.0
C      1  0.4742750000000  0.4765980000000  0.4431420000000 1.0
C      1  0.6043040000000  0.5052950000000  0.5032490000000 1.0
C      1  0.5060130000000  0.4755160000000  0.4076920000000 1.0
C      1  0.5440940000000  0.4394950000000  0.5309740000000 1.0
C      1  0.5053880000000  0.5140810000000  0.5852090000000 1.0
C      1  0.5419520000000  0.4716160000000  0.4749030000000 1.0
C      1  0.5522670000000  0.4730960000000  0.4300720000000 1.0
C      1  0.3979830000000  0.4905020000000  0.4958800000000 1.0
C      1  0.5168720000000  0.5097800000000  0.5342750000000 1.0
C      1  0.5436120000000  0.4525990000000  0.3985590000000 1.0
END
