TITL C-951341-1326-387 -4.48762921846482e-06 125000 -635.840431773424 0 0 104 (C1) n - 1
REM
REM in /home/bkarasulu/work/CARBON/AIRSS/Generating-Clusters/EDIP-Nigel-Params/with-SteepDescent/Only-C1/SD-CG/HFTN-CG
REM
REM
REM
REM
REM
REM ./C.cell (11c1c37f851c82e70ff6c80c92926a4b)
REM
REM compiler GCC version 9.2.1 20190827 (Red Hat 9.2.1-1)
REM options -cpp -mtune=generic -march=x86-64 -g -O0 -fpre-include=/usr/include/finclude/math-vector-fortran.h
REM seed 179408520 -1268146894 -1438617182 1918338384 -2107948827 1290479496 1185686556 -1354970354 -1498092735 814754403 -217270784 944015944 -1498683964 418442656 1112249284 1727772986 -1391761201 1540137857 1330579255 -1094593964 1124551558 520964555 1376031216 1462239653 467531370 1880843720 273516123 -1371678091 1128818563 -515916795 -1461896270 -1794045977 -1165079745
REM
CELL 1.54180   50.00000   50.00000   50.00000   90.00000   90.00000   90.00000
LATT -1
SFAC C  
C      1  0.4905140000000  0.5764280000000  0.4698840000000 1.0
C      1  0.5393200000000  0.5405890000000  0.4196580000000 1.0
C      1  0.4631450000000  0.4738900000000  0.5031500000000 1.0
C      1  0.4611010000000  0.4345070000000  0.5373160000000 1.0
C      1  0.4616770000000  0.5723290000000  0.4740140000000 1.0
C      1  0.5172960000000  0.5175770000000  0.5782590000000 1.0
C      1  0.5513540000000  0.5147480000000  0.4274930000000 1.0
C      1  0.5508690000000  0.4332640000000  0.4620090000000 1.0
C      1  0.4989070000000  0.5351860000000  0.5319210000000 1.0
C      1  0.5264100000000  0.4962470000000  0.5201350000000 1.0
C      1  0.4324710000000  0.4672070000000  0.4617940000000 1.0
C      1  0.4567360000000  0.5202500000000  0.5860190000000 1.0
C      1  0.5101890000000  0.5383970000000  0.4202480000000 1.0
C      1  0.4961520000000  0.4152970000000  0.4701130000000 1.0
C      1  0.4948340000000  0.5598560000000  0.4347470000000 1.0
C      1  0.4862230000000  0.4146870000000  0.4978340000000 1.0
C      1  0.4874270000000  0.4760690000000  0.5814650000000 1.0
C      1  0.5268390000000  0.4491200000000  0.5728990000000 1.0
C      1  0.4267730000000  0.5088630000000  0.4914470000000 1.0
C      1  0.4972920000000  0.4496330000000  0.5752220000000 1.0
C      1  0.4289150000000  0.5315110000000  0.5429430000000 1.0
C      1  0.4962240000000  0.4928390000000  0.4179330000000 1.0
C      1  0.4409740000000  0.4310090000000  0.4907400000000 1.0
C      1  0.4999490000000  0.5645780000000  0.5229410000000 1.0
C      1  0.4598100000000  0.5469690000000  0.5166060000000 1.0
C      1  0.5285030000000  0.4740730000000  0.4987410000000 1.0
C      1  0.4914000000000  0.5183770000000  0.4579640000000 1.0
C      1  0.5043040000000  0.5157750000000  0.5102840000000 1.0
C      1  0.5636280000000  0.4805680000000  0.4648420000000 1.0
C      1  0.4848350000000  0.4315050000000  0.5550320000000 1.0
C      1  0.5118400000000  0.5321460000000  0.4849850000000 1.0
C      1  0.5482070000000  0.5608800000000  0.4391830000000 1.0
C      1  0.4816230000000  0.5208880000000  0.5520470000000 1.0
C      1  0.4352550000000  0.4804200000000  0.4901990000000 1.0
C      1  0.5603420000000  0.4366650000000  0.4892980000000 1.0
C      1  0.4517150000000  0.4996240000000  0.4318900000000 1.0
C      1  0.4999530000000  0.5391550000000  0.5844720000000 1.0
C      1  0.5776010000000  0.5108640000000  0.5323420000000 1.0
C      1  0.4654400000000  0.5500800000000  0.4341670000000 1.0
C      1  0.4404520000000  0.5296770000000  0.4724720000000 1.0
C      1  0.4620320000000  0.5654490000000  0.5738220000000 1.0
C      1  0.4564720000000  0.5184030000000  0.5313730000000 1.0
C      1  0.4962300000000  0.4609260000000  0.5326650000000 1.0
C      1  0.5940010000000  0.5051690000000  0.5099500000000 1.0
C      1  0.5639550000000  0.5579840000000  0.5230960000000 1.0
C      1  0.4491310000000  0.4989530000000  0.5706220000000 1.0
C      1  0.5736480000000  0.4743230000000  0.5191170000000 1.0
C      1  0.4495940000000  0.4326130000000  0.4627420000000 1.0
C      1  0.4439690000000  0.4801690000000  0.5501250000000 1.0
C      1  0.4761500000000  0.4689150000000  0.4578800000000 1.0
C      1  0.5001530000000  0.4965400000000  0.5646470000000 1.0
C      1  0.5763180000000  0.5574150000000  0.5480080000000 1.0
C      1  0.5421150000000  0.4696320000000  0.5851070000000 1.0
C      1  0.5369660000000  0.4481430000000  0.5445520000000 1.0
C      1  0.4743100000000  0.5797370000000  0.5290030000000 1.0
C      1  0.4730950000000  0.4792720000000  0.4271390000000 1.0
C      1  0.5375510000000  0.4579920000000  0.4260880000000 1.0
C      1  0.5427890000000  0.5237930000000  0.5645040000000 1.0
C      1  0.4307060000000  0.5601490000000  0.5373640000000 1.0
C      1  0.4805290000000  0.4986090000000  0.5002220000000 1.0
C      1  0.5719490000000  0.5477710000000  0.4537810000000 1.0
C      1  0.5588370000000  0.4567700000000  0.4451160000000 1.0
C      1  0.4530180000000  0.5755720000000  0.5491650000000 1.0
C      1  0.5094070000000  0.4510750000000  0.5070840000000 1.0
C      1  0.5253030000000  0.5750690000000  0.4525400000000 1.0
C      1  0.4793060000000  0.4518020000000  0.4872450000000 1.0
C      1  0.5169410000000  0.4401310000000  0.4337390000000 1.0
C      1  0.5191320000000  0.4843360000000  0.4731000000000 1.0
C      1  0.5868510000000  0.5009120000000  0.4606070000000 1.0
C      1  0.5224430000000  0.5784110000000  0.5350030000000 1.0
C      1  0.5403870000000  0.5006320000000  0.4599500000000 1.0
C      1  0.5776160000000  0.5209160000000  0.4397740000000 1.0
C      1  0.5538000000000  0.5020620000000  0.5475560000000 1.0
C      1  0.5214070000000  0.4286590000000  0.4595990000000 1.0
C      1  0.4617070000000  0.5230360000000  0.4486760000000 1.0
C      1  0.5340690000000  0.5757380000000  0.4890810000000 1.0
C      1  0.4129500000000  0.4591940000000  0.5202550000000 1.0
C      1  0.5077440000000  0.5625850000000  0.4914190000000 1.0
C      1  0.5473890000000  0.4195140000000  0.5069170000000 1.0
C      1  0.4722470000000  0.5437110000000  0.5878430000000 1.0
C      1  0.4197160000000  0.5097170000000  0.5218000000000 1.0
C      1  0.5269080000000  0.4306080000000  0.5217890000000 1.0
C      1  0.5651540000000  0.4593160000000  0.5435620000000 1.0
C      1  0.5076260000000  0.5128630000000  0.4335110000000 1.0
C      1  0.4753480000000  0.4253330000000  0.4518160000000 1.0
C      1  0.4073520000000  0.4579170000000  0.4743490000000 1.0
C      1  0.4912420000000  0.4923760000000  0.4722620000000 1.0
C      1  0.5404260000000  0.5229240000000  0.4801050000000 1.0
C      1  0.5662970000000  0.5391180000000  0.4831720000000 1.0
C      1  0.5902280000000  0.5189660000000  0.4847020000000 1.0
C      1  0.4633710000000  0.4646550000000  0.5323480000000 1.0
C      1  0.4601690000000  0.4199720000000  0.5105350000000 1.0
C      1  0.4459760000000  0.5670050000000  0.4491510000000 1.0
C      1  0.5156130000000  0.4807410000000  0.5439260000000 1.0
C      1  0.5611410000000  0.4786290000000  0.5656920000000 1.0
C      1  0.4144940000000  0.4425510000000  0.4976290000000 1.0
C      1  0.5580250000000  0.4663460000000  0.4940420000000 1.0
C      1  0.4239230000000  0.5495770000000  0.4578130000000 1.0
C      1  0.4289990000000  0.4866960000000  0.4410700000000 1.0
C      1  0.4569430000000  0.5476600000000  0.4881020000000 1.0
C      1  0.5436420000000  0.5769840000000  0.5164140000000 1.0
C      1  0.4878110000000  0.4431360000000  0.4312220000000 1.0
C      1  0.4192180000000  0.4824900000000  0.5349080000000 1.0
C      1  0.5516570000000  0.5505930000000  0.5588980000000 1.0
END
