TITL C-950532-2784-566 -4.95466698086766e-06 125000 -982.24626346278 0 0 158 (C1) n - 1
REM
REM in /home/bkarasulu/work/CARBON/AIRSS/Generating-Clusters/EDIP-Nigel-Params/with-SteepDescent/Only-C1/SD-CG/HFTN-CG
REM
REM
REM
REM
REM
REM ./C.cell (11c1c37f851c82e70ff6c80c92926a4b)
REM
REM compiler GCC version 9.2.1 20190827 (Red Hat 9.2.1-1)
REM options -cpp -mtune=generic -march=x86-64 -g -O0 -fpre-include=/usr/include/finclude/math-vector-fortran.h
REM seed 848096641 -201149879 145822637 644975272 1654105270 -2124760664 421512958 -2078547110 -1401614418 1526035737 -1227644234 -1662261429 -1243806611 -1748976100 -1812687369 -2144415401 -275253333 -1760486371 -154634363 -760041134 192320791 -512400343 -1716632132 1042260695 -1193204855 1306558589 2143963581 -1180083078 -548187216 1151384569 1245958541 872750346 1062494726
REM
CELL 1.54180   50.00000   50.00000   50.00000   90.00000   90.00000   90.00000
LATT -1
SFAC C  
C      1  0.5272940000000  0.5697770000000  0.4215320000000 1.0
C      1  0.5031850000000  0.4646030000000  0.4816970000000 1.0
C      1  0.5333290000000  0.4810310000000  0.4538580000000 1.0
C      1  0.5458630000000  0.4543100000000  0.5446380000000 1.0
C      1  0.4735400000000  0.5161720000000  0.4594920000000 1.0
C      1  0.5685080000000  0.5594770000000  0.4929390000000 1.0
C      1  0.5754620000000  0.4570330000000  0.5521290000000 1.0
C      1  0.4130080000000  0.4523110000000  0.5682820000000 1.0
C      1  0.4304720000000  0.4369160000000  0.4392240000000 1.0
C      1  0.4783070000000  0.5046130000000  0.4077140000000 1.0
C      1  0.4552620000000  0.4005890000000  0.4915650000000 1.0
C      1  0.4642160000000  0.4608270000000  0.4494610000000 1.0
C      1  0.4789840000000  0.4788080000000  0.4922310000000 1.0
C      1  0.4339400000000  0.4884360000000  0.4722970000000 1.0
C      1  0.4129770000000  0.5115760000000  0.5218350000000 1.0
C      1  0.4927520000000  0.4762840000000  0.6080080000000 1.0
C      1  0.5159780000000  0.5105470000000  0.5117280000000 1.0
C      1  0.5491090000000  0.5586200000000  0.5843900000000 1.0
C      1  0.4958660000000  0.4474250000000  0.5360080000000 1.0
C      1  0.5940110000000  0.5107210000000  0.4854020000000 1.0
C      1  0.5232300000000  0.4421610000000  0.5883820000000 1.0
C      1  0.4952810000000  0.6013310000000  0.4408420000000 1.0
C      1  0.4362340000000  0.4128550000000  0.5124850000000 1.0
C      1  0.4922580000000  0.5698290000000  0.5567880000000 1.0
C      1  0.5377770000000  0.4143110000000  0.4578820000000 1.0
C      1  0.5437460000000  0.5688150000000  0.4449640000000 1.0
C      1  0.5694170000000  0.5541280000000  0.4435920000000 1.0
C      1  0.4416370000000  0.4744590000000  0.5204200000000 1.0
C      1  0.5286690000000  0.4516140000000  0.4944980000000 1.0
C      1  0.5308880000000  0.5237270000000  0.4824220000000 1.0
C      1  0.4601330000000  0.4591730000000  0.5036630000000 1.0
C      1  0.4509930000000  0.4832520000000  0.5780810000000 1.0
C      1  0.4608850000000  0.5794130000000  0.4684190000000 1.0
C      1  0.6048880000000  0.4813470000000  0.4874970000000 1.0
C      1  0.4941830000000  0.4587030000000  0.4542140000000 1.0
C      1  0.5434660000000  0.5072560000000  0.4602420000000 1.0
C      1  0.4588050000000  0.4190440000000  0.5350830000000 1.0
C      1  0.5435400000000  0.4076630000000  0.4315220000000 1.0
C      1  0.5526300000000  0.4538790000000  0.4175980000000 1.0
C      1  0.4086760000000  0.5138980000000  0.4366120000000 1.0
C      1  0.5771790000000  0.4287160000000  0.4806120000000 1.0
C      1  0.4496410000000  0.6027620000000  0.5088310000000 1.0
C      1  0.4904600000000  0.5489520000000  0.5294090000000 1.0
C      1  0.5836540000000  0.5573230000000  0.4680910000000 1.0
C      1  0.4574470000000  0.4324250000000  0.5640980000000 1.0
C      1  0.4503610000000  0.5023850000000  0.4158760000000 1.0
C      1  0.4629950000000  0.4876870000000  0.4671370000000 1.0
C      1  0.4029030000000  0.5387600000000  0.5059560000000 1.0
C      1  0.5302610000000  0.4657600000000  0.5698190000000 1.0
C      1  0.4869370000000  0.5922050000000  0.5369490000000 1.0
C      1  0.5536540000000  0.5338290000000  0.4995230000000 1.0
C      1  0.4976930000000  0.4492410000000  0.5997720000000 1.0
C      1  0.4930050000000  0.5176190000000  0.5544300000000 1.0
C      1  0.5180810000000  0.5372590000000  0.5253650000000 1.0
C      1  0.5053460000000  0.5964800000000  0.5146900000000 1.0
C      1  0.5405000000000  0.4678810000000  0.5181860000000 1.0
C      1  0.6076990000000  0.5331550000000  0.5070820000000 1.0
C      1  0.5935420000000  0.4635300000000  0.5088770000000 1.0
C      1  0.4955720000000  0.5074180000000  0.4327160000000 1.0
C      1  0.5324540000000  0.4932530000000  0.5285850000000 1.0
C      1  0.4445700000000  0.4463150000000  0.4797670000000 1.0
C      1  0.3954360000000  0.5345030000000  0.4544740000000 1.0
C      1  0.5751140000000  0.4897440000000  0.5732810000000 1.0
C      1  0.5379000000000  0.5358480000000  0.5493430000000 1.0
C      1  0.4478160000000  0.5330880000000  0.4622520000000 1.0
C      1  0.5898560000000  0.4756210000000  0.5342360000000 1.0
C      1  0.4861190000000  0.4776630000000  0.3969460000000 1.0
C      1  0.5738290000000  0.5075280000000  0.4562370000000 1.0
C      1  0.3990150000000  0.5192030000000  0.4799050000000 1.0
C      1  0.4753650000000  0.4354530000000  0.4219310000000 1.0
C      1  0.5789320000000  0.5036120000000  0.5313840000000 1.0
C      1  0.4379830000000  0.5341530000000  0.5820540000000 1.0
C      1  0.5559260000000  0.5312850000000  0.5898030000000 1.0
C      1  0.4130700000000  0.5158040000000  0.5510340000000 1.0
C      1  0.5502870000000  0.5067750000000  0.5485590000000 1.0
C      1  0.4871480000000  0.4378170000000  0.5653150000000 1.0
C      1  0.5022120000000  0.5548850000000  0.4468040000000 1.0
C      1  0.4866430000000  0.4978420000000  0.5154610000000 1.0
C      1  0.3977100000000  0.4857680000000  0.5101070000000 1.0
C      1  0.4407310000000  0.4565450000000  0.5684920000000 1.0
C      1  0.4867620000000  0.5281730000000  0.4836750000000 1.0
C      1  0.5703100000000  0.5095320000000  0.5031370000000 1.0
C      1  0.5042830000000  0.5359600000000  0.5997030000000 1.0
C      1  0.5353120000000  0.4296470000000  0.4162680000000 1.0
C      1  0.4535170000000  0.4201460000000  0.4407480000000 1.0
C      1  0.4323220000000  0.5240350000000  0.4222970000000 1.0
C      1  0.4826970000000  0.3985060000000  0.5351040000000 1.0
C      1  0.5028350000000  0.4877840000000  0.5613870000000 1.0
C      1  0.5376900000000  0.5084430000000  0.5910030000000 1.0
C      1  0.5828630000000  0.4356050000000  0.5083340000000 1.0
C      1  0.4421270000000  0.4748550000000  0.4141350000000 1.0
C      1  0.5802130000000  0.4794090000000  0.4476650000000 1.0
C      1  0.4622630000000  0.5176200000000  0.5388400000000 1.0
C      1  0.5214490000000  0.5220140000000  0.4247720000000 1.0
C      1  0.5721900000000  0.5265050000000  0.4327610000000 1.0
C      1  0.5493870000000  0.5838180000000  0.4935780000000 1.0
C      1  0.4922110000000  0.4767550000000  0.5368930000000 1.0
C      1  0.5953370000000  0.5595550000000  0.5051910000000 1.0
C      1  0.5092680000000  0.5434960000000  0.4738890000000 1.0
C      1  0.5107180000000  0.4678640000000  0.4115460000000 1.0
C      1  0.4632330000000  0.5465050000000  0.5872420000000 1.0
C      1  0.4302350000000  0.5151490000000  0.4809540000000 1.0
C      1  0.4597130000000  0.4219260000000  0.4700520000000 1.0
C      1  0.4661670000000  0.5687400000000  0.5700950000000 1.0
C      1  0.4802700000000  0.5763020000000  0.4452440000000 1.0
C      1  0.4429300000000  0.5042010000000  0.5159560000000 1.0
C      1  0.4741200000000  0.4390400000000  0.5195380000000 1.0
C      1  0.4809470000000  0.4869090000000  0.5836620000000 1.0
C      1  0.5392460000000  0.4780070000000  0.4044500000000 1.0
C      1  0.4860930000000  0.5482620000000  0.4084130000000 1.0
C      1  0.4073630000000  0.5597090000000  0.4616230000000 1.0
C      1  0.5918630000000  0.5381580000000  0.5561660000000 1.0
C      1  0.5109090000000  0.6018560000000  0.4649130000000 1.0
C      1  0.4189910000000  0.5590400000000  0.4883260000000 1.0
C      1  0.4051960000000  0.4517500000000  0.5426530000000 1.0
C      1  0.5978830000000  0.4393510000000  0.4650030000000 1.0
C      1  0.5035510000000  0.4095140000000  0.4924750000000 1.0
C      1  0.6036800000000  0.5212450000000  0.5349190000000 1.0
C      1  0.5554140000000  0.4620540000000  0.4468270000000 1.0
C      1  0.4714380000000  0.5436450000000  0.5044520000000 1.0
C      1  0.5490640000000  0.4833680000000  0.5849510000000 1.0
C      1  0.3905010000000  0.4894500000000  0.4814530000000 1.0
C      1  0.5090540000000  0.5414300000000  0.5692880000000 1.0
C      1  0.4791400000000  0.5427950000000  0.6100310000000 1.0
C      1  0.5149440000000  0.5462270000000  0.4089950000000 1.0
C      1  0.5071560000000  0.4384490000000  0.4170160000000 1.0
C      1  0.4665940000000  0.5638130000000  0.4217390000000 1.0
C      1  0.5707820000000  0.5544870000000  0.5449620000000 1.0
C      1  0.4409960000000  0.5097420000000  0.5631140000000 1.0
C      1  0.4644620000000  0.4585860000000  0.4052550000000 1.0
C      1  0.4948850000000  0.6053370000000  0.4891840000000 1.0
C      1  0.5129470000000  0.5088870000000  0.6054070000000 1.0
C      1  0.5503310000000  0.4385740000000  0.4704100000000 1.0
C      1  0.4654800000000  0.6028080000000  0.4854220000000 1.0
C      1  0.5130700000000  0.4070720000000  0.5486010000000 1.0
C      1  0.4232110000000  0.4634240000000  0.4326670000000 1.0
C      1  0.5173000000000  0.4158270000000  0.5761830000000 1.0
C      1  0.5577560000000  0.5730670000000  0.5616320000000 1.0
C      1  0.6024850000000  0.4669830000000  0.4617870000000 1.0
C      1  0.5664530000000  0.4245150000000  0.5324460000000 1.0
C      1  0.5804720000000  0.5202700000000  0.5778100000000 1.0
C      1  0.5078000000000  0.4792790000000  0.4386720000000 1.0
C      1  0.5187850000000  0.3998440000000  0.4715580000000 1.0
C      1  0.4581420000000  0.5899550000000  0.5319370000000 1.0
C      1  0.5336710000000  0.5916370000000  0.5179380000000 1.0
C      1  0.5164180000000  0.4293520000000  0.5110740000000 1.0
C      1  0.4237620000000  0.5505810000000  0.5608070000000 1.0
C      1  0.5421640000000  0.5883220000000  0.5444890000000 1.0
C      1  0.4119770000000  0.4853990000000  0.4515120000000 1.0
C      1  0.4148200000000  0.4613540000000  0.5175760000000 1.0
C      1  0.4823350000000  0.3929820000000  0.5048560000000 1.0
C      1  0.5451140000000  0.5058060000000  0.4160250000000 1.0
C      1  0.5367130000000  0.5874630000000  0.4670490000000 1.0
C      1  0.4416760000000  0.5506780000000  0.4287480000000 1.0
C      1  0.4218030000000  0.4367350000000  0.4988870000000 1.0
C      1  0.4438740000000  0.5713630000000  0.5515200000000 1.0
C      1  0.5363810000000  0.4145740000000  0.5288750000000 1.0
C      1  0.4500460000000  0.5554580000000  0.4832070000000 1.0
END
