TITL C-950532-2784-79 6.16573067699002e-07 125000 -787.071171876816 0 0 126 (C1) n - 1
REM
REM in /home/bkarasulu/work/CARBON/AIRSS/Generating-Clusters/EDIP-Nigel-Params/with-SteepDescent/Only-C1/SD-CG/HFTN-CG
REM
REM
REM
REM
REM
REM ./C.cell (11c1c37f851c82e70ff6c80c92926a4b)
REM
REM compiler GCC version 9.2.1 20190827 (Red Hat 9.2.1-1)
REM options -cpp -mtune=generic -march=x86-64 -g -O0 -fpre-include=/usr/include/finclude/math-vector-fortran.h
REM seed -652180713 -1769536937 -417136389 -991832433 1150873850 -1568831734 -151127545 1428174199 439905609 1329274936 1976796749 -954982521 -1404094167 1763561475 1374390676 1986522884 1853005225 -1754549166 -746985120 -1743139213 458867226 649111962 -153035523 1198527919 2118407758 -264608870 -43137608 220024783 1116327834 -1091839480 456560784 641296851 839240242
REM
CELL 1.54180   50.00000   50.00000   50.00000   90.00000   90.00000   90.00000
LATT -1
SFAC C  
C      1  0.4700960000000  0.4290670000000  0.4990980000000 1.0
C      1  0.4934190000000  0.4976060000000  0.5371400000000 1.0
C      1  0.5525130000000  0.4318670000000  0.5082770000000 1.0
C      1  0.4966250000000  0.4859390000000  0.5955740000000 1.0
C      1  0.5840640000000  0.4653030000000  0.4860610000000 1.0
C      1  0.5376950000000  0.5341290000000  0.5306730000000 1.0
C      1  0.4707890000000  0.4824520000000  0.4860020000000 1.0
C      1  0.5469860000000  0.5592040000000  0.5448920000000 1.0
C      1  0.5027140000000  0.4531740000000  0.4636700000000 1.0
C      1  0.4875240000000  0.5393160000000  0.4133490000000 1.0
C      1  0.4256510000000  0.4574650000000  0.4464080000000 1.0
C      1  0.5157650000000  0.5465780000000  0.5169960000000 1.0
C      1  0.4458670000000  0.5627970000000  0.4531920000000 1.0
C      1  0.4799970000000  0.5749640000000  0.4992270000000 1.0
C      1  0.4699270000000  0.5829480000000  0.4518190000000 1.0
C      1  0.5537290000000  0.4565980000000  0.5802930000000 1.0
C      1  0.4721090000000  0.5518360000000  0.5183320000000 1.0
C      1  0.4674130000000  0.4546980000000  0.5845200000000 1.0
C      1  0.5554260000000  0.4940490000000  0.5090530000000 1.0
C      1  0.5191760000000  0.4281820000000  0.4607640000000 1.0
C      1  0.4528210000000  0.5048540000000  0.5001660000000 1.0
C      1  0.4977850000000  0.5707140000000  0.4515280000000 1.0
C      1  0.5093890000000  0.4798130000000  0.4496110000000 1.0
C      1  0.4233610000000  0.4867340000000  0.4486460000000 1.0
C      1  0.5614420000000  0.5475360000000  0.4924820000000 1.0
C      1  0.5012780000000  0.5658780000000  0.4801400000000 1.0
C      1  0.4900750000000  0.5317860000000  0.5814970000000 1.0
C      1  0.3953630000000  0.5026170000000  0.5182310000000 1.0
C      1  0.5865440000000  0.4879130000000  0.4666510000000 1.0
C      1  0.6004030000000  0.5064620000000  0.5110910000000 1.0
C      1  0.4321290000000  0.4996550000000  0.4248210000000 1.0
C      1  0.4135920000000  0.5039100000000  0.4714000000000 1.0
C      1  0.5417870000000  0.4881650000000  0.5336050000000 1.0
C      1  0.4932350000000  0.5227750000000  0.4868490000000 1.0
C      1  0.5863310000000  0.5266730000000  0.5277560000000 1.0
C      1  0.5248590000000  0.4956670000000  0.4175680000000 1.0
C      1  0.4796860000000  0.4758740000000  0.4090660000000 1.0
C      1  0.4619880000000  0.4972060000000  0.4006520000000 1.0
C      1  0.4919750000000  0.5944330000000  0.5189610000000 1.0
C      1  0.4931140000000  0.4837030000000  0.5081540000000 1.0
C      1  0.4521910000000  0.5327120000000  0.4564130000000 1.0
C      1  0.5399950000000  0.5198170000000  0.4190220000000 1.0
C      1  0.5437070000000  0.5632530000000  0.4395390000000 1.0
C      1  0.4186600000000  0.5191110000000  0.5612340000000 1.0
C      1  0.4350360000000  0.5224060000000  0.4811490000000 1.0
C      1  0.5725860000000  0.4754520000000  0.5671530000000 1.0
C      1  0.4313320000000  0.5707250000000  0.4796390000000 1.0
C      1  0.4576720000000  0.4508300000000  0.4819480000000 1.0
C      1  0.5827060000000  0.4814160000000  0.5122720000000 1.0
C      1  0.5662330000000  0.5047980000000  0.5710070000000 1.0
C      1  0.5641550000000  0.4912290000000  0.4464060000000 1.0
C      1  0.5602320000000  0.5255750000000  0.5124910000000 1.0
C      1  0.5475500000000  0.4372170000000  0.4583010000000 1.0
C      1  0.5110290000000  0.4175270000000  0.5365260000000 1.0
C      1  0.4272800000000  0.5477380000000  0.4977450000000 1.0
C      1  0.5824360000000  0.5206910000000  0.5546420000000 1.0
C      1  0.5229830000000  0.5599460000000  0.5637200000000 1.0
C      1  0.4823920000000  0.4920710000000  0.4575080000000 1.0
C      1  0.5251550000000  0.5089300000000  0.5439570000000 1.0
C      1  0.4934000000000  0.5615440000000  0.5490200000000 1.0
C      1  0.5144670000000  0.5407900000000  0.4882260000000 1.0
C      1  0.4802620000000  0.5891350000000  0.5456780000000 1.0
C      1  0.5290330000000  0.5373180000000  0.4406570000000 1.0
C      1  0.4293790000000  0.4451500000000  0.4724360000000 1.0
C      1  0.4519820000000  0.5826760000000  0.5486570000000 1.0
C      1  0.4746230000000  0.5241350000000  0.5075790000000 1.0
C      1  0.5350640000000  0.5936740000000  0.4744100000000 1.0
C      1  0.4740240000000  0.5553720000000  0.5819860000000 1.0
C      1  0.5744460000000  0.5416220000000  0.4451530000000 1.0
C      1  0.4695520000000  0.4493620000000  0.4143470000000 1.0
C      1  0.5407730000000  0.5919290000000  0.5023740000000 1.0
C      1  0.5147950000000  0.4602770000000  0.5617720000000 1.0
C      1  0.4474090000000  0.4709380000000  0.5715810000000 1.0
C      1  0.4409230000000  0.5367060000000  0.5505570000000 1.0
C      1  0.4419070000000  0.4942410000000  0.5295050000000 1.0
C      1  0.4180240000000  0.4438160000000  0.5151550000000 1.0
C      1  0.4144940000000  0.5013850000000  0.5383530000000 1.0
C      1  0.5268030000000  0.4178620000000  0.5621990000000 1.0
C      1  0.5831300000000  0.5398070000000  0.4733420000000 1.0
C      1  0.5957880000000  0.5125580000000  0.4811480000000 1.0
C      1  0.5556810000000  0.4456890000000  0.5348120000000 1.0
C      1  0.4985990000000  0.5417560000000  0.4394920000000 1.0
C      1  0.5193780000000  0.5349370000000  0.5807370000000 1.0
C      1  0.4634750000000  0.5259500000000  0.4076650000000 1.0
C      1  0.5184260000000  0.4498810000000  0.4185860000000 1.0
C      1  0.5394480000000  0.4763020000000  0.4891300000000 1.0
C      1  0.5571940000000  0.4507700000000  0.4843690000000 1.0
C      1  0.4607520000000  0.5118790000000  0.5476510000000 1.0
C      1  0.4747720000000  0.4444370000000  0.4576130000000 1.0
C      1  0.4773360000000  0.4145450000000  0.4551300000000 1.0
C      1  0.4494800000000  0.5600290000000  0.5678100000000 1.0
C      1  0.5520110000000  0.4332520000000  0.5617320000000 1.0
C      1  0.5152010000000  0.4637330000000  0.5048060000000 1.0
C      1  0.3973030000000  0.4953890000000  0.4923750000000 1.0
C      1  0.5330880000000  0.5247080000000  0.4676500000000 1.0
C      1  0.5440840000000  0.4534740000000  0.4342600000000 1.0
C      1  0.4887060000000  0.4755080000000  0.5596680000000 1.0
C      1  0.4776490000000  0.5067780000000  0.5885260000000 1.0
C      1  0.4428680000000  0.5256860000000  0.4287360000000 1.0
C      1  0.5090580000000  0.4285750000000  0.5825170000000 1.0
C      1  0.4932020000000  0.4332410000000  0.4251580000000 1.0
C      1  0.4818580000000  0.5224050000000  0.4590160000000 1.0
C      1  0.5597000000000  0.5710730000000  0.5110510000000 1.0
C      1  0.4847820000000  0.4281770000000  0.5444970000000 1.0
C      1  0.4080600000000  0.4464810000000  0.4904610000000 1.0
C      1  0.4619720000000  0.4248880000000  0.5267340000000 1.0
C      1  0.5674610000000  0.5169540000000  0.4303660000000 1.0
C      1  0.4495120000000  0.4678360000000  0.5426940000000 1.0
C      1  0.5262860000000  0.5844690000000  0.4490130000000 1.0
C      1  0.5655380000000  0.4695300000000  0.4269740000000 1.0
C      1  0.5347280000000  0.5086650000000  0.5726980000000 1.0
C      1  0.4822500000000  0.4324390000000  0.5730700000000 1.0
C      1  0.4498800000000  0.5008540000000  0.5756540000000 1.0
C      1  0.4388530000000  0.4422230000000  0.5335590000000 1.0
C      1  0.4426140000000  0.5545770000000  0.5242940000000 1.0
C      1  0.4442970000000  0.4483890000000  0.4268860000000 1.0
C      1  0.5245320000000  0.4814790000000  0.5843080000000 1.0
C      1  0.5191300000000  0.5833330000000  0.5206750000000 1.0
C      1  0.5300130000000  0.4625120000000  0.5341550000000 1.0
C      1  0.4582980000000  0.5875980000000  0.4813880000000 1.0
C      1  0.5351870000000  0.4933570000000  0.4633160000000 1.0
C      1  0.5228800000000  0.4257380000000  0.5093000000000 1.0
C      1  0.5792920000000  0.4648280000000  0.5381460000000 1.0
C      1  0.4841020000000  0.4080900000000  0.4830410000000 1.0
C      1  0.5139520000000  0.4104740000000  0.4847630000000 1.0
C      1  0.5088580000000  0.4748370000000  0.4064920000000 1.0
END
