TITL C-950523-3027-306 5.50226358208636e-07 125000 -443.494316669285 0 0 73 (C1) n - 1
REM
REM in /home/bkarasulu/work/CARBON/AIRSS/Generating-Clusters/EDIP-Nigel-Params/with-SteepDescent/Only-C1/SD-CG/HFTN-CG
REM
REM
REM
REM
REM
REM ./C.cell (11c1c37f851c82e70ff6c80c92926a4b)
REM
REM compiler GCC version 9.2.1 20190827 (Red Hat 9.2.1-1)
REM options -cpp -mtune=generic -march=x86-64 -g -O0 -fpre-include=/usr/include/finclude/math-vector-fortran.h
REM seed 578085654 -681517438 -50935083 264025917 844951597 -1711427041 -67398656 -1002910859 499426434 1331764014 1846620540 148674057 1072418246 3777248 -1376373597 -2026693481 -364504217 98671995 1807528104 -862269926 2081045324 -238861174 1289968079 -1701376152 -1331577070 -682568886 1503949511 -478020285 -1003555001 897520011 1872348177 -1449601914 -2073147224
REM
CELL 1.54180   50.00000   50.00000   50.00000   90.00000   90.00000   90.00000
LATT -1
SFAC C  
C      1  0.5013850000000  0.4268940000000  0.5147340000000 1.0
C      1  0.4831690000000  0.4934140000000  0.5775810000000 1.0
C      1  0.4660550000000  0.5065500000000  0.5064500000000 1.0
C      1  0.5379760000000  0.4836060000000  0.4843560000000 1.0
C      1  0.4365740000000  0.4707880000000  0.5229950000000 1.0
C      1  0.5089220000000  0.4877460000000  0.5872400000000 1.0
C      1  0.4357470000000  0.4751440000000  0.4541440000000 1.0
C      1  0.4821060000000  0.4712780000000  0.4854740000000 1.0
C      1  0.4878880000000  0.5039110000000  0.5271970000000 1.0
C      1  0.4725060000000  0.4466750000000  0.4692620000000 1.0
C      1  0.5017640000000  0.4393390000000  0.4621420000000 1.0
C      1  0.4759310000000  0.4706420000000  0.5595010000000 1.0
C      1  0.4612150000000  0.5379740000000  0.5592440000000 1.0
C      1  0.5608390000000  0.4433390000000  0.5006000000000 1.0
C      1  0.5308910000000  0.4760850000000  0.5743960000000 1.0
C      1  0.4708120000000  0.4665240000000  0.4235870000000 1.0
C      1  0.5631720000000  0.5641900000000  0.5004990000000 1.0
C      1  0.5366070000000  0.4779480000000  0.4548270000000 1.0
C      1  0.4653020000000  0.5466170000000  0.4293680000000 1.0
C      1  0.5026710000000  0.5377510000000  0.4487950000000 1.0
C      1  0.5098510000000  0.5365840000000  0.5656110000000 1.0
C      1  0.4929010000000  0.4759600000000  0.5354390000000 1.0
C      1  0.4562310000000  0.4560580000000  0.4451780000000 1.0
C      1  0.5206800000000  0.4648750000000  0.5268130000000 1.0
C      1  0.4546130000000  0.4310270000000  0.4910260000000 1.0
C      1  0.5774650000000  0.5381490000000  0.4883690000000 1.0
C      1  0.4826850000000  0.5290930000000  0.4164710000000 1.0
C      1  0.4914140000000  0.4820950000000  0.4366690000000 1.0
C      1  0.4536280000000  0.5451400000000  0.4746050000000 1.0
C      1  0.5170940000000  0.4362380000000  0.4879690000000 1.0
C      1  0.5454630000000  0.4990490000000  0.4376880000000 1.0
C      1  0.5427930000000  0.5551810000000  0.5195080000000 1.0
C      1  0.4219410000000  0.4641020000000  0.4758460000000 1.0
C      1  0.5308870000000  0.5352610000000  0.4401080000000 1.0
C      1  0.4295990000000  0.5153630000000  0.5377310000000 1.0
C      1  0.5739570000000  0.4879280000000  0.4935120000000 1.0
C      1  0.5208640000000  0.4380010000000  0.5412780000000 1.0
C      1  0.5001040000000  0.5055800000000  0.4185130000000 1.0
C      1  0.4375620000000  0.5249740000000  0.4631200000000 1.0
C      1  0.5696760000000  0.5164630000000  0.5322830000000 1.0
C      1  0.5667450000000  0.5594320000000  0.4725530000000 1.0
C      1  0.4777430000000  0.4586890000000  0.5155930000000 1.0
C      1  0.5106430000000  0.5627090000000  0.5538610000000 1.0
C      1  0.4500680000000  0.4666190000000  0.5481880000000 1.0
C      1  0.5286700000000  0.5144290000000  0.4202960000000 1.0
C      1  0.5045690000000  0.5769260000000  0.4816270000000 1.0
C      1  0.5128550000000  0.4625640000000  0.4453820000000 1.0
C      1  0.5318880000000  0.5128800000000  0.4958830000000 1.0
C      1  0.4750820000000  0.5315380000000  0.4910380000000 1.0
C      1  0.5461620000000  0.4950720000000  0.5546530000000 1.0
C      1  0.4331720000000  0.4517140000000  0.4984780000000 1.0
C      1  0.4707820000000  0.4271150000000  0.5160970000000 1.0
C      1  0.4671890000000  0.5514360000000  0.5355830000000 1.0
C      1  0.5674640000000  0.4676210000000  0.5126430000000 1.0
C      1  0.4992880000000  0.5738650000000  0.5086700000000 1.0
C      1  0.5210460000000  0.5726780000000  0.5289250000000 1.0
C      1  0.5283500000000  0.5214800000000  0.5476780000000 1.0
C      1  0.4357940000000  0.5270100000000  0.5611010000000 1.0
C      1  0.5172290000000  0.4648100000000  0.4966690000000 1.0
C      1  0.4660730000000  0.5621190000000  0.4530990000000 1.0
C      1  0.4871820000000  0.5475900000000  0.5150920000000 1.0
C      1  0.5443880000000  0.4275490000000  0.4864140000000 1.0
C      1  0.5519240000000  0.5376620000000  0.5408180000000 1.0
C      1  0.5459660000000  0.4790600000000  0.5296570000000 1.0
C      1  0.4846120000000  0.5200090000000  0.5621650000000 1.0
C      1  0.4956940000000  0.5666180000000  0.4571910000000 1.0
C      1  0.4802120000000  0.4944400000000  0.4631210000000 1.0
C      1  0.5132310000000  0.5200690000000  0.5203020000000 1.0
C      1  0.5277810000000  0.4484570000000  0.5674800000000 1.0
C      1  0.4505060000000  0.5000560000000  0.4593280000000 1.0
C      1  0.5637030000000  0.5147760000000  0.5027760000000 1.0
C      1  0.4954970000000  0.5194870000000  0.4718760000000 1.0
C      1  0.4375540000000  0.4999810000000  0.5156340000000 1.0
END
