TITL C-951348-1603-595 -1.17479679047154e-06 125000 -214.377960654745 0 0 36 (C1) n - 1
REM
REM in /home/bkarasulu/work/CARBON/AIRSS/Generating-Clusters/EDIP-Nigel-Params/with-SteepDescent/Only-C1/SD-CG/HFTN-CG
REM
REM
REM
REM
REM
REM ./C.cell (11c1c37f851c82e70ff6c80c92926a4b)
REM
REM compiler GCC version 9.2.1 20190827 (Red Hat 9.2.1-1)
REM options -cpp -mtune=generic -march=x86-64 -g -O0 -fpre-include=/usr/include/finclude/math-vector-fortran.h
REM seed -477368806 -1834845074 -414231813 -1732602435 -1122931702 502270808 334840359 2053928795 116097485 1133619580 -260357492 536822662 322337671 -676578114 -1208274909 -1656526887 843519291 1068214393 188500671 -1458502422 -2086622622 17598366 -766247617 2103382003 2072337790 886685438 1159566329 -307074732 -1744099924 -16915696 2044124282 967139604 134137504
REM
CELL 1.54180   50.00000   50.00000   50.00000   90.00000   90.00000   90.00000
LATT -1
SFAC C  
C      1  0.4924340000000  0.5193770000000  0.5335650000000 1.0
C      1  0.4871400000000  0.5048300000000  0.5605840000000 1.0
C      1  0.5232260000000  0.5109990000000  0.4707120000000 1.0
C      1  0.4987650000000  0.5009760000000  0.5107760000000 1.0
C      1  0.5030030000000  0.5498810000000  0.5128250000000 1.0
C      1  0.4985580000000  0.5571440000000  0.4635520000000 1.0
C      1  0.5006090000000  0.5377380000000  0.4433760000000 1.0
C      1  0.5109410000000  0.4979210000000  0.5745800000000 1.0
C      1  0.4701310000000  0.4784190000000  0.4507850000000 1.0
C      1  0.5196800000000  0.4393820000000  0.4824930000000 1.0
C      1  0.4956340000000  0.5134660000000  0.4838840000000 1.0
C      1  0.4984140000000  0.4655740000000  0.5430280000000 1.0
C      1  0.4901830000000  0.4596120000000  0.4482370000000 1.0
C      1  0.5556060000000  0.5029270000000  0.4994840000000 1.0
C      1  0.5451670000000  0.5321370000000  0.5362340000000 1.0
C      1  0.4911770000000  0.5428970000000  0.4865500000000 1.0
C      1  0.4761120000000  0.4603820000000  0.5010620000000 1.0
C      1  0.5232500000000  0.5211870000000  0.4436490000000 1.0
C      1  0.5431450000000  0.5276710000000  0.4884010000000 1.0
C      1  0.5526940000000  0.5058630000000  0.5288280000000 1.0
C      1  0.4477080000000  0.4985120000000  0.4922320000000 1.0
C      1  0.5000960000000  0.4712530000000  0.5132820000000 1.0
C      1  0.5413620000000  0.4808230000000  0.4862390000000 1.0
C      1  0.4695180000000  0.5021660000000  0.4707850000000 1.0
C      1  0.4474850000000  0.5175470000000  0.5151310000000 1.0
C      1  0.5249260000000  0.4609960000000  0.4991530000000 1.0
C      1  0.5327890000000  0.5422660000000  0.5127460000000 1.0
C      1  0.5213850000000  0.4769280000000  0.5585450000000 1.0
C      1  0.4670000000000  0.4997110000000  0.4317600000000 1.0
C      1  0.4517470000000  0.4732750000000  0.5072830000000 1.0
C      1  0.4690120000000  0.5344490000000  0.5240920000000 1.0
C      1  0.4770800000000  0.5250650000000  0.4354960000000 1.0
C      1  0.4730070000000  0.4794420000000  0.5534990000000 1.0
C      1  0.5439490000000  0.4835290000000  0.5433220000000 1.0
C      1  0.5057970000000  0.4412910000000  0.4596580000000 1.0
C      1  0.4512690000000  0.4843630000000  0.5341690000000 1.0
END
