TITL C-951339-9237-2 -1.00497630461962e-06 125000 -716.390748613718 0 0 115 (C1) n - 1
REM
REM in /home/bkarasulu/work/CARBON/AIRSS/Generating-Clusters/EDIP-Nigel-Params/with-SteepDescent/Only-C1/SD-CG/HFTN-CG
REM
REM
REM
REM
REM
REM ./C.cell (11c1c37f851c82e70ff6c80c92926a4b)
REM
REM compiler GCC version 9.2.1 20190827 (Red Hat 9.2.1-1)
REM options -cpp -mtune=generic -march=x86-64 -g -O0 -fpre-include=/usr/include/finclude/math-vector-fortran.h
REM seed 178367329 -1929152947 -1275988357 1548200642 1479742209 -1437430845 302462999 229013367 -1758107510 -2076677204 1085089351 1306159725 -287957273 481305878 -815515869 -246550403 1406943956 377524239 -462383105 -2133103076 464408537 1954739033 1878744521 2069269771 -770711556 1623849615 -490507586 89216741 322334577 -988148415 1348589067 -221019379 158567780
REM
CELL 1.54180   50.00000   50.00000   50.00000   90.00000   90.00000   90.00000
LATT -1
SFAC C  
C      1  0.5368950000000  0.4533590000000  0.5697870000000 1.0
C      1  0.4244500000000  0.4933760000000  0.5396130000000 1.0
C      1  0.5165420000000  0.5100700000000  0.4481060000000 1.0
C      1  0.5510100000000  0.4859210000000  0.5094350000000 1.0
C      1  0.4609920000000  0.4728340000000  0.5735840000000 1.0
C      1  0.5711360000000  0.4942340000000  0.4313660000000 1.0
C      1  0.4933590000000  0.5251420000000  0.5518990000000 1.0
C      1  0.5676260000000  0.4942130000000  0.4614200000000 1.0
C      1  0.5698900000000  0.4484400000000  0.4492570000000 1.0
C      1  0.4776930000000  0.4746480000000  0.4159420000000 1.0
C      1  0.4690830000000  0.5110230000000  0.5393960000000 1.0
C      1  0.4901070000000  0.4522930000000  0.4350440000000 1.0
C      1  0.5057800000000  0.4275270000000  0.5351700000000 1.0
C      1  0.5262600000000  0.4684890000000  0.4612910000000 1.0
C      1  0.4901240000000  0.4972420000000  0.4518560000000 1.0
C      1  0.5473050000000  0.4297690000000  0.4575460000000 1.0
C      1  0.4790150000000  0.5513290000000  0.5085160000000 1.0
C      1  0.5062340000000  0.5418790000000  0.4156840000000 1.0
C      1  0.4553320000000  0.4363760000000  0.5438260000000 1.0
C      1  0.4349030000000  0.4527960000000  0.4609350000000 1.0
C      1  0.4716190000000  0.5151450000000  0.4665850000000 1.0
C      1  0.5247250000000  0.4959230000000  0.4213350000000 1.0
C      1  0.4794360000000  0.4293380000000  0.4522400000000 1.0
C      1  0.5129930000000  0.4681970000000  0.5796550000000 1.0
C      1  0.5658870000000  0.4602710000000  0.4983820000000 1.0
C      1  0.4760110000000  0.5494950000000  0.5768730000000 1.0
C      1  0.5841510000000  0.4524300000000  0.5217730000000 1.0
C      1  0.5664870000000  0.5871190000000  0.4860780000000 1.0
C      1  0.5359210000000  0.5385040000000  0.5882550000000 1.0
C      1  0.4165090000000  0.5324460000000  0.5025800000000 1.0
C      1  0.5282010000000  0.6094070000000  0.5109220000000 1.0
C      1  0.4146520000000  0.5441890000000  0.4752360000000 1.0
C      1  0.5607690000000  0.5411060000000  0.4675610000000 1.0
C      1  0.5512630000000  0.5140780000000  0.4210380000000 1.0
C      1  0.4114090000000  0.4665850000000  0.5046180000000 1.0
C      1  0.4969250000000  0.5821520000000  0.5393200000000 1.0
C      1  0.5154300000000  0.4452710000000  0.4213510000000 1.0
C      1  0.5219150000000  0.5518160000000  0.4371820000000 1.0
C      1  0.4408190000000  0.5078780000000  0.4678020000000 1.0
C      1  0.4728420000000  0.5207740000000  0.5903820000000 1.0
C      1  0.4373540000000  0.5116680000000  0.4983100000000 1.0
C      1  0.5326610000000  0.4314240000000  0.5478740000000 1.0
C      1  0.4617320000000  0.4679110000000  0.5142060000000 1.0
C      1  0.4964130000000  0.4694680000000  0.4612430000000 1.0
C      1  0.4941640000000  0.5081180000000  0.6032440000000 1.0
C      1  0.4581490000000  0.4375450000000  0.4699170000000 1.0
C      1  0.5597700000000  0.5600440000000  0.4925810000000 1.0
C      1  0.5345400000000  0.4716650000000  0.5295350000000 1.0
C      1  0.4157300000000  0.4669120000000  0.5495580000000 1.0
C      1  0.4771280000000  0.5876370000000  0.4709000000000 1.0
C      1  0.5172740000000  0.5100900000000  0.5433080000000 1.0
C      1  0.5290770000000  0.5047670000000  0.4944160000000 1.0
C      1  0.5021030000000  0.4903620000000  0.5010280000000 1.0
C      1  0.4872280000000  0.5223760000000  0.4074840000000 1.0
C      1  0.5361800000000  0.4957960000000  0.4670610000000 1.0
C      1  0.4667500000000  0.5625530000000  0.4828730000000 1.0
C      1  0.4424880000000  0.5126790000000  0.5541770000000 1.0
C      1  0.4370490000000  0.4769640000000  0.4452120000000 1.0
C      1  0.4984090000000  0.4949850000000  0.4051460000000 1.0
C      1  0.5439120000000  0.5043620000000  0.5587820000000 1.0
C      1  0.5251310000000  0.4095280000000  0.4555310000000 1.0
C      1  0.4399380000000  0.4542560000000  0.5618970000000 1.0
C      1  0.5162420000000  0.5847880000000  0.5162740000000 1.0
C      1  0.5781440000000  0.4671190000000  0.4713370000000 1.0
C      1  0.4521030000000  0.5024160000000  0.5805970000000 1.0
C      1  0.4786100000000  0.4038030000000  0.4996070000000 1.0
C      1  0.5084620000000  0.5439180000000  0.4640210000000 1.0
C      1  0.5691220000000  0.5165530000000  0.5466720000000 1.0
C      1  0.4870390000000  0.4565110000000  0.5737640000000 1.0
C      1  0.5393990000000  0.5105590000000  0.5875200000000 1.0
C      1  0.4479750000000  0.5434830000000  0.4285680000000 1.0
C      1  0.4335850000000  0.4848120000000  0.5124460000000 1.0
C      1  0.5624720000000  0.4655370000000  0.4259890000000 1.0
C      1  0.5554870000000  0.4287170000000  0.5292160000000 1.0
C      1  0.4148390000000  0.4538650000000  0.4801760000000 1.0
C      1  0.5765460000000  0.4997500000000  0.5233690000000 1.0
C      1  0.5414710000000  0.5504610000000  0.5392520000000 1.0
C      1  0.4646700000000  0.5231450000000  0.5120970000000 1.0
C      1  0.5786560000000  0.5190660000000  0.4736940000000 1.0
C      1  0.4036900000000  0.4521580000000  0.5278420000000 1.0
C      1  0.4334690000000  0.5413430000000  0.5498260000000 1.0
C      1  0.4449960000000  0.4335320000000  0.5171360000000 1.0
C      1  0.5132840000000  0.5397190000000  0.4967840000000 1.0
C      1  0.4850720000000  0.4658770000000  0.4910250000000 1.0
C      1  0.4837170000000  0.4386930000000  0.5505390000000 1.0
C      1  0.4561340000000  0.5589440000000  0.5555940000000 1.0
C      1  0.5804690000000  0.5472960000000  0.5112800000000 1.0
C      1  0.5501150000000  0.6056550000000  0.4961440000000 1.0
C      1  0.4781110000000  0.5451360000000  0.4599150000000 1.0
C      1  0.5025360000000  0.5613840000000  0.5615290000000 1.0
C      1  0.4763900000000  0.4807030000000  0.5389490000000 1.0
C      1  0.5073260000000  0.4853360000000  0.5307310000000 1.0
C      1  0.4198250000000  0.5474720000000  0.5259700000000 1.0
C      1  0.4549330000000  0.4904400000000  0.4259970000000 1.0
C      1  0.4702060000000  0.5814040000000  0.4439380000000 1.0
C      1  0.5323590000000  0.5596010000000  0.5111900000000 1.0
C      1  0.5025130000000  0.4159950000000  0.5081890000000 1.0
C      1  0.4448080000000  0.5678320000000  0.4426060000000 1.0
C      1  0.5878510000000  0.5199660000000  0.5019520000000 1.0
C      1  0.5520120000000  0.4741800000000  0.5537540000000 1.0
C      1  0.5692890000000  0.5443570000000  0.5387970000000 1.0
C      1  0.5306660000000  0.5554990000000  0.5663220000000 1.0
C      1  0.4311300000000  0.5667400000000  0.4688950000000 1.0
C      1  0.5489830000000  0.4352920000000  0.5016360000000 1.0
C      1  0.4815830000000  0.5099340000000  0.4936870000000 1.0
C      1  0.5166690000000  0.4932500000000  0.5958640000000 1.0
C      1  0.4553810000000  0.4201690000000  0.4937480000000 1.0
C      1  0.4196590000000  0.5241190000000  0.4561420000000 1.0
C      1  0.5325350000000  0.4670170000000  0.4312170000000 1.0
C      1  0.4710890000000  0.5702120000000  0.5314280000000 1.0
C      1  0.4613840000000  0.5197000000000  0.4212450000000 1.0
C      1  0.5818930000000  0.4730810000000  0.5415860000000 1.0
C      1  0.5486490000000  0.5392620000000  0.4396140000000 1.0
C      1  0.4995020000000  0.4147010000000  0.4690890000000 1.0
C      1  0.5520640000000  0.4153040000000  0.4821160000000 1.0
END
