TITL C-951340-9809-409 -4.93216731515964e-06 125000 -667.530599301995 0 0 108 (C1) n - 1
REM
REM in /home/bkarasulu/work/CARBON/AIRSS/Generating-Clusters/EDIP-Nigel-Params/with-SteepDescent/Only-C1/SD-CG/HFTN-CG
REM
REM
REM
REM
REM
REM ./C.cell (11c1c37f851c82e70ff6c80c92926a4b)
REM
REM compiler GCC version 9.2.1 20190827 (Red Hat 9.2.1-1)
REM options -cpp -mtune=generic -march=x86-64 -g -O0 -fpre-include=/usr/include/finclude/math-vector-fortran.h
REM seed 11402100 754420178 577271702 -1394483514 -1551941113 674376380 167520483 -1708415554 -665529904 964165638 1988003618 1136945484 684703868 1229812349 -210749956 -171571970 169462289 1495400559 -1641369065 -1916460612 -282933906 -673495760 -1895222121 -2020378833 -1523489448 1316999844 -1229953338 -1807195658 1023913273 1867758387 1246894840 -923281905 -889055172
REM
CELL 1.54180   50.00000   50.00000   50.00000   90.00000   90.00000   90.00000
LATT -1
SFAC C  
C      1  0.4534330000000  0.4770330000000  0.4259450000000 1.0
C      1  0.5532200000000  0.5197970000000  0.4346440000000 1.0
C      1  0.4769150000000  0.5081060000000  0.4564660000000 1.0
C      1  0.4667880000000  0.5030570000000  0.4283240000000 1.0
C      1  0.4767700000000  0.5726170000000  0.5505210000000 1.0
C      1  0.4640450000000  0.4748660000000  0.4850010000000 1.0
C      1  0.5022630000000  0.5361340000000  0.4262510000000 1.0
C      1  0.5402320000000  0.5648930000000  0.4657680000000 1.0
C      1  0.4948090000000  0.5319160000000  0.4558630000000 1.0
C      1  0.5454310000000  0.5226970000000  0.5285330000000 1.0
C      1  0.5147430000000  0.5198260000000  0.5214200000000 1.0
C      1  0.5033910000000  0.4420930000000  0.4965760000000 1.0
C      1  0.5857820000000  0.5168560000000  0.4989140000000 1.0
C      1  0.4925370000000  0.4654540000000  0.5365510000000 1.0
C      1  0.5442920000000  0.4122000000000  0.5160950000000 1.0
C      1  0.5298420000000  0.5115810000000  0.4766530000000 1.0
C      1  0.5427810000000  0.4468410000000  0.5509980000000 1.0
C      1  0.4934350000000  0.5188440000000  0.5424790000000 1.0
C      1  0.5493440000000  0.4953150000000  0.4218700000000 1.0
C      1  0.4910940000000  0.5956380000000  0.4610610000000 1.0
C      1  0.5016510000000  0.5120910000000  0.5706070000000 1.0
C      1  0.4987410000000  0.4360000000000  0.4530990000000 1.0
C      1  0.4266060000000  0.4772380000000  0.4379620000000 1.0
C      1  0.5704920000000  0.4879910000000  0.4688720000000 1.0
C      1  0.4191020000000  0.4529850000000  0.4547160000000 1.0
C      1  0.4598970000000  0.4851120000000  0.5751550000000 1.0
C      1  0.5660630000000  0.5607410000000  0.5018680000000 1.0
C      1  0.4853230000000  0.4571170000000  0.4357760000000 1.0
C      1  0.4817570000000  0.4563620000000  0.5642010000000 1.0
C      1  0.4397000000000  0.5338970000000  0.5664290000000 1.0
C      1  0.5080810000000  0.6008630000000  0.5102070000000 1.0
C      1  0.5341460000000  0.5414840000000  0.4254050000000 1.0
C      1  0.4476190000000  0.4233100000000  0.5443910000000 1.0
C      1  0.5501100000000  0.5086550000000  0.5674580000000 1.0
C      1  0.5295510000000  0.4616850000000  0.5741130000000 1.0
C      1  0.5064230000000  0.4398920000000  0.5274360000000 1.0
C      1  0.4235400000000  0.4957690000000  0.4628620000000 1.0
C      1  0.5330320000000  0.4735560000000  0.4280260000000 1.0
C      1  0.4772750000000  0.5076340000000  0.5006570000000 1.0
C      1  0.4773610000000  0.5460320000000  0.4967420000000 1.0
C      1  0.4517380000000  0.4321210000000  0.5010060000000 1.0
C      1  0.4284620000000  0.5641440000000  0.4980840000000 1.0
C      1  0.5417210000000  0.4668210000000  0.5266180000000 1.0
C      1  0.4726830000000  0.4546110000000  0.5047860000000 1.0
C      1  0.4336810000000  0.4741300000000  0.5325670000000 1.0
C      1  0.4955740000000  0.5867280000000  0.4345180000000 1.0
C      1  0.4563000000000  0.4548350000000  0.4613600000000 1.0
C      1  0.5270700000000  0.4049740000000  0.4934700000000 1.0
C      1  0.4342260000000  0.5649510000000  0.4702480000000 1.0
C      1  0.4972040000000  0.4040660000000  0.4933040000000 1.0
C      1  0.5669880000000  0.4257260000000  0.5075360000000 1.0
C      1  0.4337700000000  0.5478660000000  0.5428770000000 1.0
C      1  0.4822560000000  0.5618360000000  0.4255160000000 1.0
C      1  0.4835430000000  0.4158430000000  0.4679370000000 1.0
C      1  0.5345250000000  0.5977060000000  0.5015730000000 1.0
C      1  0.5226090000000  0.5870070000000  0.4273580000000 1.0
C      1  0.4841610000000  0.5547770000000  0.5738040000000 1.0
C      1  0.5369800000000  0.4107230000000  0.4681430000000 1.0
C      1  0.4272880000000  0.4865790000000  0.5061530000000 1.0
C      1  0.5268390000000  0.4296210000000  0.4501260000000 1.0
C      1  0.4125750000000  0.5191990000000  0.4748580000000 1.0
C      1  0.4475630000000  0.5738830000000  0.5423820000000 1.0
C      1  0.4977530000000  0.5861100000000  0.5343100000000 1.0
C      1  0.5709480000000  0.4992830000000  0.5501010000000 1.0
C      1  0.5177240000000  0.5364980000000  0.4751890000000 1.0
C      1  0.4830340000000  0.3993150000000  0.5197580000000 1.0
C      1  0.4201980000000  0.4712490000000  0.4811150000000 1.0
C      1  0.4726300000000  0.5042720000000  0.5301430000000 1.0
C      1  0.4197930000000  0.5153680000000  0.5022530000000 1.0
C      1  0.5541790000000  0.4625550000000  0.4749370000000 1.0
C      1  0.4870710000000  0.5968540000000  0.4891440000000 1.0
C      1  0.4955120000000  0.4147220000000  0.5421220000000 1.0
C      1  0.4448610000000  0.5830260000000  0.5137320000000 1.0
C      1  0.5406900000000  0.5679390000000  0.4369490000000 1.0
C      1  0.5114770000000  0.4912710000000  0.4890890000000 1.0
C      1  0.5186450000000  0.4836740000000  0.5368580000000 1.0
C      1  0.5891090000000  0.4685270000000  0.5062260000000 1.0
C      1  0.5062750000000  0.5403190000000  0.5014190000000 1.0
C      1  0.4732030000000  0.5753760000000  0.5068320000000 1.0
C      1  0.5761660000000  0.5392490000000  0.4830860000000 1.0
C      1  0.5342050000000  0.4183510000000  0.5437510000000 1.0
C      1  0.5948390000000  0.4907270000000  0.4862330000000 1.0
C      1  0.4545330000000  0.4083670000000  0.5191770000000 1.0
C      1  0.5044500000000  0.4796060000000  0.4289630000000 1.0
C      1  0.4763030000000  0.5508930000000  0.4676170000000 1.0
C      1  0.4758460000000  0.5072030000000  0.5866220000000 1.0
C      1  0.5564690000000  0.5593510000000  0.5551750000000 1.0
C      1  0.4546400000000  0.5606260000000  0.4513530000000 1.0
C      1  0.4941650000000  0.5056260000000  0.4160160000000 1.0
C      1  0.5425160000000  0.5385960000000  0.5693040000000 1.0
C      1  0.4295030000000  0.5398900000000  0.5146380000000 1.0
C      1  0.5042290000000  0.4532620000000  0.5818150000000 1.0
C      1  0.4566870000000  0.4262330000000  0.4723750000000 1.0
C      1  0.5751000000000  0.4468140000000  0.4912520000000 1.0
C      1  0.4554960000000  0.4873190000000  0.5463730000000 1.0
C      1  0.5518480000000  0.5816240000000  0.4865310000000 1.0
C      1  0.5570320000000  0.5146160000000  0.4648010000000 1.0
C      1  0.5275350000000  0.4648990000000  0.4953350000000 1.0
C      1  0.4629640000000  0.5345020000000  0.5823580000000 1.0
C      1  0.5128880000000  0.5400310000000  0.5761760000000 1.0
C      1  0.4882150000000  0.4845450000000  0.4695750000000 1.0
C      1  0.4733180000000  0.4276570000000  0.5586760000000 1.0
C      1  0.5600440000000  0.5065060000000  0.5083310000000 1.0
C      1  0.5532140000000  0.5513270000000  0.5281820000000 1.0
C      1  0.5673120000000  0.4831970000000  0.5248160000000 1.0
C      1  0.5443250000000  0.4527380000000  0.4468070000000 1.0
C      1  0.4323510000000  0.4465800000000  0.5383290000000 1.0
C      1  0.5253280000000  0.4909880000000  0.5660180000000 1.0
END
