TITL C-950521-2237-293 5.20086831780859e-09 125000 -314.90269627632 0 0 53 (C1) n - 1
REM
REM in /home/bkarasulu/work/CARBON/AIRSS/Generating-Clusters/EDIP-Nigel-Params/with-SteepDescent/Only-C1/SD-CG/HFTN-CG
REM
REM
REM
REM
REM
REM ./C.cell (11c1c37f851c82e70ff6c80c92926a4b)
REM
REM compiler GCC version 9.2.1 20190827 (Red Hat 9.2.1-1)
REM options -cpp -mtune=generic -march=x86-64 -g -O0 -fpre-include=/usr/include/finclude/math-vector-fortran.h
REM seed 290033810 -1659442219 -562589920 -1376908901 2134923270 -1489807824 867808710 307526364 -684212998 681033062 -844317773 -655105501 460745771 1234044293 -1130442136 140014560 -551807535 855641326 -2119112685 965010622 -1117937005 -1469977395 -159068424 -850062431 805351955 -224439038 407965175 1816057356 1983380260 -1291326830 1945269479 275732316 1705087148
REM
CELL 1.54180   50.00000   50.00000   50.00000   90.00000   90.00000   90.00000
LATT -1
SFAC C  
C      1  0.4532330000000  0.4697550000000  0.4430560000000 1.0
C      1  0.4418710000000  0.4553140000000  0.4638520000000 1.0
C      1  0.4425520000000  0.5616600000000  0.4391610000000 1.0
C      1  0.4381080000000  0.4619530000000  0.4907460000000 1.0
C      1  0.5043470000000  0.4206500000000  0.4971550000000 1.0
C      1  0.5494180000000  0.5355100000000  0.4927900000000 1.0
C      1  0.5247160000000  0.4616970000000  0.5402600000000 1.0
C      1  0.5049000000000  0.5013070000000  0.5659840000000 1.0
C      1  0.4749050000000  0.4642890000000  0.5502600000000 1.0
C      1  0.4718750000000  0.4903330000000  0.4501980000000 1.0
C      1  0.4854740000000  0.5608250000000  0.4629220000000 1.0
C      1  0.4361610000000  0.5291310000000  0.4998240000000 1.0
C      1  0.4917050000000  0.5111130000000  0.4553680000000 1.0
C      1  0.4492480000000  0.5499290000000  0.4861760000000 1.0
C      1  0.4578140000000  0.5509360000000  0.4579810000000 1.0
C      1  0.4976550000000  0.4531960000000  0.5364720000000 1.0
C      1  0.4640500000000  0.5143000000000  0.5369570000000 1.0
C      1  0.5556210000000  0.5311630000000  0.4629850000000 1.0
C      1  0.5014210000000  0.5640250000000  0.5371310000000 1.0
C      1  0.5417080000000  0.4674710000000  0.5169880000000 1.0
C      1  0.4801850000000  0.4483320000000  0.4854900000000 1.0
C      1  0.4515210000000  0.4554200000000  0.5364140000000 1.0
C      1  0.5458100000000  0.5455910000000  0.5302380000000 1.0
C      1  0.4749050000000  0.4205990000000  0.4967210000000 1.0
C      1  0.5581590000000  0.4803290000000  0.4592300000000 1.0
C      1  0.4780510000000  0.4693060000000  0.5072860000000 1.0
C      1  0.4974210000000  0.5225010000000  0.4816750000000 1.0
C      1  0.5303490000000  0.5314660000000  0.4457160000000 1.0
C      1  0.5478820000000  0.4484940000000  0.4952280000000 1.0
C      1  0.5152750000000  0.4557380000000  0.4594440000000 1.0
C      1  0.5153470000000  0.5294630000000  0.5681160000000 1.0
C      1  0.4641850000000  0.5419590000000  0.5456300000000 1.0
C      1  0.5580290000000  0.4911980000000  0.5227560000000 1.0
C      1  0.5639480000000  0.5103610000000  0.5015130000000 1.0
C      1  0.5508670000000  0.5009290000000  0.5504580000000 1.0
C      1  0.5705960000000  0.5057250000000  0.4638290000000 1.0
C      1  0.5440560000000  0.5300530000000  0.5550400000000 1.0
C      1  0.4465690000000  0.4419910000000  0.5114110000000 1.0
C      1  0.4780540000000  0.4940540000000  0.5543120000000 1.0
C      1  0.5231950000000  0.4380590000000  0.4821900000000 1.0
C      1  0.5282880000000  0.4835970000000  0.5601340000000 1.0
C      1  0.5657960000000  0.4591120000000  0.4758780000000 1.0
C      1  0.5102940000000  0.5518070000000  0.4516790000000 1.0
C      1  0.4547650000000  0.4858580000000  0.4977300000000 1.0
C      1  0.5296890000000  0.4811140000000  0.4566400000000 1.0
C      1  0.4859690000000  0.4547760000000  0.4562980000000 1.0
C      1  0.4965150000000  0.5518310000000  0.5632360000000 1.0
C      1  0.4739440000000  0.5630580000000  0.5266880000000 1.0
C      1  0.5183470000000  0.5452430000000  0.5222510000000 1.0
C      1  0.4454680000000  0.5074250000000  0.5151540000000 1.0
C      1  0.4746330000000  0.5564370000000  0.4983720000000 1.0
C      1  0.5175530000000  0.5393350000000  0.4938390000000 1.0
C      1  0.5175510000000  0.5042840000000  0.4431410000000 1.0
END
