TITL C-951345-2650-630 -8.47594230043785e-07 125000 -1059.05827172232 0 0 169 (C1) n - 1
REM
REM in /home/bkarasulu/work/CARBON/AIRSS/Generating-Clusters/EDIP-Nigel-Params/with-SteepDescent/Only-C1/SD-CG/HFTN-CG
REM
REM
REM
REM
REM
REM ./C.cell (11c1c37f851c82e70ff6c80c92926a4b)
REM
REM compiler GCC version 9.2.1 20190827 (Red Hat 9.2.1-1)
REM options -cpp -mtune=generic -march=x86-64 -g -O0 -fpre-include=/usr/include/finclude/math-vector-fortran.h
REM seed 1220749090 1120284506 142852723 1062857907 -1779422070 -490662502 1659040874 207768414 -1400130180 39095800 2080425991 1046107871 1017528665 1038741438 -770941108 -415449724 563023444 -1146770225 387483440 1944300339 -1372717562 1126821679 579332161 499532679 -252595273 58884370 1105236628 -1574083293 1442849512 566782392 -1975052963 89606696 764277892
REM
CELL 1.54180   50.00000   50.00000   50.00000   90.00000   90.00000   90.00000
LATT -1
SFAC C  
C      1  0.4323600000000  0.5986700000000  0.4854120000000 1.0
C      1  0.4398160000000  0.4962570000000  0.5962320000000 1.0
C      1  0.4061930000000  0.4790640000000  0.4328440000000 1.0
C      1  0.5082360000000  0.5674860000000  0.5856280000000 1.0
C      1  0.4757070000000  0.4852380000000  0.5265950000000 1.0
C      1  0.5008820000000  0.4876080000000  0.3952270000000 1.0
C      1  0.4511860000000  0.5939780000000  0.4653240000000 1.0
C      1  0.4356820000000  0.5198220000000  0.5160740000000 1.0
C      1  0.5473340000000  0.4891950000000  0.4790490000000 1.0
C      1  0.4178450000000  0.5510430000000  0.4796990000000 1.0
C      1  0.5362380000000  0.4495610000000  0.5295490000000 1.0
C      1  0.5573440000000  0.4910160000000  0.4156950000000 1.0
C      1  0.4539760000000  0.4464210000000  0.5253250000000 1.0
C      1  0.5259420000000  0.4786510000000  0.5265370000000 1.0
C      1  0.5008230000000  0.5225310000000  0.5505600000000 1.0
C      1  0.5223220000000  0.6052010000000  0.4876660000000 1.0
C      1  0.5246820000000  0.4333930000000  0.5532040000000 1.0
C      1  0.4674290000000  0.4623470000000  0.6010420000000 1.0
C      1  0.4096280000000  0.5043730000000  0.5183610000000 1.0
C      1  0.4126360000000  0.4684270000000  0.5567870000000 1.0
C      1  0.3942820000000  0.5203430000000  0.4535010000000 1.0
C      1  0.4343090000000  0.5243410000000  0.4171170000000 1.0
C      1  0.4955320000000  0.5233780000000  0.4390270000000 1.0
C      1  0.4061970000000  0.4799570000000  0.5317420000000 1.0
C      1  0.4954060000000  0.5429000000000  0.5945400000000 1.0
C      1  0.5510800000000  0.5807270000000  0.5570750000000 1.0
C      1  0.4860340000000  0.4500770000000  0.4186110000000 1.0
C      1  0.4737260000000  0.5008440000000  0.3994930000000 1.0
C      1  0.5268960000000  0.4518050000000  0.5769530000000 1.0
C      1  0.4545340000000  0.5421020000000  0.5621240000000 1.0
C      1  0.5543020000000  0.4575640000000  0.5843660000000 1.0
C      1  0.5689940000000  0.5391980000000  0.5439690000000 1.0
C      1  0.5646920000000  0.5695440000000  0.4718110000000 1.0
C      1  0.5684350000000  0.4163460000000  0.5541650000000 1.0
C      1  0.4650180000000  0.4798250000000  0.5527190000000 1.0
C      1  0.5093210000000  0.4755130000000  0.5761580000000 1.0
C      1  0.5476980000000  0.5167840000000  0.4618340000000 1.0
C      1  0.4954300000000  0.4230970000000  0.5450660000000 1.0
C      1  0.4839360000000  0.5288110000000  0.5250090000000 1.0
C      1  0.4766360000000  0.5085930000000  0.4785700000000 1.0
C      1  0.4321120000000  0.4429760000000  0.5534300000000 1.0
C      1  0.5414320000000  0.4102350000000  0.5576490000000 1.0
C      1  0.5036730000000  0.4991390000000  0.4863120000000 1.0
C      1  0.4697150000000  0.5012190000000  0.4475090000000 1.0
C      1  0.5464060000000  0.5776790000000  0.4520010000000 1.0
C      1  0.5847160000000  0.5524140000000  0.4589280000000 1.0
C      1  0.5262860000000  0.5289080000000  0.4020120000000 1.0
C      1  0.4669990000000  0.4080120000000  0.4272080000000 1.0
C      1  0.4617580000000  0.5668850000000  0.4235750000000 1.0
C      1  0.5372280000000  0.5640440000000  0.5056960000000 1.0
C      1  0.3918880000000  0.5341770000000  0.4807290000000 1.0
C      1  0.5509660000000  0.5406120000000  0.4119450000000 1.0
C      1  0.4344770000000  0.4118680000000  0.4911880000000 1.0
C      1  0.4201550000000  0.5597900000000  0.4509550000000 1.0
C      1  0.5575840000000  0.4839950000000  0.5989490000000 1.0
C      1  0.5022370000000  0.4249710000000  0.4259540000000 1.0
C      1  0.5341670000000  0.5584350000000  0.5732970000000 1.0
C      1  0.4974260000000  0.4371500000000  0.5009830000000 1.0
C      1  0.5529890000000  0.4960760000000  0.5633920000000 1.0
C      1  0.4861750000000  0.6023780000000  0.5227620000000 1.0
C      1  0.5688380000000  0.5860860000000  0.4970280000000 1.0
C      1  0.5408460000000  0.5097910000000  0.6035710000000 1.0
C      1  0.4639650000000  0.5879980000000  0.5626440000000 1.0
C      1  0.5718730000000  0.4821160000000  0.5449460000000 1.0
C      1  0.4451560000000  0.4163780000000  0.5207110000000 1.0
C      1  0.5418340000000  0.5429190000000  0.5294000000000 1.0
C      1  0.4791550000000  0.5983010000000  0.4694470000000 1.0
C      1  0.5037480000000  0.3996100000000  0.4671940000000 1.0
C      1  0.4788090000000  0.5278130000000  0.5750170000000 1.0
C      1  0.4446310000000  0.5740020000000  0.4456770000000 1.0
C      1  0.3903150000000  0.5155030000000  0.5017500000000 1.0
C      1  0.5719170000000  0.4493530000000  0.4804710000000 1.0
C      1  0.5649880000000  0.5231310000000  0.5686120000000 1.0
C      1  0.5485410000000  0.3936560000000  0.4635860000000 1.0
C      1  0.5744220000000  0.4415330000000  0.5684980000000 1.0
C      1  0.5003110000000  0.4796320000000  0.5102180000000 1.0
C      1  0.4674560000000  0.5063780000000  0.5944320000000 1.0
C      1  0.4507300000000  0.5675820000000  0.5176130000000 1.0
C      1  0.5442210000000  0.6022920000000  0.5087890000000 1.0
C      1  0.5063890000000  0.5651340000000  0.4943590000000 1.0
C      1  0.4285600000000  0.5739020000000  0.4977240000000 1.0
C      1  0.5766200000000  0.5683060000000  0.5460970000000 1.0
C      1  0.5059560000000  0.4258140000000  0.4546580000000 1.0
C      1  0.4804800000000  0.4642200000000  0.5737670000000 1.0
C      1  0.5262030000000  0.4477310000000  0.3914560000000 1.0
C      1  0.5767580000000  0.4977330000000  0.5208890000000 1.0
C      1  0.4875130000000  0.4992570000000  0.6145340000000 1.0
C      1  0.5307990000000  0.5412610000000  0.4717000000000 1.0
C      1  0.5875180000000  0.5249980000000  0.5260840000000 1.0
C      1  0.5274940000000  0.4471050000000  0.4565690000000 1.0
C      1  0.4976860000000  0.5884710000000  0.4493350000000 1.0
C      1  0.4809590000000  0.4727590000000  0.4418470000000 1.0
C      1  0.4935730000000  0.6068060000000  0.4941550000000 1.0
C      1  0.4209670000000  0.4924620000000  0.5736920000000 1.0
C      1  0.4436800000000  0.4505960000000  0.4328670000000 1.0
C      1  0.4539640000000  0.5436350000000  0.4075510000000 1.0
C      1  0.5696560000000  0.5185790000000  0.4208970000000 1.0
C      1  0.5941960000000  0.4826620000000  0.5027830000000 1.0
C      1  0.4470950000000  0.4423130000000  0.6018630000000 1.0
C      1  0.4595530000000  0.5929040000000  0.5328140000000 1.0
C      1  0.6077040000000  0.5131610000000  0.4675890000000 1.0
C      1  0.4072540000000  0.4942640000000  0.4562820000000 1.0
C      1  0.4434210000000  0.4644790000000  0.5046820000000 1.0
C      1  0.5345560000000  0.5946980000000  0.5367830000000 1.0
C      1  0.4773920000000  0.5298740000000  0.3972570000000 1.0
C      1  0.4661680000000  0.4586240000000  0.4635520000000 1.0
C      1  0.5486230000000  0.4394520000000  0.4363870000000 1.0
C      1  0.5216610000000  0.5441930000000  0.5502060000000 1.0
C      1  0.4376320000000  0.5458450000000  0.5354520000000 1.0
C      1  0.5188140000000  0.4834150000000  0.4628250000000 1.0
C      1  0.5295710000000  0.4311470000000  0.4135550000000 1.0
C      1  0.4840590000000  0.4418650000000  0.5258070000000 1.0
C      1  0.5232080000000  0.5904940000000  0.4621750000000 1.0
C      1  0.4932430000000  0.5831190000000  0.5649490000000 1.0
C      1  0.4653800000000  0.5089560000000  0.5142360000000 1.0
C      1  0.5671770000000  0.4544840000000  0.5333100000000 1.0
C      1  0.5470740000000  0.5633590000000  0.4281320000000 1.0
C      1  0.5798680000000  0.4084190000000  0.5004650000000 1.0
C      1  0.5213510000000  0.4938820000000  0.5537210000000 1.0
C      1  0.4444100000000  0.4992470000000  0.5577380000000 1.0
C      1  0.5156670000000  0.5260830000000  0.4946910000000 1.0
C      1  0.5782160000000  0.4121200000000  0.5276900000000 1.0
C      1  0.5271600000000  0.4342950000000  0.5044420000000 1.0
C      1  0.4119530000000  0.5562040000000  0.5446950000000 1.0
C      1  0.4991660000000  0.5460100000000  0.4600140000000 1.0
C      1  0.5634660000000  0.4145200000000  0.4519590000000 1.0
C      1  0.4454500000000  0.4972710000000  0.4114080000000 1.0
C      1  0.5353000000000  0.5204660000000  0.5136260000000 1.0
C      1  0.4604010000000  0.4344690000000  0.4164430000000 1.0
C      1  0.5272270000000  0.4031110000000  0.5081360000000 1.0
C      1  0.5808240000000  0.4690080000000  0.4591220000000 1.0
C      1  0.4793020000000  0.5522250000000  0.5067550000000 1.0
C      1  0.4305590000000  0.4732740000000  0.4207150000000 1.0
C      1  0.5907600000000  0.4915050000000  0.4752070000000 1.0
C      1  0.4355170000000  0.5007000000000  0.4659830000000 1.0
C      1  0.5803680000000  0.4220820000000  0.4752210000000 1.0
C      1  0.4493770000000  0.4307490000000  0.5759530000000 1.0
C      1  0.4598150000000  0.3989040000000  0.4828200000000 1.0
C      1  0.5192690000000  0.5044250000000  0.4389660000000 1.0
C      1  0.4740340000000  0.5394710000000  0.4791250000000 1.0
C      1  0.4454020000000  0.5674750000000  0.5740030000000 1.0
C      1  0.4133570000000  0.5358890000000  0.4355320000000 1.0
C      1  0.5064210000000  0.5975850000000  0.5432950000000 1.0
C      1  0.5837370000000  0.4557100000000  0.5070090000000 1.0
C      1  0.4472890000000  0.4754260000000  0.4790150000000 1.0
C      1  0.4372200000000  0.5273930000000  0.4851730000000 1.0
C      1  0.5637780000000  0.4673250000000  0.4346400000000 1.0
C      1  0.5751130000000  0.5234160000000  0.4498890000000 1.0
C      1  0.4791130000000  0.3942640000000  0.5035010000000 1.0
C      1  0.5510460000000  0.5360370000000  0.5901950000000 1.0
C      1  0.4822760000000  0.4728340000000  0.6231150000000 1.0
C      1  0.5861590000000  0.5718930000000  0.5165660000000 1.0
C      1  0.4998150000000  0.5401070000000  0.4132150000000 1.0
C      1  0.4906750000000  0.5716430000000  0.4257300000000 1.0
C      1  0.5003640000000  0.3985550000000  0.5226990000000 1.0
C      1  0.5114860000000  0.5078200000000  0.5977870000000 1.0
C      1  0.5915300000000  0.5447030000000  0.5053420000000 1.0
C      1  0.4897690000000  0.4563390000000  0.4818430000000 1.0
C      1  0.5412220000000  0.4502680000000  0.4822860000000 1.0
C      1  0.5006090000000  0.4589960000000  0.3942170000000 1.0
C      1  0.4673150000000  0.3980030000000  0.4544760000000 1.0
C      1  0.5267560000000  0.3894610000000  0.4810870000000 1.0
C      1  0.6039140000000  0.5406040000000  0.4782970000000 1.0
C      1  0.5475500000000  0.4954630000000  0.5096780000000 1.0
C      1  0.4099750000000  0.4150920000000  0.5095200000000 1.0
C      1  0.4786610000000  0.4336150000000  0.5690680000000 1.0
C      1  0.4183490000000  0.5715560000000  0.5664220000000 1.0
C      1  0.5270750000000  0.4997430000000  0.4094000000000 1.0
C      1  0.4171450000000  0.4191940000000  0.5385460000000 1.0
END
