TITL C-950523-3027-674 -9.65518887551695e-07 125000 -1102.0698438414 0 0 174 (C1) n - 1
REM
REM in /home/bkarasulu/work/CARBON/AIRSS/Generating-Clusters/EDIP-Nigel-Params/with-SteepDescent/Only-C1/SD-CG/HFTN-CG
REM
REM
REM
REM
REM
REM ./C.cell (11c1c37f851c82e70ff6c80c92926a4b)
REM
REM compiler GCC version 9.2.1 20190827 (Red Hat 9.2.1-1)
REM options -cpp -mtune=generic -march=x86-64 -g -O0 -fpre-include=/usr/include/finclude/math-vector-fortran.h
REM seed -1146190270 1169839821 1376870822 -1444575714 67321349 1622068825 746400017 -1994439076 1264629596 -1728263157 -1839906392 -1402702036 -900927461 1858445896 -711661335 -1438649697 1737519434 550092903 1172168859 1296422658 1053802760 470521492 -1222484822 2011152030 -368013273 -1920867131 -84128841 667142057 1743180485 986207935 -1912844013 1512525703 -20520857
REM
CELL 1.54180   50.00000   50.00000   50.00000   90.00000   90.00000   90.00000
LATT -1
SFAC C  
C      1  0.4847230000000  0.6078270000000  0.5353490000000 1.0
C      1  0.4125840000000  0.4876090000000  0.4368160000000 1.0
C      1  0.5949730000000  0.5183670000000  0.5172770000000 1.0
C      1  0.5288240000000  0.4881670000000  0.3922730000000 1.0
C      1  0.5439950000000  0.4082860000000  0.4354770000000 1.0
C      1  0.4295880000000  0.5954090000000  0.4897380000000 1.0
C      1  0.5701090000000  0.5557820000000  0.5330190000000 1.0
C      1  0.4270820000000  0.5497440000000  0.4694720000000 1.0
C      1  0.4492200000000  0.4696830000000  0.4886200000000 1.0
C      1  0.4805480000000  0.6058480000000  0.4676800000000 1.0
C      1  0.5097290000000  0.5343390000000  0.3936170000000 1.0
C      1  0.4232590000000  0.5305690000000  0.4140460000000 1.0
C      1  0.5955370000000  0.4503070000000  0.5317960000000 1.0
C      1  0.6156390000000  0.5103390000000  0.4707430000000 1.0
C      1  0.5565050000000  0.4423700000000  0.5709800000000 1.0
C      1  0.4632860000000  0.4066450000000  0.5315320000000 1.0
C      1  0.5664900000000  0.4566700000000  0.4876550000000 1.0
C      1  0.4771500000000  0.5691960000000  0.4976300000000 1.0
C      1  0.4145130000000  0.5348960000000  0.4429270000000 1.0
C      1  0.4413360000000  0.4923690000000  0.5917990000000 1.0
C      1  0.5334510000000  0.4045380000000  0.5493480000000 1.0
C      1  0.4023690000000  0.5416900000000  0.5645560000000 1.0
C      1  0.4891810000000  0.4084810000000  0.4666770000000 1.0
C      1  0.4654200000000  0.5411000000000  0.4225990000000 1.0
C      1  0.4869960000000  0.5990610000000  0.4981740000000 1.0
C      1  0.5953500000000  0.4844490000000  0.4371940000000 1.0
C      1  0.4893970000000  0.4223210000000  0.5315510000000 1.0
C      1  0.5653320000000  0.4280210000000  0.4986310000000 1.0
C      1  0.4616740000000  0.4621810000000  0.5381980000000 1.0
C      1  0.4673260000000  0.5512870000000  0.6013550000000 1.0
C      1  0.5472710000000  0.4314480000000  0.5452060000000 1.0
C      1  0.5931130000000  0.4927010000000  0.4660470000000 1.0
C      1  0.5509290000000  0.5010180000000  0.4418150000000 1.0
C      1  0.4166280000000  0.4627790000000  0.4521560000000 1.0
C      1  0.5836800000000  0.5637660000000  0.5078930000000 1.0
C      1  0.5780770000000  0.5288100000000  0.5382470000000 1.0
C      1  0.5552720000000  0.5831320000000  0.4681440000000 1.0
C      1  0.5017750000000  0.4431090000000  0.5530880000000 1.0
C      1  0.4859370000000  0.5705380000000  0.5764240000000 1.0
C      1  0.5450190000000  0.5640860000000  0.5774780000000 1.0
C      1  0.5248210000000  0.4408190000000  0.4844490000000 1.0
C      1  0.4411560000000  0.5682720000000  0.5545820000000 1.0
C      1  0.4837040000000  0.5252180000000  0.4033780000000 1.0
C      1  0.5040350000000  0.4687600000000  0.4382950000000 1.0
C      1  0.4387580000000  0.4229860000000  0.5717470000000 1.0
C      1  0.4783010000000  0.5376200000000  0.5339270000000 1.0
C      1  0.4149170000000  0.5425440000000  0.5192720000000 1.0
C      1  0.5545320000000  0.5709480000000  0.4406290000000 1.0
C      1  0.5105590000000  0.4605050000000  0.3900140000000 1.0
C      1  0.5052890000000  0.5024700000000  0.5341220000000 1.0
C      1  0.6066440000000  0.4692110000000  0.5108920000000 1.0
C      1  0.5340790000000  0.4470200000000  0.5902260000000 1.0
C      1  0.5173220000000  0.3947060000000  0.5029060000000 1.0
C      1  0.4087630000000  0.5376060000000  0.4914210000000 1.0
C      1  0.4844670000000  0.4391150000000  0.5054480000000 1.0
C      1  0.5245580000000  0.5527450000000  0.5214510000000 1.0
C      1  0.4832170000000  0.4976310000000  0.5530080000000 1.0
C      1  0.5378060000000  0.4720700000000  0.4387270000000 1.0
C      1  0.4294610000000  0.4704540000000  0.5748500000000 1.0
C      1  0.4552690000000  0.5244900000000  0.5222890000000 1.0
C      1  0.5246580000000  0.5223940000000  0.6014460000000 1.0
C      1  0.5414280000000  0.4027220000000  0.4626750000000 1.0
C      1  0.5934200000000  0.4685930000000  0.4844060000000 1.0
C      1  0.3982390000000  0.5306080000000  0.5394100000000 1.0
C      1  0.4792660000000  0.5984450000000  0.5647660000000 1.0
C      1  0.4881210000000  0.4582230000000  0.4610350000000 1.0
C      1  0.4672840000000  0.4956290000000  0.4485110000000 1.0
C      1  0.5072920000000  0.6001080000000  0.4545880000000 1.0
C      1  0.5287290000000  0.5847200000000  0.5249420000000 1.0
C      1  0.4260430000000  0.4507750000000  0.4975600000000 1.0
C      1  0.5272540000000  0.5924570000000  0.4753210000000 1.0
C      1  0.5110090000000  0.4007400000000  0.5303360000000 1.0
C      1  0.4422820000000  0.4407890000000  0.4164210000000 1.0
C      1  0.4041040000000  0.4594010000000  0.4786540000000 1.0
C      1  0.4605170000000  0.4629450000000  0.4192100000000 1.0
C      1  0.3906750000000  0.4838340000000  0.4913300000000 1.0
C      1  0.4278710000000  0.5004190000000  0.4145040000000 1.0
C      1  0.5764340000000  0.5381410000000  0.4656830000000 1.0
C      1  0.5592250000000  0.4869980000000  0.5866210000000 1.0
C      1  0.5607510000000  0.5749150000000  0.5538550000000 1.0
C      1  0.5748470000000  0.4392130000000  0.4429930000000 1.0
C      1  0.5258230000000  0.5245050000000  0.5428950000000 1.0
C      1  0.6119820000000  0.4889800000000  0.5523800000000 1.0
C      1  0.4569370000000  0.4044740000000  0.5033900000000 1.0
C      1  0.4298210000000  0.5661080000000  0.5272450000000 1.0
C      1  0.5334050000000  0.4401980000000  0.3990930000000 1.0
C      1  0.5178320000000  0.6004450000000  0.5019670000000 1.0
C      1  0.4532470000000  0.5347400000000  0.4715430000000 1.0
C      1  0.4419120000000  0.4461240000000  0.5865750000000 1.0
C      1  0.4520020000000  0.5214370000000  0.4444810000000 1.0
C      1  0.4597760000000  0.5881270000000  0.4530990000000 1.0
C      1  0.5121300000000  0.4298160000000  0.5789990000000 1.0
C      1  0.4456660000000  0.5054970000000  0.5442770000000 1.0
C      1  0.4695230000000  0.4580570000000  0.5893110000000 1.0
C      1  0.4228320000000  0.5574000000000  0.5755020000000 1.0
C      1  0.4347890000000  0.5797600000000  0.4674880000000 1.0
C      1  0.3928110000000  0.4804390000000  0.5207930000000 1.0
C      1  0.5391440000000  0.5457540000000  0.4950780000000 1.0
C      1  0.5682460000000  0.4691040000000  0.5636790000000 1.0
C      1  0.4601660000000  0.4676820000000  0.4577720000000 1.0
C      1  0.5701830000000  0.4155100000000  0.4287390000000 1.0
C      1  0.5641320000000  0.5591140000000  0.4849780000000 1.0
C      1  0.4925920000000  0.4954590000000  0.4349230000000 1.0
C      1  0.5728430000000  0.5478790000000  0.4371710000000 1.0
C      1  0.4557400000000  0.6058280000000  0.5283670000000 1.0
C      1  0.4411010000000  0.5407260000000  0.5914220000000 1.0
C      1  0.4366440000000  0.4965250000000  0.4901660000000 1.0
C      1  0.4642850000000  0.4060850000000  0.4537660000000 1.0
C      1  0.5220520000000  0.4035300000000  0.5751440000000 1.0
C      1  0.5648720000000  0.5083450000000  0.4681770000000 1.0
C      1  0.4914590000000  0.4537310000000  0.4145680000000 1.0
C      1  0.4511210000000  0.4865830000000  0.4022600000000 1.0
C      1  0.5383380000000  0.4138410000000  0.4890570000000 1.0
C      1  0.4730790000000  0.4659960000000  0.5102030000000 1.0
C      1  0.4430480000000  0.5493560000000  0.4060340000000 1.0
C      1  0.5452830000000  0.5020790000000  0.4912960000000 1.0
C      1  0.5138370000000  0.5310840000000  0.5737860000000 1.0
C      1  0.4368650000000  0.4219540000000  0.4898450000000 1.0
C      1  0.5214320000000  0.5485920000000  0.4725770000000 1.0
C      1  0.5477990000000  0.5969830000000  0.5421420000000 1.0
C      1  0.5950500000000  0.4566750000000  0.4349600000000 1.0
C      1  0.4837160000000  0.5202520000000  0.5737910000000 1.0
C      1  0.5346890000000  0.5177350000000  0.3935560000000 1.0
C      1  0.4678830000000  0.5525460000000  0.5583640000000 1.0
C      1  0.3906460000000  0.5041730000000  0.5357360000000 1.0
C      1  0.4771600000000  0.5655540000000  0.4429300000000 1.0
C      1  0.4490580000000  0.5159400000000  0.5751800000000 1.0
C      1  0.4465720000000  0.5836470000000  0.5100070000000 1.0
C      1  0.6128270000000  0.4955080000000  0.5245510000000 1.0
C      1  0.4162450000000  0.4629380000000  0.5251750000000 1.0
C      1  0.5507900000000  0.4770550000000  0.5071370000000 1.0
C      1  0.5651830000000  0.5270670000000  0.4155620000000 1.0
C      1  0.4033400000000  0.5096540000000  0.4528690000000 1.0
C      1  0.5596460000000  0.5140870000000  0.5758000000000 1.0
C      1  0.4941360000000  0.5537590000000  0.5165790000000 1.0
C      1  0.4809540000000  0.4654990000000  0.5605040000000 1.0
C      1  0.5247630000000  0.4624790000000  0.5096870000000 1.0
C      1  0.5518260000000  0.4517580000000  0.4584790000000 1.0
C      1  0.5269710000000  0.5586580000000  0.4438250000000 1.0
C      1  0.5716050000000  0.4316560000000  0.5266160000000 1.0
C      1  0.5261340000000  0.4514780000000  0.5375080000000 1.0
C      1  0.5030610000000  0.4855770000000  0.5089930000000 1.0
C      1  0.4706870000000  0.5034550000000  0.3910410000000 1.0
C      1  0.5097740000000  0.5152890000000  0.4456340000000 1.0
C      1  0.4491710000000  0.5972020000000  0.5575970000000 1.0
C      1  0.5566770000000  0.5397090000000  0.5901800000000 1.0
C      1  0.5550660000000  0.5124790000000  0.5469420000000 1.0
C      1  0.4309280000000  0.4397100000000  0.4420910000000 1.0
C      1  0.5043550000000  0.5770860000000  0.4363620000000 1.0
C      1  0.5740040000000  0.4975750000000  0.4213670000000 1.0
C      1  0.4906510000000  0.3924780000000  0.4901740000000 1.0
C      1  0.5030530000000  0.5259120000000  0.4719440000000 1.0
C      1  0.4774690000000  0.5514900000000  0.4709320000000 1.0
C      1  0.5157270000000  0.4957540000000  0.6084670000000 1.0
C      1  0.5251590000000  0.5329640000000  0.4282760000000 1.0
C      1  0.4652820000000  0.4822500000000  0.6065220000000 1.0
C      1  0.5158920000000  0.5035490000000  0.4882070000000 1.0
C      1  0.6052280000000  0.5360290000000  0.4737850000000 1.0
C      1  0.4869050000000  0.5020690000000  0.6131640000000 1.0
C      1  0.4364140000000  0.4749630000000  0.5447890000000 1.0
C      1  0.4953130000000  0.4247590000000  0.4204940000000 1.0
C      1  0.5974910000000  0.4652520000000  0.5577450000000 1.0
C      1  0.4563880000000  0.5159360000000  0.4945870000000 1.0
C      1  0.4428770000000  0.4089570000000  0.5498010000000 1.0
C      1  0.5238460000000  0.4240040000000  0.4211090000000 1.0
C      1  0.4798200000000  0.5298960000000  0.6156900000000 1.0
C      1  0.4083930000000  0.5074760000000  0.4822710000000 1.0
C      1  0.6040400000000  0.5421590000000  0.5024110000000 1.0
C      1  0.5449260000000  0.4671920000000  0.4084010000000 1.0
C      1  0.5323330000000  0.4766570000000  0.5931870000000 1.0
C      1  0.5569050000000  0.4835320000000  0.5379190000000 1.0
C      1  0.4961210000000  0.4359410000000  0.4781550000000 1.0
C      1  0.5145870000000  0.5605790000000  0.5726940000000 1.0
C      1  0.4411180000000  0.4199570000000  0.4609420000000 1.0
END
