TITL C-951343-2256-99 1.02291984746741e-06 125000 -1187.74979846827 0 0 190 (C1) n - 1
REM
REM in /home/bkarasulu/work/CARBON/AIRSS/Generating-Clusters/EDIP-Nigel-Params/with-SteepDescent/Only-C1/SD-CG/HFTN-CG
REM
REM
REM
REM
REM
REM ./C.cell (11c1c37f851c82e70ff6c80c92926a4b)
REM
REM compiler GCC version 9.2.1 20190827 (Red Hat 9.2.1-1)
REM options -cpp -mtune=generic -march=x86-64 -g -O0 -fpre-include=/usr/include/finclude/math-vector-fortran.h
REM seed -314941187 -2065683581 -1113316705 -1924575494 1321992484 1749035688 -911837147 317885720 1716915143 -456320256 422326419 -1435281636 952971785 1477758295 640406591 511494398 291881420 -1037742447 -1944502244 323320292 -946113618 1071501252 2012657018 29408786 -812409172 -93710087 411764877 601665216 1008909164 -1428349341 -1026519813 -1725314588 1049746267
REM
CELL 1.54180   50.00000   50.00000   50.00000   90.00000   90.00000   90.00000
LATT -1
SFAC C  
C      1  0.5179560000000  0.4896230000000  0.4794090000000 1.0
C      1  0.4587870000000  0.4619490000000  0.5142320000000 1.0
C      1  0.5676570000000  0.5203340000000  0.4066260000000 1.0
C      1  0.5855840000000  0.5366580000000  0.4684210000000 1.0
C      1  0.4137660000000  0.5195350000000  0.5031670000000 1.0
C      1  0.4576020000000  0.5268920000000  0.4085050000000 1.0
C      1  0.4451240000000  0.4164790000000  0.4994990000000 1.0
C      1  0.5391390000000  0.5920140000000  0.5373230000000 1.0
C      1  0.4539020000000  0.4260720000000  0.5980990000000 1.0
C      1  0.5822360000000  0.5671620000000  0.4635660000000 1.0
C      1  0.4859290000000  0.4046480000000  0.5680990000000 1.0
C      1  0.5659220000000  0.4913640000000  0.6045850000000 1.0
C      1  0.4834600000000  0.5450980000000  0.5242500000000 1.0
C      1  0.4724510000000  0.5891330000000  0.5621600000000 1.0
C      1  0.4903080000000  0.4466670000000  0.3908540000000 1.0
C      1  0.5345920000000  0.4780700000000  0.5286950000000 1.0
C      1  0.4112620000000  0.4759810000000  0.5190390000000 1.0
C      1  0.4088870000000  0.4447610000000  0.5231690000000 1.0
C      1  0.4916120000000  0.5931060000000  0.4249510000000 1.0
C      1  0.5144130000000  0.5011570000000  0.4244010000000 1.0
C      1  0.5994880000000  0.5425750000000  0.5143790000000 1.0
C      1  0.5022950000000  0.4166730000000  0.4282410000000 1.0
C      1  0.5113110000000  0.5618100000000  0.5695130000000 1.0
C      1  0.4935680000000  0.5091700000000  0.4901530000000 1.0
C      1  0.4974100000000  0.5415660000000  0.4295080000000 1.0
C      1  0.5488370000000  0.4137750000000  0.4342180000000 1.0
C      1  0.5676630000000  0.4611760000000  0.4368450000000 1.0
C      1  0.5327930000000  0.4531710000000  0.5121570000000 1.0
C      1  0.4122440000000  0.5257890000000  0.4591600000000 1.0
C      1  0.5431980000000  0.5111570000000  0.5676660000000 1.0
C      1  0.3860630000000  0.5129370000000  0.4546000000000 1.0
C      1  0.5014750000000  0.5327470000000  0.4725080000000 1.0
C      1  0.4272500000000  0.4934310000000  0.4300260000000 1.0
C      1  0.4933500000000  0.6014610000000  0.5458450000000 1.0
C      1  0.4615010000000  0.5032760000000  0.4848960000000 1.0
C      1  0.4562310000000  0.4706270000000  0.4856800000000 1.0
C      1  0.6189150000000  0.5030490000000  0.4576300000000 1.0
C      1  0.4220350000000  0.5701050000000  0.4492350000000 1.0
C      1  0.5797760000000  0.5710750000000  0.4357800000000 1.0
C      1  0.5785880000000  0.5110780000000  0.5237530000000 1.0
C      1  0.5982620000000  0.4650550000000  0.4357820000000 1.0
C      1  0.4608060000000  0.5858640000000  0.4204400000000 1.0
C      1  0.5122240000000  0.5795130000000  0.5409790000000 1.0
C      1  0.5746120000000  0.4416730000000  0.5365130000000 1.0
C      1  0.4527030000000  0.6066530000000  0.5213320000000 1.0
C      1  0.4725860000000  0.5220420000000  0.4353020000000 1.0
C      1  0.4511990000000  0.5242840000000  0.4614500000000 1.0
C      1  0.5486440000000  0.5133200000000  0.6107340000000 1.0
C      1  0.5031970000000  0.5292590000000  0.6063000000000 1.0
C      1  0.4662980000000  0.4328550000000  0.4019070000000 1.0
C      1  0.4712450000000  0.4999300000000  0.3876120000000 1.0
C      1  0.5467850000000  0.5367790000000  0.4187330000000 1.0
C      1  0.5467700000000  0.5035880000000  0.5191560000000 1.0
C      1  0.5370480000000  0.4002680000000  0.4954750000000 1.0
C      1  0.5149930000000  0.5032820000000  0.5662680000000 1.0
C      1  0.4164630000000  0.5487580000000  0.5542620000000 1.0
C      1  0.5021870000000  0.6010160000000  0.4518220000000 1.0
C      1  0.5921000000000  0.5124200000000  0.5513120000000 1.0
C      1  0.4915160000000  0.4712090000000  0.4490020000000 1.0
C      1  0.4506020000000  0.4752140000000  0.6094840000000 1.0
C      1  0.5199990000000  0.4574120000000  0.4840430000000 1.0
C      1  0.5113730000000  0.4169560000000  0.5726820000000 1.0
C      1  0.4674350000000  0.5534540000000  0.5959860000000 1.0
C      1  0.3985890000000  0.4894270000000  0.5903680000000 1.0
C      1  0.6085510000000  0.4582680000000  0.4843880000000 1.0
C      1  0.5862990000000  0.4852740000000  0.5589280000000 1.0
C      1  0.3921700000000  0.4876680000000  0.4663730000000 1.0
C      1  0.4485390000000  0.4822090000000  0.3896830000000 1.0
C      1  0.5640970000000  0.4558610000000  0.4806210000000 1.0
C      1  0.5175600000000  0.4760930000000  0.5538890000000 1.0
C      1  0.5236090000000  0.4087030000000  0.4461000000000 1.0
C      1  0.5266140000000  0.3978900000000  0.5231150000000 1.0
C      1  0.4155790000000  0.4492020000000  0.4514270000000 1.0
C      1  0.5573820000000  0.5000740000000  0.3903730000000 1.0
C      1  0.5530950000000  0.5631660000000  0.4303510000000 1.0
C      1  0.4420760000000  0.4486080000000  0.4083340000000 1.0
C      1  0.4470500000000  0.5157720000000  0.5761510000000 1.0
C      1  0.4925550000000  0.4770180000000  0.3908060000000 1.0
C      1  0.4477290000000  0.4238040000000  0.5472760000000 1.0
C      1  0.4954570000000  0.4523970000000  0.6107270000000 1.0
C      1  0.4624340000000  0.5572190000000  0.4024060000000 1.0
C      1  0.5589990000000  0.4542230000000  0.4085060000000 1.0
C      1  0.5182230000000  0.4768650000000  0.4077780000000 1.0
C      1  0.5834150000000  0.5062210000000  0.4280460000000 1.0
C      1  0.4767060000000  0.5340280000000  0.6169420000000 1.0
C      1  0.5386890000000  0.4482150000000  0.4587820000000 1.0
C      1  0.4372980000000  0.4668650000000  0.5581030000000 1.0
C      1  0.4344970000000  0.4357730000000  0.4343540000000 1.0
C      1  0.5172600000000  0.4011980000000  0.4734880000000 1.0
C      1  0.5615620000000  0.4859670000000  0.5762690000000 1.0
C      1  0.4866520000000  0.5742800000000  0.5855930000000 1.0
C      1  0.5409400000000  0.5350760000000  0.5501820000000 1.0
C      1  0.5147900000000  0.4330660000000  0.5981240000000 1.0
C      1  0.4587230000000  0.5038200000000  0.6017430000000 1.0
C      1  0.5391450000000  0.5656000000000  0.5821830000000 1.0
C      1  0.4735030000000  0.4157830000000  0.4249870000000 1.0
C      1  0.4537410000000  0.4169100000000  0.4463200000000 1.0
C      1  0.4221400000000  0.5311410000000  0.5777030000000 1.0
C      1  0.4694050000000  0.5354230000000  0.5707780000000 1.0
C      1  0.5287790000000  0.6077960000000  0.4613660000000 1.0
C      1  0.5558180000000  0.5782990000000  0.5592180000000 1.0
C      1  0.4903280000000  0.4271270000000  0.5143180000000 1.0
C      1  0.5823550000000  0.5352480000000  0.5669710000000 1.0
C      1  0.4239440000000  0.4401590000000  0.5499600000000 1.0
C      1  0.4196870000000  0.5427790000000  0.4367680000000 1.0
C      1  0.4954740000000  0.4374870000000  0.4840830000000 1.0
C      1  0.5187130000000  0.5283620000000  0.4146260000000 1.0
C      1  0.5609270000000  0.4336420000000  0.5118760000000 1.0
C      1  0.4693390000000  0.4638330000000  0.5665610000000 1.0
C      1  0.5936720000000  0.4984920000000  0.4987330000000 1.0
C      1  0.5538000000000  0.5391740000000  0.5920620000000 1.0
C      1  0.4616600000000  0.4110310000000  0.4746720000000 1.0
C      1  0.5702380000000  0.4864930000000  0.4785720000000 1.0
C      1  0.5438010000000  0.4289790000000  0.4103330000000 1.0
C      1  0.4296640000000  0.5212940000000  0.4183370000000 1.0
C      1  0.5535820000000  0.4370130000000  0.5560060000000 1.0
C      1  0.3970950000000  0.4926550000000  0.5400700000000 1.0
C      1  0.4404630000000  0.4782400000000  0.5302420000000 1.0
C      1  0.4831060000000  0.6083990000000  0.4719500000000 1.0
C      1  0.4846670000000  0.3905220000000  0.5438770000000 1.0
C      1  0.5192910000000  0.5060300000000  0.6157500000000 1.0
C      1  0.5461090000000  0.5972410000000  0.5085420000000 1.0
C      1  0.5530330000000  0.5292680000000  0.4787940000000 1.0
C      1  0.4425820000000  0.5929620000000  0.4968100000000 1.0
C      1  0.5005320000000  0.5292440000000  0.5762490000000 1.0
C      1  0.5322100000000  0.5016180000000  0.4479400000000 1.0
C      1  0.4385370000000  0.5624970000000  0.5371740000000 1.0
C      1  0.5444650000000  0.4755460000000  0.3938950000000 1.0
C      1  0.5743620000000  0.5538890000000  0.5196550000000 1.0
C      1  0.4653850000000  0.4255250000000  0.5713340000000 1.0
C      1  0.5464320000000  0.5016890000000  0.4900690000000 1.0
C      1  0.5553170000000  0.5761130000000  0.4773960000000 1.0
C      1  0.5009260000000  0.5644830000000  0.5103010000000 1.0
C      1  0.4236730000000  0.4518960000000  0.4785280000000 1.0
C      1  0.6029640000000  0.5271370000000  0.4910340000000 1.0
C      1  0.5154120000000  0.4578400000000  0.4361730000000 1.0
C      1  0.5272800000000  0.5261230000000  0.5263020000000 1.0
C      1  0.4559960000000  0.5982080000000  0.4706400000000 1.0
C      1  0.4492380000000  0.4777140000000  0.4188440000000 1.0
C      1  0.4656480000000  0.4500120000000  0.6081110000000 1.0
C      1  0.4190770000000  0.4309280000000  0.4975180000000 1.0
C      1  0.5872970000000  0.4677850000000  0.5349860000000 1.0
C      1  0.4377630000000  0.5631910000000  0.5028500000000 1.0
C      1  0.5641460000000  0.3959370000000  0.4903370000000 1.0
C      1  0.4969410000000  0.3974080000000  0.5189900000000 1.0
C      1  0.6095810000000  0.4761980000000  0.4604020000000 1.0
C      1  0.4052520000000  0.5412260000000  0.4830370000000 1.0
C      1  0.4915340000000  0.5636970000000  0.4108320000000 1.0
C      1  0.4881920000000  0.4731520000000  0.5454240000000 1.0
C      1  0.4974640000000  0.6063930000000  0.4966170000000 1.0
C      1  0.5829250000000  0.4154630000000  0.4967210000000 1.0
C      1  0.5136500000000  0.4326950000000  0.4066500000000 1.0
C      1  0.5880010000000  0.4375260000000  0.4778470000000 1.0
C      1  0.4593070000000  0.5474860000000  0.4840880000000 1.0
C      1  0.4473430000000  0.5836790000000  0.4467980000000 1.0
C      1  0.5651390000000  0.5516080000000  0.5483710000000 1.0
C      1  0.5068960000000  0.4803930000000  0.6031770000000 1.0
C      1  0.4962910000000  0.5183940000000  0.5208920000000 1.0
C      1  0.5285500000000  0.4208100000000  0.5470880000000 1.0
C      1  0.5379020000000  0.4490030000000  0.5981180000000 1.0
C      1  0.5626800000000  0.4908850000000  0.4458480000000 1.0
C      1  0.5367020000000  0.5652650000000  0.4544440000000 1.0
C      1  0.5295860000000  0.5351370000000  0.4594670000000 1.0
C      1  0.5276770000000  0.5506900000000  0.5108510000000 1.0
C      1  0.4803720000000  0.5009220000000  0.5386260000000 1.0
C      1  0.6000270000000  0.5217140000000  0.4468930000000 1.0
C      1  0.3916650000000  0.5430540000000  0.5427540000000 1.0
C      1  0.6008920000000  0.4854510000000  0.4159410000000 1.0
C      1  0.4776830000000  0.4572990000000  0.4701640000000 1.0
C      1  0.4133920000000  0.4896400000000  0.5653170000000 1.0
C      1  0.3963050000000  0.5195670000000  0.5278110000000 1.0
C      1  0.4095030000000  0.4913480000000  0.4914220000000 1.0
C      1  0.4884170000000  0.3982340000000  0.4807720000000 1.0
C      1  0.4451240000000  0.5200960000000  0.5081540000000 1.0
C      1  0.5259560000000  0.6068700000000  0.4899820000000 1.0
C      1  0.4668130000000  0.5538630000000  0.5467720000000 1.0
C      1  0.4114650000000  0.5687730000000  0.4767720000000 1.0
C      1  0.4602030000000  0.4321520000000  0.5204070000000 1.0
C      1  0.4778110000000  0.4904040000000  0.4300820000000 1.0
C      1  0.6060480000000  0.4739540000000  0.5115030000000 1.0
C      1  0.4517960000000  0.5052490000000  0.5333340000000 1.0
C      1  0.4822390000000  0.6110860000000  0.5210410000000 1.0
C      1  0.5124660000000  0.4396860000000  0.5296830000000 1.0
C      1  0.4447670000000  0.5914040000000  0.5460920000000 1.0
C      1  0.5531620000000  0.5531990000000  0.4980710000000 1.0
C      1  0.4804660000000  0.4859790000000  0.5873160000000 1.0
C      1  0.4882940000000  0.5567960000000  0.4820750000000 1.0
C      1  0.4000500000000  0.5171550000000  0.5900350000000 1.0
C      1  0.4061070000000  0.4754740000000  0.4423450000000 1.0
C      1  0.5438820000000  0.4603650000000  0.5725200000000 1.0
END
