TITL C-951342-2639-277 1.24656929813678e-06 125000 -623.884679597969 0 0 101 (C1) n - 1
REM
REM in /home/bkarasulu/work/CARBON/AIRSS/Generating-Clusters/EDIP-Nigel-Params/with-SteepDescent/Only-C1/SD-CG/HFTN-CG
REM
REM
REM
REM
REM
REM ./C.cell (11c1c37f851c82e70ff6c80c92926a4b)
REM
REM compiler GCC version 9.2.1 20190827 (Red Hat 9.2.1-1)
REM options -cpp -mtune=generic -march=x86-64 -g -O0 -fpre-include=/usr/include/finclude/math-vector-fortran.h
REM seed -614149363 -765402381 -281380538 1167633098 -1440900774 -1539199837 -596970127 547390023 -1381554907 1946712921 -1440781312 -910101402 1062111093 120947879 -1945136335 1083177810 -1427402794 216808935 -1528238159 -1022828964 -1071545942 -1012155842 177948382 681707409 442813820 -255727954 1741315996 -1275811747 40719610 589801054 -768741835 1372959410 -1272278914
REM
CELL 1.54180   50.00000   50.00000   50.00000   90.00000   90.00000   90.00000
LATT -1
SFAC C  
C      1  0.4599840000000  0.5194730000000  0.5446120000000 1.0
C      1  0.4942800000000  0.4939280000000  0.4186530000000 1.0
C      1  0.4851340000000  0.4213490000000  0.5048880000000 1.0
C      1  0.5567030000000  0.4687580000000  0.4440970000000 1.0
C      1  0.4391540000000  0.5525730000000  0.4794160000000 1.0
C      1  0.5597230000000  0.4317700000000  0.5580580000000 1.0
C      1  0.4207310000000  0.4672620000000  0.5018240000000 1.0
C      1  0.4693490000000  0.5551290000000  0.5687690000000 1.0
C      1  0.4809330000000  0.5216540000000  0.5835710000000 1.0
C      1  0.5114340000000  0.4250180000000  0.5187090000000 1.0
C      1  0.4211980000000  0.4556950000000  0.4532790000000 1.0
C      1  0.5813850000000  0.5242390000000  0.4710130000000 1.0
C      1  0.5464730000000  0.4944380000000  0.4975560000000 1.0
C      1  0.5241540000000  0.5057440000000  0.4817130000000 1.0
C      1  0.5061780000000  0.5843100000000  0.5410180000000 1.0
C      1  0.4700340000000  0.5725200000000  0.4511390000000 1.0
C      1  0.4399230000000  0.4207310000000  0.4850360000000 1.0
C      1  0.5607460000000  0.4477470000000  0.5350860000000 1.0
C      1  0.4279100000000  0.5030590000000  0.4675480000000 1.0
C      1  0.5366590000000  0.4944780000000  0.5253660000000 1.0
C      1  0.4887870000000  0.5843700000000  0.4960760000000 1.0
C      1  0.5308940000000  0.4631880000000  0.4303110000000 1.0
C      1  0.5609970000000  0.4972720000000  0.5413320000000 1.0
C      1  0.5342890000000  0.4240200000000  0.5609350000000 1.0
C      1  0.5658640000000  0.5460320000000  0.5434790000000 1.0
C      1  0.5614470000000  0.4535810000000  0.4701960000000 1.0
C      1  0.5776570000000  0.4715300000000  0.5380010000000 1.0
C      1  0.4711270000000  0.4935470000000  0.5800100000000 1.0
C      1  0.4190100000000  0.4951630000000  0.4944170000000 1.0
C      1  0.4940810000000  0.4762020000000  0.5682730000000 1.0
C      1  0.5635800000000  0.4972290000000  0.4405910000000 1.0
C      1  0.5393120000000  0.4313610000000  0.5081730000000 1.0
C      1  0.4295790000000  0.4487680000000  0.4799140000000 1.0
C      1  0.4912180000000  0.5404610000000  0.5145920000000 1.0
C      1  0.5433660000000  0.4314010000000  0.4783190000000 1.0
C      1  0.5032200000000  0.5229140000000  0.5638800000000 1.0
C      1  0.5486120000000  0.5533620000000  0.4452900000000 1.0
C      1  0.4787380000000  0.4201760000000  0.4500700000000 1.0
C      1  0.4375140000000  0.4110360000000  0.5109170000000 1.0
C      1  0.5045900000000  0.4885500000000  0.4675250000000 1.0
C      1  0.5184850000000  0.4974360000000  0.5655920000000 1.0
C      1  0.4816020000000  0.5638180000000  0.4757420000000 1.0
C      1  0.5254900000000  0.4670140000000  0.5177460000000 1.0
C      1  0.5309290000000  0.5367400000000  0.4283960000000 1.0
C      1  0.4854960000000  0.5713810000000  0.5235760000000 1.0
C      1  0.4626250000000  0.4151750000000  0.5230680000000 1.0
C      1  0.4918690000000  0.5073740000000  0.4452840000000 1.0
C      1  0.6018210000000  0.4952630000000  0.5049410000000 1.0
C      1  0.5204560000000  0.5481900000000  0.5687080000000 1.0
C      1  0.5245390000000  0.5626200000000  0.5429620000000 1.0
C      1  0.4796650000000  0.4706760000000  0.5400650000000 1.0
C      1  0.4883070000000  0.5226470000000  0.5384460000000 1.0
C      1  0.4980550000000  0.5910860000000  0.5674940000000 1.0
C      1  0.5176390000000  0.4335760000000  0.4657850000000 1.0
C      1  0.4660930000000  0.4600790000000  0.4715560000000 1.0
C      1  0.4323650000000  0.5682130000000  0.5018270000000 1.0
C      1  0.5615000000000  0.4666400000000  0.4975740000000 1.0
C      1  0.4615410000000  0.4315090000000  0.5477490000000 1.0
C      1  0.4739350000000  0.4717710000000  0.4203330000000 1.0
C      1  0.4645340000000  0.5310460000000  0.4994120000000 1.0
C      1  0.4340110000000  0.4805830000000  0.4495290000000 1.0
C      1  0.5048190000000  0.4107530000000  0.4546090000000 1.0
C      1  0.4438800000000  0.5295340000000  0.5223770000000 1.0
C      1  0.5174870000000  0.5337170000000  0.4922040000000 1.0
C      1  0.5100650000000  0.4236950000000  0.5477240000000 1.0
C      1  0.4447260000000  0.4547620000000  0.5448790000000 1.0
C      1  0.4816160000000  0.4526470000000  0.4440360000000 1.0
C      1  0.5644240000000  0.5278400000000  0.5179010000000 1.0
C      1  0.5481070000000  0.5048720000000  0.5670540000000 1.0
C      1  0.5503240000000  0.5350540000000  0.5679010000000 1.0
C      1  0.5110530000000  0.4593220000000  0.4519920000000 1.0
C      1  0.4950050000000  0.5655650000000  0.5794300000000 1.0
C      1  0.5850410000000  0.5163530000000  0.4985570000000 1.0
C      1  0.5508340000000  0.5703690000000  0.5350030000000 1.0
C      1  0.5599680000000  0.5432200000000  0.4704460000000 1.0
C      1  0.4373000000000  0.5579780000000  0.5275620000000 1.0
C      1  0.4175370000000  0.4927700000000  0.5411160000000 1.0
C      1  0.4685750000000  0.5042840000000  0.4913390000000 1.0
C      1  0.4953980000000  0.4704370000000  0.5141430000000 1.0
C      1  0.5879130000000  0.5092330000000  0.4482940000000 1.0
C      1  0.5178930000000  0.5903750000000  0.4904480000000 1.0
C      1  0.4407320000000  0.5287360000000  0.4622540000000 1.0
C      1  0.4596470000000  0.5265240000000  0.4389660000000 1.0
C      1  0.4606840000000  0.5689790000000  0.5426770000000 1.0
C      1  0.4507720000000  0.4961720000000  0.5589480000000 1.0
C      1  0.4194150000000  0.5117710000000  0.5186850000000 1.0
C      1  0.5425660000000  0.5091620000000  0.4233140000000 1.0
C      1  0.5894140000000  0.4710870000000  0.5108200000000 1.0
C      1  0.5233550000000  0.4872580000000  0.4147310000000 1.0
C      1  0.5077220000000  0.5511010000000  0.4690360000000 1.0
C      1  0.4768780000000  0.5515060000000  0.4334320000000 1.0
C      1  0.4479600000000  0.5135220000000  0.4161090000000 1.0
C      1  0.4832020000000  0.4804750000000  0.4875910000000 1.0
C      1  0.4686240000000  0.4277760000000  0.4788000000000 1.0
C      1  0.4477930000000  0.4861950000000  0.4241370000000 1.0
C      1  0.5262660000000  0.5745860000000  0.4669170000000 1.0
C      1  0.4880700000000  0.4386090000000  0.5600180000000 1.0
C      1  0.5030690000000  0.5366880000000  0.4423780000000 1.0
C      1  0.5464900000000  0.5451820000000  0.4973360000000 1.0
C      1  0.4216560000000  0.4654830000000  0.5313720000000 1.0
C      1  0.5467960000000  0.5735340000000  0.5060340000000 1.0
END
