TITL C-951341-1326-222 1.11655467846848e-06 125000 -250.62758473048 0 0 42 (C1) n - 1
REM
REM in /home/bkarasulu/work/CARBON/AIRSS/Generating-Clusters/EDIP-Nigel-Params/with-SteepDescent/Only-C1/SD-CG/HFTN-CG
REM
REM
REM
REM
REM
REM ./C.cell (11c1c37f851c82e70ff6c80c92926a4b)
REM
REM compiler GCC version 9.2.1 20190827 (Red Hat 9.2.1-1)
REM options -cpp -mtune=generic -march=x86-64 -g -O0 -fpre-include=/usr/include/finclude/math-vector-fortran.h
REM seed 1668967260 1187044077 -1832729949 -652336273 -141902833 1823639420 -1680306227 -497277173 489535550 -527092513 166526676 -2047935601 511002343 -1001083204 -71010093 -489432174 355244311 -824305937 1928299045 1686716189 -2063702870 -2134739543 1940834158 -365283338 -1871436204 -1680817315 -1521068031 -557348186 1948700848 1383382996 861051708 316765983 428458213
REM
CELL 1.54180   50.00000   50.00000   50.00000   90.00000   90.00000   90.00000
LATT -1
SFAC C  
C      1  0.5426990000000  0.5311660000000  0.5389460000000 1.0
C      1  0.4788600000000  0.5506050000000  0.5262380000000 1.0
C      1  0.4738330000000  0.4491670000000  0.4508850000000 1.0
C      1  0.4883910000000  0.4421440000000  0.4738870000000 1.0
C      1  0.5172510000000  0.4384150000000  0.4710600000000 1.0
C      1  0.5171980000000  0.4663160000000  0.4971280000000 1.0
C      1  0.4481040000000  0.5188900000000  0.4667150000000 1.0
C      1  0.5514150000000  0.4771680000000  0.4580010000000 1.0
C      1  0.4959950000000  0.4847920000000  0.4834270000000 1.0
C      1  0.4567860000000  0.5355190000000  0.4457480000000 1.0
C      1  0.5284800000000  0.5303340000000  0.5627230000000 1.0
C      1  0.4753990000000  0.4779260000000  0.4511210000000 1.0
C      1  0.5295380000000  0.5439350000000  0.5168810000000 1.0
C      1  0.5059070000000  0.5573370000000  0.5229800000000 1.0
C      1  0.5380500000000  0.5399150000000  0.4906860000000 1.0
C      1  0.4538910000000  0.4899550000000  0.4688120000000 1.0
C      1  0.4530490000000  0.4566020000000  0.5067960000000 1.0
C      1  0.4513950000000  0.5093270000000  0.5139260000000 1.0
C      1  0.5338960000000  0.4566140000000  0.4582620000000 1.0
C      1  0.5558770000000  0.4831740000000  0.5296530000000 1.0
C      1  0.4552020000000  0.4834210000000  0.4976140000000 1.0
C      1  0.4635630000000  0.5560390000000  0.5009990000000 1.0
C      1  0.4868130000000  0.5114400000000  0.4967450000000 1.0
C      1  0.5112250000000  0.5203820000000  0.4552900000000 1.0
C      1  0.5252190000000  0.4565690000000  0.5593940000000 1.0
C      1  0.5545170000000  0.5034630000000  0.4629400000000 1.0
C      1  0.5415190000000  0.4775450000000  0.5067370000000 1.0
C      1  0.5050880000000  0.5189260000000  0.5689990000000 1.0
C      1  0.4996600000000  0.4563000000000  0.5485520000000 1.0
C      1  0.4702170000000  0.5588520000000  0.4523690000000 1.0
C      1  0.4846610000000  0.4790340000000  0.5535590000000 1.0
C      1  0.4895980000000  0.5315820000000  0.4728920000000 1.0
C      1  0.4783370000000  0.4458640000000  0.5014720000000 1.0
C      1  0.5379030000000  0.5256530000000  0.4665600000000 1.0
C      1  0.4737930000000  0.5213950000000  0.5319460000000 1.0
C      1  0.5601470000000  0.5101990000000  0.5340470000000 1.0
C      1  0.4822290000000  0.5630110000000  0.4785050000000 1.0
C      1  0.4472260000000  0.5309520000000  0.4939010000000 1.0
C      1  0.4845910000000  0.5066220000000  0.5552480000000 1.0
C      1  0.5059270000000  0.4909180000000  0.4543890000000 1.0
C      1  0.4983310000000  0.4445440000000  0.5224370000000 1.0
C      1  0.5482240000000  0.4679850000000  0.5515270000000 1.0
END
