TITL C-950534-5965-466 4.7107765660578e-07 125000 -428.908133322612 0 0 70 (C1) n - 1
REM
REM in /home/bkarasulu/work/CARBON/AIRSS/Generating-Clusters/EDIP-Nigel-Params/with-SteepDescent/Only-C1/SD-CG/HFTN-CG
REM
REM
REM
REM
REM
REM ./C.cell (11c1c37f851c82e70ff6c80c92926a4b)
REM
REM compiler GCC version 9.2.1 20190827 (Red Hat 9.2.1-1)
REM options -cpp -mtune=generic -march=x86-64 -g -O0 -fpre-include=/usr/include/finclude/math-vector-fortran.h
REM seed 1276654695 -155352051 -890093179 970411431 1070763802 -1625460258 -756387102 537330587 581495939 -1475434668 -1380221878 -1066424885 830303255 777752874 -926653091 -529033611 -2074599822 1926727615 1281805968 -912051219 -164053565 971292128 1507060859 1126241925 1695140362 740265748 719322043 1085292878 -1752004473 -677517728 -1328718298 -2032340613 -217821812
REM
CELL 1.54180   50.00000   50.00000   50.00000   90.00000   90.00000   90.00000
LATT -1
SFAC C  
C      1  0.4697010000000  0.5342590000000  0.4217940000000 1.0
C      1  0.5106560000000  0.4700580000000  0.5127470000000 1.0
C      1  0.5343390000000  0.5554060000000  0.5247890000000 1.0
C      1  0.4542020000000  0.4738840000000  0.4659000000000 1.0
C      1  0.5597510000000  0.5410280000000  0.5176900000000 1.0
C      1  0.4834750000000  0.5262670000000  0.5747200000000 1.0
C      1  0.5142850000000  0.5067640000000  0.5510600000000 1.0
C      1  0.4652470000000  0.4920580000000  0.4907140000000 1.0
C      1  0.4931450000000  0.4476760000000  0.5591670000000 1.0
C      1  0.4952900000000  0.5289960000000  0.4320980000000 1.0
C      1  0.5479750000000  0.4995200000000  0.4384190000000 1.0
C      1  0.5270500000000  0.4828500000000  0.4897510000000 1.0
C      1  0.5762110000000  0.5060640000000  0.4528090000000 1.0
C      1  0.5654150000000  0.5454340000000  0.4885260000000 1.0
C      1  0.5368940000000  0.5196950000000  0.5678140000000 1.0
C      1  0.5624010000000  0.5081060000000  0.5646670000000 1.0
C      1  0.4402620000000  0.5152080000000  0.4576380000000 1.0
C      1  0.5115200000000  0.4232450000000  0.4905100000000 1.0
C      1  0.4798870000000  0.4318110000000  0.4608400000000 1.0
C      1  0.5108120000000  0.5237210000000  0.4926520000000 1.0
C      1  0.4375660000000  0.5354920000000  0.5028920000000 1.0
C      1  0.4979510000000  0.5723880000000  0.4920430000000 1.0
C      1  0.4841030000000  0.4766030000000  0.5544150000000 1.0
C      1  0.4433820000000  0.5017870000000  0.5418060000000 1.0
C      1  0.5763090000000  0.4770860000000  0.4628870000000 1.0
C      1  0.5206310000000  0.5536570000000  0.4968940000000 1.0
C      1  0.5103080000000  0.4375850000000  0.5167750000000 1.0
C      1  0.5753530000000  0.4780050000000  0.4999990000000 1.0
C      1  0.4974950000000  0.5073580000000  0.4537550000000 1.0
C      1  0.5217300000000  0.4757830000000  0.5422230000000 1.0
C      1  0.4280590000000  0.5146670000000  0.4848030000000 1.0
C      1  0.4750600000000  0.5433190000000  0.5318260000000 1.0
C      1  0.4756420000000  0.5621360000000  0.5087950000000 1.0
C      1  0.5531080000000  0.4970710000000  0.4953830000000 1.0
C      1  0.4277990000000  0.4559420000000  0.5312340000000 1.0
C      1  0.5194880000000  0.5137820000000  0.5207650000000 1.0
C      1  0.4874540000000  0.4140140000000  0.4798170000000 1.0
C      1  0.4386250000000  0.4433900000000  0.5062040000000 1.0
C      1  0.5277440000000  0.5149900000000  0.4591030000000 1.0
C      1  0.5613100000000  0.4950800000000  0.5401650000000 1.0
C      1  0.4652800000000  0.4538430000000  0.5226270000000 1.0
C      1  0.4532780000000  0.5379330000000  0.4442220000000 1.0
C      1  0.4769890000000  0.4587690000000  0.4544140000000 1.0
C      1  0.5425590000000  0.5601730000000  0.4775720000000 1.0
C      1  0.4807510000000  0.4761050000000  0.5105340000000 1.0
C      1  0.4846630000000  0.4338030000000  0.5334830000000 1.0
C      1  0.5233320000000  0.4485750000000  0.5577130000000 1.0
C      1  0.4490210000000  0.5284500000000  0.5302940000000 1.0
C      1  0.4315440000000  0.4606040000000  0.4828420000000 1.0
C      1  0.4617790000000  0.5452430000000  0.4885150000000 1.0
C      1  0.5222890000000  0.5451420000000  0.5516910000000 1.0
C      1  0.4889830000000  0.5698350000000  0.4623970000000 1.0
C      1  0.5490410000000  0.5123440000000  0.5200340000000 1.0
C      1  0.4599030000000  0.5599950000000  0.4625520000000 1.0
C      1  0.5255680000000  0.4665410000000  0.4646380000000 1.0
C      1  0.4515440000000  0.4933800000000  0.5679500000000 1.0
C      1  0.4249400000000  0.4845260000000  0.5277430000000 1.0
C      1  0.4416100000000  0.4902810000000  0.4451580000000 1.0
C      1  0.5314080000000  0.4308960000000  0.5364660000000 1.0
C      1  0.5604440000000  0.5185870000000  0.4757090000000 1.0
C      1  0.5079460000000  0.5527180000000  0.4459010000000 1.0
C      1  0.4271940000000  0.4877630000000  0.4984040000000 1.0
C      1  0.5500260000000  0.4710790000000  0.4480040000000 1.0
C      1  0.4917900000000  0.5447760000000  0.5554270000000 1.0
C      1  0.4803360000000  0.5183310000000  0.4825260000000 1.0
C      1  0.5359640000000  0.5562870000000  0.4504840000000 1.0
C      1  0.5003140000000  0.4760960000000  0.4505750000000 1.0
C      1  0.4787470000000  0.4986030000000  0.5763100000000 1.0
C      1  0.5246450000000  0.4388340000000  0.4718330000000 1.0
C      1  0.5804780000000  0.4783010000000  0.5278950000000 1.0
END
