TITL C-950523-3027-182 -2.0259452074887e-06 125000 -962.117109863747 0 0 154 (C1) n - 1
REM
REM in /home/bkarasulu/work/CARBON/AIRSS/Generating-Clusters/EDIP-Nigel-Params/with-SteepDescent/Only-C1/SD-CG/HFTN-CG
REM
REM
REM
REM
REM
REM ./C.cell (11c1c37f851c82e70ff6c80c92926a4b)
REM
REM compiler GCC version 9.2.1 20190827 (Red Hat 9.2.1-1)
REM options -cpp -mtune=generic -march=x86-64 -g -O0 -fpre-include=/usr/include/finclude/math-vector-fortran.h
REM seed -424007326 1563657896 983829169 -738384077 -674479229 553141814 1057208191 -1545615108 -1810539531 1574088642 -1580216985 -97332672 -720189297 344692443 -156938051 -1477731408 -877315779 1727319329 531620000 -1439754741 990641068 238438663 -497301971 27656829 -1970066365 -1582376191 1735434069 -654886665 1155369591 -20653810 1914166755 2084357236 300886715
REM
CELL 1.54180   50.00000   50.00000   50.00000   90.00000   90.00000   90.00000
LATT -1
SFAC C  
C      1  0.5880460000000  0.4649950000000  0.4485780000000 1.0
C      1  0.4007770000000  0.5193740000000  0.5320320000000 1.0
C      1  0.4941630000000  0.5295850000000  0.4908950000000 1.0
C      1  0.4881560000000  0.5738050000000  0.4889440000000 1.0
C      1  0.5389430000000  0.4693490000000  0.4778640000000 1.0
C      1  0.5844330000000  0.5216580000000  0.5402910000000 1.0
C      1  0.4194240000000  0.5679010000000  0.5520930000000 1.0
C      1  0.5236600000000  0.3957770000000  0.4954810000000 1.0
C      1  0.4803180000000  0.4621320000000  0.5216990000000 1.0
C      1  0.4889290000000  0.5491590000000  0.5984700000000 1.0
C      1  0.4080400000000  0.4941280000000  0.4394860000000 1.0
C      1  0.4950610000000  0.4934260000000  0.4569960000000 1.0
C      1  0.5151560000000  0.5077630000000  0.4076540000000 1.0
C      1  0.4478080000000  0.5349320000000  0.5766450000000 1.0
C      1  0.4974070000000  0.5934900000000  0.5743360000000 1.0
C      1  0.4859620000000  0.4088870000000  0.5609480000000 1.0
C      1  0.5191400000000  0.5511420000000  0.5269500000000 1.0
C      1  0.5066810000000  0.5354000000000  0.5790010000000 1.0
C      1  0.3939350000000  0.4889270000000  0.5394720000000 1.0
C      1  0.5708900000000  0.5141070000000  0.4021350000000 1.0
C      1  0.4040170000000  0.5437940000000  0.5122290000000 1.0
C      1  0.5304370000000  0.5821810000000  0.4341560000000 1.0
C      1  0.5315250000000  0.4958800000000  0.4900210000000 1.0
C      1  0.5867370000000  0.5639050000000  0.4524870000000 1.0
C      1  0.4553250000000  0.4154230000000  0.5125490000000 1.0
C      1  0.5440240000000  0.5313990000000  0.5262990000000 1.0
C      1  0.4789550000000  0.3994480000000  0.5127370000000 1.0
C      1  0.4144750000000  0.4506620000000  0.5614210000000 1.0
C      1  0.4781350000000  0.5398300000000  0.4459990000000 1.0
C      1  0.5453190000000  0.4702980000000  0.3974770000000 1.0
C      1  0.4456750000000  0.5713410000000  0.5125700000000 1.0
C      1  0.6030180000000  0.4625090000000  0.4924840000000 1.0
C      1  0.4547160000000  0.4554440000000  0.4297280000000 1.0
C      1  0.5347300000000  0.4280000000000  0.4419800000000 1.0
C      1  0.5665670000000  0.5279640000000  0.5642840000000 1.0
C      1  0.4901190000000  0.4393920000000  0.4992900000000 1.0
C      1  0.5126030000000  0.4849660000000  0.4334340000000 1.0
C      1  0.4185500000000  0.5679700000000  0.5242220000000 1.0
C      1  0.5790030000000  0.5372460000000  0.4129150000000 1.0
C      1  0.5516410000000  0.5849890000000  0.5179570000000 1.0
C      1  0.4804200000000  0.5714670000000  0.4402640000000 1.0
C      1  0.4712410000000  0.4809890000000  0.4724530000000 1.0
C      1  0.4418600000000  0.5638680000000  0.5681680000000 1.0
C      1  0.4229220000000  0.5209180000000  0.5815770000000 1.0
C      1  0.5667740000000  0.4829070000000  0.4386100000000 1.0
C      1  0.4804910000000  0.4430890000000  0.4270990000000 1.0
C      1  0.5649840000000  0.4883000000000  0.5075430000000 1.0
C      1  0.4858170000000  0.5401730000000  0.3989340000000 1.0
C      1  0.5030780000000  0.4593790000000  0.4168390000000 1.0
C      1  0.5305890000000  0.4605070000000  0.5281620000000 1.0
C      1  0.5292340000000  0.6034820000000  0.4532100000000 1.0
C      1  0.5768780000000  0.5610860000000  0.4267560000000 1.0
C      1  0.4294190000000  0.4942010000000  0.5761280000000 1.0
C      1  0.6074440000000  0.4776250000000  0.4673160000000 1.0
C      1  0.5914870000000  0.5016690000000  0.5160310000000 1.0
C      1  0.4497460000000  0.4326930000000  0.5839350000000 1.0
C      1  0.4016440000000  0.4933600000000  0.4665790000000 1.0
C      1  0.5324210000000  0.4474880000000  0.4168280000000 1.0
C      1  0.5213240000000  0.5862040000000  0.5604970000000 1.0
C      1  0.4355700000000  0.5016940000000  0.4341560000000 1.0
C      1  0.5235160000000  0.3954960000000  0.5255580000000 1.0
C      1  0.5410500000000  0.5227420000000  0.4953410000000 1.0
C      1  0.5469890000000  0.5059280000000  0.5791700000000 1.0
C      1  0.4944610000000  0.4496040000000  0.5817880000000 1.0
C      1  0.5356520000000  0.5067890000000  0.5420000000000 1.0
C      1  0.4721970000000  0.5014210000000  0.6023980000000 1.0
C      1  0.5676360000000  0.5672330000000  0.5356900000000 1.0
C      1  0.4669280000000  0.5828110000000  0.5292940000000 1.0
C      1  0.5014870000000  0.4223990000000  0.5800710000000 1.0
C      1  0.4978350000000  0.5218120000000  0.4616080000000 1.0
C      1  0.4712280000000  0.4867870000000  0.3943290000000 1.0
C      1  0.5667820000000  0.4874660000000  0.4097250000000 1.0
C      1  0.5131810000000  0.4693870000000  0.5922190000000 1.0
C      1  0.4354260000000  0.4882670000000  0.5080910000000 1.0
C      1  0.4232180000000  0.5054520000000  0.4816890000000 1.0
C      1  0.4503440000000  0.4191230000000  0.4615350000000 1.0
C      1  0.4927380000000  0.5878680000000  0.5152350000000 1.0
C      1  0.5494390000000  0.6037790000000  0.4722650000000 1.0
C      1  0.4153410000000  0.4514980000000  0.4622880000000 1.0
C      1  0.5476250000000  0.4096780000000  0.5358630000000 1.0
C      1  0.4159750000000  0.5351960000000  0.4852870000000 1.0
C      1  0.5543660000000  0.5760650000000  0.4219040000000 1.0
C      1  0.5225240000000  0.4860220000000  0.3861130000000 1.0
C      1  0.5941490000000  0.4577830000000  0.5379000000000 1.0
C      1  0.5572840000000  0.5560310000000  0.5603660000000 1.0
C      1  0.6076150000000  0.5058210000000  0.4694580000000 1.0
C      1  0.5904630000000  0.5453840000000  0.4968920000000 1.0
C      1  0.5399690000000  0.4714340000000  0.4463100000000 1.0
C      1  0.4863840000000  0.4312340000000  0.4526210000000 1.0
C      1  0.4648490000000  0.5313150000000  0.6013830000000 1.0
C      1  0.4853880000000  0.5106980000000  0.5141180000000 1.0
C      1  0.5025240000000  0.4960720000000  0.5988180000000 1.0
C      1  0.4647920000000  0.5803530000000  0.5587940000000 1.0
C      1  0.4516560000000  0.4812740000000  0.4169300000000 1.0
C      1  0.5242890000000  0.5178880000000  0.5942080000000 1.0
C      1  0.4214540000000  0.4431520000000  0.4886740000000 1.0
C      1  0.4687420000000  0.4858400000000  0.5041120000000 1.0
C      1  0.5706510000000  0.4441110000000  0.5205580000000 1.0
C      1  0.5193280000000  0.5436870000000  0.4977160000000 1.0
C      1  0.4729580000000  0.4477260000000  0.4751350000000 1.0
C      1  0.5512080000000  0.4824470000000  0.5333930000000 1.0
C      1  0.4918630000000  0.5117140000000  0.5645910000000 1.0
C      1  0.4701020000000  0.5495340000000  0.4915570000000 1.0
C      1  0.4880380000000  0.5122080000000  0.3910260000000 1.0
C      1  0.4963870000000  0.4693590000000  0.3897130000000 1.0
C      1  0.4643550000000  0.5198410000000  0.5562520000000 1.0
C      1  0.5047200000000  0.4716370000000  0.5353170000000 1.0
C      1  0.4834540000000  0.5770130000000  0.5927580000000 1.0
C      1  0.4414750000000  0.4192640000000  0.5374380000000 1.0
C      1  0.4967830000000  0.4037090000000  0.5346570000000 1.0
C      1  0.4959440000000  0.4026860000000  0.4901110000000 1.0
C      1  0.4595960000000  0.4591800000000  0.5449040000000 1.0
C      1  0.4289860000000  0.5057180000000  0.5335700000000 1.0
C      1  0.5737840000000  0.4730460000000  0.5535470000000 1.0
C      1  0.4229670000000  0.5252580000000  0.4218590000000 1.0
C      1  0.4420920000000  0.5454510000000  0.4151130000000 1.0
C      1  0.5610950000000  0.5854670000000  0.4897240000000 1.0
C      1  0.5207210000000  0.5807490000000  0.5303660000000 1.0
C      1  0.4362480000000  0.4403370000000  0.4468400000000 1.0
C      1  0.4669600000000  0.5298010000000  0.4192460000000 1.0
C      1  0.5110100000000  0.5466320000000  0.4095780000000 1.0
C      1  0.5229040000000  0.4430890000000  0.4880940000000 1.0
C      1  0.4408840000000  0.5311230000000  0.5178450000000 1.0
C      1  0.4200400000000  0.4612660000000  0.5127280000000 1.0
C      1  0.4670000000000  0.5276910000000  0.5294610000000 1.0
C      1  0.4557700000000  0.5381940000000  0.4659900000000 1.0
C      1  0.5057020000000  0.5010260000000  0.5385120000000 1.0
C      1  0.5403800000000  0.5721930000000  0.5757370000000 1.0
C      1  0.4324430000000  0.4476770000000  0.5388460000000 1.0
C      1  0.5779710000000  0.4400620000000  0.4576010000000 1.0
C      1  0.4537070000000  0.4823660000000  0.5883840000000 1.0
C      1  0.5423670000000  0.4396040000000  0.5464200000000 1.0
C      1  0.5032800000000  0.6091710000000  0.4613220000000 1.0
C      1  0.5841970000000  0.5466070000000  0.5247140000000 1.0
C      1  0.5568890000000  0.4216630000000  0.4607580000000 1.0
C      1  0.5436170000000  0.4178540000000  0.4891520000000 1.0
C      1  0.4403830000000  0.4214960000000  0.4887280000000 1.0
C      1  0.4569430000000  0.4144540000000  0.5628550000000 1.0
C      1  0.5570430000000  0.4547050000000  0.5691740000000 1.0
C      1  0.4452380000000  0.5678090000000  0.4345300000000 1.0
C      1  0.5141020000000  0.4375530000000  0.4594710000000 1.0
C      1  0.5062910000000  0.5708790000000  0.4237300000000 1.0
C      1  0.4651220000000  0.4565040000000  0.5754610000000 1.0
C      1  0.5814330000000  0.5667020000000  0.4796000000000 1.0
C      1  0.5636610000000  0.4165730000000  0.5120990000000 1.0
C      1  0.4098010000000  0.4780780000000  0.5623880000000 1.0
C      1  0.5725040000000  0.4609060000000  0.4953980000000 1.0
C      1  0.6004870000000  0.5185150000000  0.4930170000000 1.0
C      1  0.3927720000000  0.4695600000000  0.5180890000000 1.0
C      1  0.5410440000000  0.4748730000000  0.5835250000000 1.0
C      1  0.4331420000000  0.5569410000000  0.4595290000000 1.0
C      1  0.4849620000000  0.5885270000000  0.4645620000000 1.0
C      1  0.4469850000000  0.5067270000000  0.4629820000000 1.0
C      1  0.6088730000000  0.4762580000000  0.5189910000000 1.0
END
