TITL C-950521-2237-189 -3.6351171257265e-07 125000 -741.456690187168 0 0 119 (C1) n - 1
REM
REM in /home/bkarasulu/work/CARBON/AIRSS/Generating-Clusters/EDIP-Nigel-Params/with-SteepDescent/Only-C1/SD-CG/HFTN-CG
REM
REM
REM
REM
REM
REM ./C.cell (11c1c37f851c82e70ff6c80c92926a4b)
REM
REM compiler GCC version 9.2.1 20190827 (Red Hat 9.2.1-1)
REM options -cpp -mtune=generic -march=x86-64 -g -O0 -fpre-include=/usr/include/finclude/math-vector-fortran.h
REM seed 2146818702 -1118808167 545925618 -1095975357 390922144 -1044091212 937460074 1167348641 -1678604303 -2057489786 -1997931267 -1772575876 -1044776574 206127969 -17267988 -1506583265 -1568705787 409880878 -831677545 -1221492430 -1759413234 -1894313908 1656873932 1608621426 513300603 -526232786 -1509744519 -2107784703 567733366 -858952202 -1120315364 1348347470 252595407
REM
CELL 1.54180   50.00000   50.00000   50.00000   90.00000   90.00000   90.00000
LATT -1
SFAC C  
C      1  0.4598640000000  0.5829440000000  0.4700970000000 1.0
C      1  0.4625000000000  0.5691190000000  0.5484310000000 1.0
C      1  0.4535390000000  0.5183290000000  0.5383810000000 1.0
C      1  0.5113910000000  0.5637660000000  0.4780850000000 1.0
C      1  0.5700340000000  0.5582110000000  0.5292650000000 1.0
C      1  0.4911270000000  0.3992150000000  0.4655810000000 1.0
C      1  0.4697820000000  0.5492040000000  0.5049050000000 1.0
C      1  0.5116620000000  0.5105090000000  0.4752300000000 1.0
C      1  0.4847160000000  0.5057610000000  0.4611150000000 1.0
C      1  0.4362640000000  0.4792820000000  0.4330360000000 1.0
C      1  0.4398920000000  0.5488300000000  0.4987890000000 1.0
C      1  0.4735460000000  0.5188290000000  0.5141430000000 1.0
C      1  0.5526870000000  0.5640880000000  0.5034870000000 1.0
C      1  0.4083260000000  0.4804630000000  0.4783830000000 1.0
C      1  0.5218100000000  0.4335640000000  0.4544150000000 1.0
C      1  0.5356920000000  0.4721750000000  0.5325040000000 1.0
C      1  0.5162860000000  0.4820210000000  0.4878600000000 1.0
C      1  0.4236490000000  0.5471880000000  0.5242470000000 1.0
C      1  0.5820750000000  0.4740570000000  0.4296470000000 1.0
C      1  0.4840810000000  0.4121360000000  0.5525660000000 1.0
C      1  0.5080620000000  0.6022280000000  0.5047700000000 1.0
C      1  0.5534980000000  0.5436470000000  0.4360650000000 1.0
C      1  0.5111560000000  0.4098850000000  0.5447800000000 1.0
C      1  0.5956050000000  0.5211620000000  0.5070360000000 1.0
C      1  0.5059460000000  0.5323050000000  0.5812590000000 1.0
C      1  0.5240290000000  0.5620580000000  0.5145190000000 1.0
C      1  0.4596700000000  0.4604320000000  0.4251320000000 1.0
C      1  0.4001650000000  0.5093500000000  0.4711030000000 1.0
C      1  0.4630760000000  0.5048790000000  0.4874810000000 1.0
C      1  0.5774520000000  0.5290780000000  0.5271840000000 1.0
C      1  0.5271110000000  0.5374630000000  0.4707830000000 1.0
C      1  0.5526000000000  0.5899210000000  0.4894130000000 1.0
C      1  0.5421840000000  0.4400810000000  0.5695490000000 1.0
C      1  0.4578660000000  0.4486810000000  0.5677170000000 1.0
C      1  0.5398610000000  0.4736140000000  0.5028330000000 1.0
C      1  0.5326450000000  0.4139180000000  0.5631010000000 1.0
C      1  0.5533960000000  0.5405130000000  0.4844350000000 1.0
C      1  0.4691250000000  0.5174240000000  0.4352650000000 1.0
C      1  0.4405770000000  0.5089620000000  0.4373750000000 1.0
C      1  0.5106820000000  0.4766340000000  0.5896790000000 1.0
C      1  0.3928300000000  0.5225750000000  0.4951250000000 1.0
C      1  0.5739820000000  0.4556730000000  0.4747610000000 1.0
C      1  0.4961300000000  0.4576960000000  0.4898240000000 1.0
C      1  0.4529710000000  0.4767790000000  0.4937110000000 1.0
C      1  0.5747480000000  0.5004070000000  0.4369320000000 1.0
C      1  0.5701100000000  0.4427230000000  0.5210060000000 1.0
C      1  0.5137030000000  0.4326970000000  0.5268440000000 1.0
C      1  0.4513990000000  0.4583370000000  0.4689400000000 1.0
C      1  0.4809780000000  0.5609700000000  0.4789300000000 1.0
C      1  0.4538820000000  0.5218770000000  0.5770650000000 1.0
C      1  0.4869740000000  0.4760070000000  0.5328930000000 1.0
C      1  0.5498490000000  0.5191580000000  0.5229740000000 1.0
C      1  0.5323370000000  0.4281740000000  0.4818220000000 1.0
C      1  0.4876360000000  0.4085690000000  0.4918970000000 1.0
C      1  0.5266690000000  0.5561540000000  0.4375130000000 1.0
C      1  0.5661450000000  0.4580490000000  0.4466050000000 1.0
C      1  0.4774060000000  0.5702150000000  0.5235720000000 1.0
C      1  0.4252430000000  0.5244890000000  0.4581920000000 1.0
C      1  0.4791790000000  0.5716240000000  0.5706820000000 1.0
C      1  0.5563160000000  0.5179160000000  0.4218540000000 1.0
C      1  0.4838690000000  0.4755180000000  0.4174950000000 1.0
C      1  0.5291380000000  0.4608520000000  0.4151680000000 1.0
C      1  0.4952180000000  0.4803050000000  0.4452200000000 1.0
C      1  0.4249370000000  0.4747620000000  0.5054140000000 1.0
C      1  0.4966180000000  0.4183620000000  0.4454830000000 1.0
C      1  0.5128370000000  0.5153360000000  0.5467940000000 1.0
C      1  0.5026630000000  0.5483620000000  0.4229830000000 1.0
C      1  0.5046290000000  0.5619480000000  0.5770920000000 1.0
C      1  0.4023460000000  0.5264550000000  0.5214450000000 1.0
C      1  0.4244360000000  0.4663370000000  0.4568190000000 1.0
C      1  0.4563090000000  0.5666920000000  0.4426720000000 1.0
C      1  0.4556110000000  0.4381070000000  0.5194370000000 1.0
C      1  0.5075790000000  0.4303230000000  0.4979760000000 1.0
C      1  0.4800790000000  0.5923370000000  0.5023320000000 1.0
C      1  0.5302310000000  0.5052450000000  0.4151230000000 1.0
C      1  0.4810480000000  0.5171820000000  0.5886960000000 1.0
C      1  0.4598840000000  0.4177430000000  0.4968750000000 1.0
C      1  0.4598680000000  0.4740400000000  0.5799000000000 1.0
C      1  0.5918640000000  0.5033130000000  0.4856370000000 1.0
C      1  0.4085980000000  0.5028380000000  0.5353910000000 1.0
C      1  0.5858450000000  0.5152920000000  0.4593850000000 1.0
C      1  0.5286600000000  0.5398420000000  0.5341690000000 1.0
C      1  0.4734300000000  0.4623920000000  0.5105160000000 1.0
C      1  0.4496440000000  0.4284120000000  0.4717450000000 1.0
C      1  0.4676410000000  0.4310370000000  0.4383110000000 1.0
C      1  0.5249560000000  0.5920460000000  0.4820960000000 1.0
C      1  0.5483330000000  0.5527820000000  0.5543940000000 1.0
C      1  0.4850280000000  0.4569140000000  0.4616400000000 1.0
C      1  0.5570190000000  0.4560400000000  0.5457700000000 1.0
C      1  0.4624200000000  0.4294340000000  0.5480180000000 1.0
C      1  0.4806180000000  0.5052230000000  0.4101540000000 1.0
C      1  0.5911200000000  0.4648380000000  0.5189960000000 1.0
C      1  0.5398740000000  0.4983910000000  0.5445460000000 1.0
C      1  0.5921330000000  0.4739720000000  0.4905930000000 1.0
C      1  0.5553590000000  0.5282320000000  0.5732730000000 1.0
C      1  0.5317160000000  0.4936220000000  0.5971500000000 1.0
C      1  0.5324770000000  0.5206810000000  0.5901340000000 1.0
C      1  0.5102530000000  0.4589850000000  0.5413990000000 1.0
C      1  0.4328600000000  0.5710370000000  0.4797370000000 1.0
C      1  0.4845290000000  0.4886720000000  0.5857940000000 1.0
C      1  0.5275180000000  0.5735710000000  0.5631710000000 1.0
C      1  0.4941220000000  0.5032890000000  0.5278420000000 1.0
C      1  0.5535240000000  0.4474930000000  0.4946530000000 1.0
C      1  0.5781940000000  0.4775270000000  0.5521240000000 1.0
C      1  0.4341850000000  0.4950390000000  0.5434670000000 1.0
C      1  0.4767650000000  0.5460240000000  0.4378170000000 1.0
C      1  0.5030480000000  0.4574510000000  0.4041670000000 1.0
C      1  0.4402200000000  0.4947220000000  0.5726350000000 1.0
C      1  0.4277500000000  0.4485340000000  0.5176550000000 1.0
C      1  0.4424430000000  0.5464240000000  0.5491280000000 1.0
C      1  0.4285210000000  0.5562290000000  0.4533320000000 1.0
C      1  0.5424650000000  0.4427470000000  0.4352940000000 1.0
C      1  0.4401750000000  0.5231730000000  0.4833280000000 1.0
C      1  0.5726040000000  0.5045540000000  0.5640020000000 1.0
C      1  0.5178650000000  0.5873820000000  0.5291030000000 1.0
C      1  0.5056800000000  0.5217560000000  0.4090100000000 1.0
C      1  0.5710760000000  0.5412320000000  0.4609900000000 1.0
C      1  0.5152020000000  0.4538450000000  0.5713500000000 1.0
C      1  0.5248490000000  0.4830980000000  0.4343700000000 1.0
END
