TITL C-950524-1808-733 -1.82600674458914e-06 125000 -950.185542278839 0 0 152 (C1) n - 1
REM
REM in /home/bkarasulu/work/CARBON/AIRSS/Generating-Clusters/EDIP-Nigel-Params/with-SteepDescent/Only-C1/SD-CG/HFTN-CG
REM
REM
REM
REM
REM
REM ./C.cell (11c1c37f851c82e70ff6c80c92926a4b)
REM
REM compiler GCC version 9.2.1 20190827 (Red Hat 9.2.1-1)
REM options -cpp -mtune=generic -march=x86-64 -g -O0 -fpre-include=/usr/include/finclude/math-vector-fortran.h
REM seed -613416895 -279892258 -168454069 270444352 901732798 -2092580213 877425349 -1241466872 -914911748 370800773 -1189034837 -1672604516 1891103466 -1264542089 1972282233 -507761538 -1613892001 -1734654153 -2129237911 1464484457 16201604 208876579 -1635061945 -1500670532 -2146824975 -371985304 624917222 1864755867 -687684135 891490451 1164032667 -1534938469 -1400881768
REM
CELL 1.54180   50.00000   50.00000   50.00000   90.00000   90.00000   90.00000
LATT -1
SFAC C  
C      1  0.5576260000000  0.5546810000000  0.4465970000000 1.0
C      1  0.5850480000000  0.5085350000000  0.4368550000000 1.0
C      1  0.5326170000000  0.4634020000000  0.5159480000000 1.0
C      1  0.4403180000000  0.4398160000000  0.5565650000000 1.0
C      1  0.5562500000000  0.6015100000000  0.5135010000000 1.0
C      1  0.4961460000000  0.4040470000000  0.5144470000000 1.0
C      1  0.5072460000000  0.4771580000000  0.4014210000000 1.0
C      1  0.5158740000000  0.5621650000000  0.5226610000000 1.0
C      1  0.5236990000000  0.5707710000000  0.5705620000000 1.0
C      1  0.4232880000000  0.5226660000000  0.4760990000000 1.0
C      1  0.5303400000000  0.5818460000000  0.5421930000000 1.0
C      1  0.3887970000000  0.4949210000000  0.4949710000000 1.0
C      1  0.4490150000000  0.5558260000000  0.4236510000000 1.0
C      1  0.5091290000000  0.4497600000000  0.5303690000000 1.0
C      1  0.4693540000000  0.5722890000000  0.5209700000000 1.0
C      1  0.3889320000000  0.5450450000000  0.4928970000000 1.0
C      1  0.5811180000000  0.4193690000000  0.4815700000000 1.0
C      1  0.5368760000000  0.5440680000000  0.5727490000000 1.0
C      1  0.4324740000000  0.5331200000000  0.5725380000000 1.0
C      1  0.5479090000000  0.4283860000000  0.5146900000000 1.0
C      1  0.5965980000000  0.5464110000000  0.5236070000000 1.0
C      1  0.4883500000000  0.4696940000000  0.5273440000000 1.0
C      1  0.4270530000000  0.4328200000000  0.5004940000000 1.0
C      1  0.5499650000000  0.4791010000000  0.5341800000000 1.0
C      1  0.5084780000000  0.4811130000000  0.5789470000000 1.0
C      1  0.6076860000000  0.5058330000000  0.4982760000000 1.0
C      1  0.5393250000000  0.5909940000000  0.4696220000000 1.0
C      1  0.5041790000000  0.6092910000000  0.5010950000000 1.0
C      1  0.4872960000000  0.4690770000000  0.4728970000000 1.0
C      1  0.4719070000000  0.5393200000000  0.4183380000000 1.0
C      1  0.4343980000000  0.5070000000000  0.4963720000000 1.0
C      1  0.4766190000000  0.5532520000000  0.5804680000000 1.0
C      1  0.5293460000000  0.4266070000000  0.5602980000000 1.0
C      1  0.4620170000000  0.5172220000000  0.5294210000000 1.0
C      1  0.6049120000000  0.5177930000000  0.5259220000000 1.0
C      1  0.4938680000000  0.5180170000000  0.4617510000000 1.0
C      1  0.4486840000000  0.5576890000000  0.5693710000000 1.0
C      1  0.4843880000000  0.3981840000000  0.4861810000000 1.0
C      1  0.5265210000000  0.3955740000000  0.5153880000000 1.0
C      1  0.4522880000000  0.4916350000000  0.5435690000000 1.0
C      1  0.4912740000000  0.5589370000000  0.5378300000000 1.0
C      1  0.5616510000000  0.4759440000000  0.4184410000000 1.0
C      1  0.5368240000000  0.4726250000000  0.5851700000000 1.0
C      1  0.6013460000000  0.5546510000000  0.4955080000000 1.0
C      1  0.5375370000000  0.4535840000000  0.4731120000000 1.0
C      1  0.5135780000000  0.5328990000000  0.4805810000000 1.0
C      1  0.4104840000000  0.5610620000000  0.5030480000000 1.0
C      1  0.4993460000000  0.5497340000000  0.4190520000000 1.0
C      1  0.4296160000000  0.4971570000000  0.4342200000000 1.0
C      1  0.5292720000000  0.4066360000000  0.4808860000000 1.0
C      1  0.4348560000000  0.4709630000000  0.5218630000000 1.0
C      1  0.4963610000000  0.4607000000000  0.5982300000000 1.0
C      1  0.4370800000000  0.4956530000000  0.5714840000000 1.0
C      1  0.5501040000000  0.5011530000000  0.5846610000000 1.0
C      1  0.5458650000000  0.4507820000000  0.5673000000000 1.0
C      1  0.5099640000000  0.5681030000000  0.4400050000000 1.0
C      1  0.4162370000000  0.4737580000000  0.4595830000000 1.0
C      1  0.4508230000000  0.4754530000000  0.5916710000000 1.0
C      1  0.5603800000000  0.5863300000000  0.4889240000000 1.0
C      1  0.5632860000000  0.5396720000000  0.5607560000000 1.0
C      1  0.4520640000000  0.4898980000000  0.4143940000000 1.0
C      1  0.4868760000000  0.5053810000000  0.6147380000000 1.0
C      1  0.4481900000000  0.5732590000000  0.4471470000000 1.0
C      1  0.5580750000000  0.5190850000000  0.4734520000000 1.0
C      1  0.4678130000000  0.5787760000000  0.4691920000000 1.0
C      1  0.4147070000000  0.4940730000000  0.5134440000000 1.0
C      1  0.4241150000000  0.5810510000000  0.4861220000000 1.0
C      1  0.6052970000000  0.5297540000000  0.4792280000000 1.0
C      1  0.4500090000000  0.4464020000000  0.4887200000000 1.0
C      1  0.5321790000000  0.5147900000000  0.4338570000000 1.0
C      1  0.5022600000000  0.5097340000000  0.5902490000000 1.0
C      1  0.5245570000000  0.4798110000000  0.4708490000000 1.0
C      1  0.4656970000000  0.4784050000000  0.4551510000000 1.0
C      1  0.5522320000000  0.5172710000000  0.5015700000000 1.0
C      1  0.5725750000000  0.5552990000000  0.5381840000000 1.0
C      1  0.4700310000000  0.5130720000000  0.4047630000000 1.0
C      1  0.4723940000000  0.4708100000000  0.4268440000000 1.0
C      1  0.5868150000000  0.4831440000000  0.4956860000000 1.0
C      1  0.5298880000000  0.5228570000000  0.5921240000000 1.0
C      1  0.4756560000000  0.4795110000000  0.6093040000000 1.0
C      1  0.5590140000000  0.5040030000000  0.4231650000000 1.0
C      1  0.4106050000000  0.5501520000000  0.4439350000000 1.0
C      1  0.4213410000000  0.5550960000000  0.5297230000000 1.0
C      1  0.5166940000000  0.4346630000000  0.4838820000000 1.0
C      1  0.4213490000000  0.5743790000000  0.4572430000000 1.0
C      1  0.4052510000000  0.4511890000000  0.5065300000000 1.0
C      1  0.5553310000000  0.4133240000000  0.4656470000000 1.0
C      1  0.4937800000000  0.5720300000000  0.5652870000000 1.0
C      1  0.3964590000000  0.4686500000000  0.4821290000000 1.0
C      1  0.5680320000000  0.4968930000000  0.5154660000000 1.0
C      1  0.4982790000000  0.4263410000000  0.5597430000000 1.0
C      1  0.4078720000000  0.5062770000000  0.5396020000000 1.0
C      1  0.4937150000000  0.5869700000000  0.4565030000000 1.0
C      1  0.4694840000000  0.4403220000000  0.4251270000000 1.0
C      1  0.4689760000000  0.4231070000000  0.4762660000000 1.0
C      1  0.5385480000000  0.5759270000000  0.4444160000000 1.0
C      1  0.5801890000000  0.4490060000000  0.4485100000000 1.0
C      1  0.4745130000000  0.4754620000000  0.5514770000000 1.0
C      1  0.5509420000000  0.4392970000000  0.4505930000000 1.0
C      1  0.4179770000000  0.4568820000000  0.5435680000000 1.0
C      1  0.5051960000000  0.5606620000000  0.4935890000000 1.0
C      1  0.4370330000000  0.5221430000000  0.4493120000000 1.0
C      1  0.4732470000000  0.4752170000000  0.5015640000000 1.0
C      1  0.5958710000000  0.4430260000000  0.4718950000000 1.0
C      1  0.5021950000000  0.4318710000000  0.5091220000000 1.0
C      1  0.5275540000000  0.6120060000000  0.5191140000000 1.0
C      1  0.4115500000000  0.4834230000000  0.5592660000000 1.0
C      1  0.4832980000000  0.4391050000000  0.5824330000000 1.0
C      1  0.5115040000000  0.5887870000000  0.4802860000000 1.0
C      1  0.4883670000000  0.5284630000000  0.5422740000000 1.0
C      1  0.5765760000000  0.4291640000000  0.5087530000000 1.0
C      1  0.4741430000000  0.5592670000000  0.4928060000000 1.0
C      1  0.4924030000000  0.4396650000000  0.4664130000000 1.0
C      1  0.4346730000000  0.4125300000000  0.5181080000000 1.0
C      1  0.5162620000000  0.5266640000000  0.4108880000000 1.0
C      1  0.4843090000000  0.5257000000000  0.5718530000000 1.0
C      1  0.5004090000000  0.4238320000000  0.4402830000000 1.0
C      1  0.5118970000000  0.4974100000000  0.4493410000000 1.0
C      1  0.4447230000000  0.5694250000000  0.5401500000000 1.0
C      1  0.5419970000000  0.4109500000000  0.5383250000000 1.0
C      1  0.4521290000000  0.4196920000000  0.5386680000000 1.0
C      1  0.4754720000000  0.6033830000000  0.5115730000000 1.0
C      1  0.4556160000000  0.4148520000000  0.4515430000000 1.0
C      1  0.4421890000000  0.4593960000000  0.4614790000000 1.0
C      1  0.5915990000000  0.4991790000000  0.5463790000000 1.0
C      1  0.5054560000000  0.3972540000000  0.4628600000000 1.0
C      1  0.5610450000000  0.5824520000000  0.5376880000000 1.0
C      1  0.5250750000000  0.4550110000000  0.4051440000000 1.0
C      1  0.5386310000000  0.5336480000000  0.4575060000000 1.0
C      1  0.5826200000000  0.5276940000000  0.4588860000000 1.0
C      1  0.4555650000000  0.5992410000000  0.4882940000000 1.0
C      1  0.4985630000000  0.5047140000000  0.3998790000000 1.0
C      1  0.5511500000000  0.4616050000000  0.3966580000000 1.0
C      1  0.4614940000000  0.4558340000000  0.5708610000000 1.0
C      1  0.4650050000000  0.5087970000000  0.4643580000000 1.0
C      1  0.5149870000000  0.5161500000000  0.5336970000000 1.0
C      1  0.5261740000000  0.4367390000000  0.4292300000000 1.0
C      1  0.4804400000000  0.4097560000000  0.5408780000000 1.0
C      1  0.5940150000000  0.4562870000000  0.5087890000000 1.0
C      1  0.3937060000000  0.5206220000000  0.4788990000000 1.0
C      1  0.5856860000000  0.5753490000000  0.4843300000000 1.0
C      1  0.5307010000000  0.4969100000000  0.5509610000000 1.0
C      1  0.5232660000000  0.5135540000000  0.5047840000000 1.0
C      1  0.5914620000000  0.4680270000000  0.5393730000000 1.0
C      1  0.4221580000000  0.5471290000000  0.4179410000000 1.0
C      1  0.5866370000000  0.4705180000000  0.4313160000000 1.0
C      1  0.5187600000000  0.4849750000000  0.4987050000000 1.0
C      1  0.5716380000000  0.4541010000000  0.5550540000000 1.0
C      1  0.4436790000000  0.4378920000000  0.4404940000000 1.0
C      1  0.4269920000000  0.5287600000000  0.5435470000000 1.0
C      1  0.5699180000000  0.5117540000000  0.5637460000000 1.0
C      1  0.4633700000000  0.5052620000000  0.4997530000000 1.0
END
