TITL C-950524-1808-529 3.0810735911137e-07 125000 -242.404551157694 0 0 41 (C1) n - 1
REM
REM in /home/bkarasulu/work/CARBON/AIRSS/Generating-Clusters/EDIP-Nigel-Params/with-SteepDescent/Only-C1/SD-CG/HFTN-CG
REM
REM
REM
REM
REM
REM ./C.cell (11c1c37f851c82e70ff6c80c92926a4b)
REM
REM compiler GCC version 9.2.1 20190827 (Red Hat 9.2.1-1)
REM options -cpp -mtune=generic -march=x86-64 -g -O0 -fpre-include=/usr/include/finclude/math-vector-fortran.h
REM seed -774295949 1647707181 -1173756126 -980868723 -1108601772 87563784 235671710 -1117786464 -1411836108 -1811892805 603474731 -163080349 1318022479 1638343410 523771331 2905520 -2029732435 101633547 1520692456 143877048 -143334761 1204611732 491558388 -1721883524 -1272103705 -245193276 1268650398 793700349 1739039519 -1712983236 -1057720010 262054521 647476903
REM
CELL 1.54180   50.00000   50.00000   50.00000   90.00000   90.00000   90.00000
LATT -1
SFAC C  
C      1  0.4413020000000  0.5059590000000  0.5630600000000 1.0
C      1  0.4646880000000  0.4961680000000  0.5761860000000 1.0
C      1  0.4966510000000  0.5551810000000  0.4827440000000 1.0
C      1  0.4607270000000  0.5478070000000  0.5113450000000 1.0
C      1  0.5264640000000  0.5122070000000  0.4783980000000 1.0
C      1  0.4511400000000  0.5096940000000  0.5356430000000 1.0
C      1  0.4894660000000  0.4720400000000  0.4710760000000 1.0
C      1  0.5443330000000  0.4564190000000  0.5133450000000 1.0
C      1  0.5065300000000  0.4952270000000  0.4370050000000 1.0
C      1  0.5654280000000  0.4746710000000  0.5172450000000 1.0
C      1  0.5008560000000  0.5084260000000  0.4644600000000 1.0
C      1  0.5171810000000  0.4534790000000  0.5085460000000 1.0
C      1  0.5112430000000  0.5461070000000  0.4376870000000 1.0
C      1  0.4849200000000  0.5414420000000  0.5264710000000 1.0
C      1  0.4578970000000  0.4968190000000  0.4226880000000 1.0
C      1  0.4668730000000  0.4688840000000  0.5817040000000 1.0
C      1  0.5037460000000  0.4671960000000  0.4462130000000 1.0
C      1  0.5002320000000  0.4429020000000  0.5276200000000 1.0
C      1  0.5477760000000  0.4942040000000  0.4724130000000 1.0
C      1  0.5668530000000  0.4968660000000  0.4949770000000 1.0
C      1  0.4390640000000  0.5321560000000  0.5209410000000 1.0
C      1  0.4888850000000  0.5080580000000  0.5646930000000 1.0
C      1  0.5081250000000  0.4533060000000  0.4815490000000 1.0
C      1  0.5088180000000  0.5445860000000  0.5089400000000 1.0
C      1  0.5531280000000  0.5169570000000  0.5160130000000 1.0
C      1  0.4724750000000  0.4481270000000  0.5656210000000 1.0
C      1  0.5254890000000  0.5199760000000  0.5057350000000 1.0
C      1  0.5319570000000  0.5324710000000  0.4265710000000 1.0
C      1  0.4679090000000  0.5531610000000  0.4839080000000 1.0
C      1  0.4922350000000  0.5371860000000  0.4577720000000 1.0
C      1  0.4851380000000  0.5028100000000  0.4175650000000 1.0
C      1  0.5134080000000  0.4954830000000  0.5679630000000 1.0
C      1  0.5580660000000  0.4961480000000  0.5383700000000 1.0
C      1  0.4477110000000  0.4852210000000  0.5211550000000 1.0
C      1  0.5361010000000  0.4905620000000  0.5548390000000 1.0
C      1  0.5547710000000  0.4943490000000  0.4452300000000 1.0
C      1  0.4804150000000  0.5153520000000  0.5381660000000 1.0
C      1  0.4660180000000  0.5223260000000  0.4257450000000 1.0
C      1  0.4748590000000  0.4452920000000  0.5381970000000 1.0
C      1  0.4570270000000  0.4602440000000  0.5233280000000 1.0
C      1  0.5340960000000  0.5045320000000  0.4288720000000 1.0
END
