TITL C-951335-1172-300 -1.11643802303699e-06 125000 -545.499865885438 0 0 90 (C1) n - 1
REM
REM in /home/bkarasulu/work/CARBON/AIRSS/Generating-Clusters/EDIP-Nigel-Params/with-SteepDescent/Only-C1/SD-CG/HFTN-CG
REM
REM
REM
REM
REM
REM ./C.cell (11c1c37f851c82e70ff6c80c92926a4b)
REM
REM compiler GCC version 9.2.1 20190827 (Red Hat 9.2.1-1)
REM options -cpp -mtune=generic -march=x86-64 -g -O0 -fpre-include=/usr/include/finclude/math-vector-fortran.h
REM seed -1873139308 1835592560 -1223597461 1888501021 293039660 -714348642 964691891 -1932050906 -746630640 1909000873 -133467279 1542076384 125728842 -67164092 -1933057504 -911435631 430829396 1505950212 617767352 2124961032 -355627753 -159237376 -703198833 -1148953379 -1860754019 1220094468 -859215721 -347202721 -862814127 -433822250 -490534618 -163545417 -118087344
REM
CELL 1.54180   50.00000   50.00000   50.00000   90.00000   90.00000   90.00000
LATT -1
SFAC C  
C      1  0.4787320000000  0.4831880000000  0.5156170000000 1.0
C      1  0.4512760000000  0.5271590000000  0.4608450000000 1.0
C      1  0.5616180000000  0.5379130000000  0.5402330000000 1.0
C      1  0.4380240000000  0.5545260000000  0.4653470000000 1.0
C      1  0.4376350000000  0.5336710000000  0.5345130000000 1.0
C      1  0.4996470000000  0.5423740000000  0.4924740000000 1.0
C      1  0.5609920000000  0.5556940000000  0.5189060000000 1.0
C      1  0.4875750000000  0.5089070000000  0.5248130000000 1.0
C      1  0.4843600000000  0.4223470000000  0.4910910000000 1.0
C      1  0.4955250000000  0.4964160000000  0.5914080000000 1.0
C      1  0.5533450000000  0.4894700000000  0.4245140000000 1.0
C      1  0.5321810000000  0.4729540000000  0.5618380000000 1.0
C      1  0.5262550000000  0.4173980000000  0.5157060000000 1.0
C      1  0.4459510000000  0.5716380000000  0.5087240000000 1.0
C      1  0.4870420000000  0.5137700000000  0.4299600000000 1.0
C      1  0.4129080000000  0.4863360000000  0.5175730000000 1.0
C      1  0.5577730000000  0.4680710000000  0.4418700000000 1.0
C      1  0.4609770000000  0.4841720000000  0.4904310000000 1.0
C      1  0.5666070000000  0.4471600000000  0.5011140000000 1.0
C      1  0.5468360000000  0.5027400000000  0.4909950000000 1.0
C      1  0.5354430000000  0.4295840000000  0.4693050000000 1.0
C      1  0.5290620000000  0.5463990000000  0.5806570000000 1.0
C      1  0.5612230000000  0.4262390000000  0.4811830000000 1.0
C      1  0.4930020000000  0.4690170000000  0.4178860000000 1.0
C      1  0.4773790000000  0.5628670000000  0.4416510000000 1.0
C      1  0.5027630000000  0.5543150000000  0.5778890000000 1.0
C      1  0.5136670000000  0.4808740000000  0.5231750000000 1.0
C      1  0.5232920000000  0.5249520000000  0.5640400000000 1.0
C      1  0.4553090000000  0.5156420000000  0.4897530000000 1.0
C      1  0.5136360000000  0.5149060000000  0.4218190000000 1.0
C      1  0.4794660000000  0.4741890000000  0.4641060000000 1.0
C      1  0.4790470000000  0.4084650000000  0.5153110000000 1.0
C      1  0.4767980000000  0.5340290000000  0.4474330000000 1.0
C      1  0.5472020000000  0.4325180000000  0.5313430000000 1.0
C      1  0.5086670000000  0.5730980000000  0.5319780000000 1.0
C      1  0.4648670000000  0.5702960000000  0.5528010000000 1.0
C      1  0.5242660000000  0.5588550000000  0.4280680000000 1.0
C      1  0.4373780000000  0.5081440000000  0.4439970000000 1.0
C      1  0.4613840000000  0.4403400000000  0.4851190000000 1.0
C      1  0.4887900000000  0.4389460000000  0.4504410000000 1.0
C      1  0.5145560000000  0.4650680000000  0.4968400000000 1.0
C      1  0.5233930000000  0.5882630000000  0.4932720000000 1.0
C      1  0.4405800000000  0.4803670000000  0.5626150000000 1.0
C      1  0.5337600000000  0.4504750000000  0.4479140000000 1.0
C      1  0.4197650000000  0.4850790000000  0.5447080000000 1.0
C      1  0.5260450000000  0.5059820000000  0.4676520000000 1.0
C      1  0.4507200000000  0.4421130000000  0.4584880000000 1.0
C      1  0.4500780000000  0.4439330000000  0.5331110000000 1.0
C      1  0.4477220000000  0.4878420000000  0.4290270000000 1.0
C      1  0.4785530000000  0.5279670000000  0.5051110000000 1.0
C      1  0.5215610000000  0.5813680000000  0.4656120000000 1.0
C      1  0.5309410000000  0.5060180000000  0.5179910000000 1.0
C      1  0.4613650000000  0.5742900000000  0.4639130000000 1.0
C      1  0.5734620000000  0.4779800000000  0.4655070000000 1.0
C      1  0.5083890000000  0.4496230000000  0.4318820000000 1.0
C      1  0.5432810000000  0.5161470000000  0.5442880000000 1.0
C      1  0.5011790000000  0.4148030000000  0.5314860000000 1.0
C      1  0.4729690000000  0.5704180000000  0.4935510000000 1.0
C      1  0.5143800000000  0.4332500000000  0.4918280000000 1.0
C      1  0.4305770000000  0.5276010000000  0.5066410000000 1.0
C      1  0.5787140000000  0.5066990000000  0.4696540000000 1.0
C      1  0.5778640000000  0.5453630000000  0.4991150000000 1.0
C      1  0.5867360000000  0.5188420000000  0.4948630000000 1.0
C      1  0.4270390000000  0.5548440000000  0.4929840000000 1.0
C      1  0.4428330000000  0.4469710000000  0.5062770000000 1.0
C      1  0.5779460000000  0.4817770000000  0.5361690000000 1.0
C      1  0.4920290000000  0.5666270000000  0.5547960000000 1.0
C      1  0.5306520000000  0.5551000000000  0.4565720000000 1.0
C      1  0.4067110000000  0.5111790000000  0.5064470000000 1.0
C      1  0.5027980000000  0.4399090000000  0.5462490000000 1.0
C      1  0.4270150000000  0.4696410000000  0.4991200000000 1.0
C      1  0.5149500000000  0.5337840000000  0.4698730000000 1.0
C      1  0.5573660000000  0.4726910000000  0.4889710000000 1.0
C      1  0.5344330000000  0.5680350000000  0.5141660000000 1.0
C      1  0.5295120000000  0.4484810000000  0.5475370000000 1.0
C      1  0.5063720000000  0.4827750000000  0.4743990000000 1.0
C      1  0.5789440000000  0.4533850000000  0.5284310000000 1.0
C      1  0.5555310000000  0.4909080000000  0.5544150000000 1.0
C      1  0.5015620000000  0.5763940000000  0.4326900000000 1.0
C      1  0.4762590000000  0.4864350000000  0.4347270000000 1.0
C      1  0.5872420000000  0.5013630000000  0.5173200000000 1.0
C      1  0.4701740000000  0.5039630000000  0.5959270000000 1.0
C      1  0.4864230000000  0.4571340000000  0.5626970000000 1.0
C      1  0.4583280000000  0.4591420000000  0.5549820000000 1.0
C      1  0.4646410000000  0.4297450000000  0.4379090000000 1.0
C      1  0.5345720000000  0.5056450000000  0.4377040000000 1.0
C      1  0.5043000000000  0.4788270000000  0.5717530000000 1.0
C      1  0.4448640000000  0.5610030000000  0.5359070000000 1.0
C      1  0.4475890000000  0.4973910000000  0.5832130000000 1.0
C      1  0.4954270000000  0.5877790000000  0.5077700000000 1.0
END
