TITL C-951333-8791-42 1.94115652932571e-07 125000 -613.52096575088 0 0 100 (C1) n - 1
REM
REM in /home/bkarasulu/work/CARBON/AIRSS/Generating-Clusters/EDIP-Nigel-Params/with-SteepDescent/Only-C1/SD-CG/HFTN-CG
REM
REM
REM
REM
REM
REM ./C.cell (11c1c37f851c82e70ff6c80c92926a4b)
REM
REM compiler GCC version 9.2.1 20190827 (Red Hat 9.2.1-1)
REM options -cpp -mtune=generic -march=x86-64 -g -O0 -fpre-include=/usr/include/finclude/math-vector-fortran.h
REM seed 1235919753 -1751574746 -499531867 750920604 1802531218 914520646 171344258 353356745 -677543496 30810170 -627752197 1213014676 -117410281 -1253205803 664436477 530665920 1781227582 2037050851 -320912188 -1271486583 -505231205 -1481752853 70679743 -1141902053 1357797351 -2028766702 821440579 -1017381587 1349886155 -22583707 -479187720 -1937220518 -627957052
REM
CELL 1.54180   50.00000   50.00000   50.00000   90.00000   90.00000   90.00000
LATT -1
SFAC C  
C      1  0.5581940000000  0.4828960000000  0.4727300000000 1.0
C      1  0.4519350000000  0.4900880000000  0.5079480000000 1.0
C      1  0.5275910000000  0.4501150000000  0.5337200000000 1.0
C      1  0.5026420000000  0.4118790000000  0.5166760000000 1.0
C      1  0.5327230000000  0.4400290000000  0.4243470000000 1.0
C      1  0.4394020000000  0.4562170000000  0.4706710000000 1.0
C      1  0.4713920000000  0.5503650000000  0.5624180000000 1.0
C      1  0.5348700000000  0.4641790000000  0.4783840000000 1.0
C      1  0.4778050000000  0.5838300000000  0.4952900000000 1.0
C      1  0.4804570000000  0.5754950000000  0.5437960000000 1.0
C      1  0.5460580000000  0.5426780000000  0.4185220000000 1.0
C      1  0.4685310000000  0.5073020000000  0.4102960000000 1.0
C      1  0.4993740000000  0.4168440000000  0.4882400000000 1.0
C      1  0.4506630000000  0.5530260000000  0.4675550000000 1.0
C      1  0.5763380000000  0.5173560000000  0.5297610000000 1.0
C      1  0.5705870000000  0.4523580000000  0.5062900000000 1.0
C      1  0.5130050000000  0.4336260000000  0.4434500000000 1.0
C      1  0.4658620000000  0.4925840000000  0.4585850000000 1.0
C      1  0.5395780000000  0.4967450000000  0.4252820000000 1.0
C      1  0.5514140000000  0.5062580000000  0.4898970000000 1.0
C      1  0.4806570000000  0.4786580000000  0.5051690000000 1.0
C      1  0.4835440000000  0.5789020000000  0.4456330000000 1.0
C      1  0.5155310000000  0.5329840000000  0.5250220000000 1.0
C      1  0.5165000000000  0.5574530000000  0.4710580000000 1.0
C      1  0.4444430000000  0.5575310000000  0.5187820000000 1.0
C      1  0.5463570000000  0.5501270000000  0.5081260000000 1.0
C      1  0.4375120000000  0.4852830000000  0.4666380000000 1.0
C      1  0.5412660000000  0.4768590000000  0.5743650000000 1.0
C      1  0.5103620000000  0.4762230000000  0.4325840000000 1.0
C      1  0.4357810000000  0.4494620000000  0.4991980000000 1.0
C      1  0.4776000000000  0.4272290000000  0.5253720000000 1.0
C      1  0.5216480000000  0.4228300000000  0.4695720000000 1.0
C      1  0.4894330000000  0.4947520000000  0.5763110000000 1.0
C      1  0.4683550000000  0.4452540000000  0.4644730000000 1.0
C      1  0.5019870000000  0.4602500000000  0.5473910000000 1.0
C      1  0.4233160000000  0.5225260000000  0.5011520000000 1.0
C      1  0.5064340000000  0.5900850000000  0.5018360000000 1.0
C      1  0.5342850000000  0.5308410000000  0.4702080000000 1.0
C      1  0.4812190000000  0.4562110000000  0.5270240000000 1.0
C      1  0.5679130000000  0.5567670000000  0.4900930000000 1.0
C      1  0.4528460000000  0.5351570000000  0.4450570000000 1.0
C      1  0.4431600000000  0.4349610000000  0.5570390000000 1.0
C      1  0.4140690000000  0.5251420000000  0.5296670000000 1.0
C      1  0.4252780000000  0.5510140000000  0.5409550000000 1.0
C      1  0.4276530000000  0.5081450000000  0.5505870000000 1.0
C      1  0.5065980000000  0.5629450000000  0.4431980000000 1.0
C      1  0.4519630000000  0.4166480000000  0.5378960000000 1.0
C      1  0.5255670000000  0.5238400000000  0.4166650000000 1.0
C      1  0.5816010000000  0.4705110000000  0.4859480000000 1.0
C      1  0.5577410000000  0.4938360000000  0.5344140000000 1.0
C      1  0.4207710000000  0.4983000000000  0.4862170000000 1.0
C      1  0.4776820000000  0.4609750000000  0.4195670000000 1.0
C      1  0.5142290000000  0.4750550000000  0.5870590000000 1.0
C      1  0.5415700000000  0.4995870000000  0.5572370000000 1.0
C      1  0.4920880000000  0.5460300000000  0.5137870000000 1.0
C      1  0.5164900000000  0.5393850000000  0.5556540000000 1.0
C      1  0.4653010000000  0.5784690000000  0.4670700000000 1.0
C      1  0.5342420000000  0.4663370000000  0.4142940000000 1.0
C      1  0.4346890000000  0.5479940000000  0.4916270000000 1.0
C      1  0.4663660000000  0.5370870000000  0.5262650000000 1.0
C      1  0.4679180000000  0.4864200000000  0.4286780000000 1.0
C      1  0.5109060000000  0.5100880000000  0.4653260000000 1.0
C      1  0.4617740000000  0.5816370000000  0.5208490000000 1.0
C      1  0.5260060000000  0.4218800000000  0.5277530000000 1.0
C      1  0.5359600000000  0.4943800000000  0.5133450000000 1.0
C      1  0.5094810000000  0.5775180000000  0.5287490000000 1.0
C      1  0.5696630000000  0.4650720000000  0.5336620000000 1.0
C      1  0.4908480000000  0.5483410000000  0.4839820000000 1.0
C      1  0.4295070000000  0.4792090000000  0.5437120000000 1.0
C      1  0.4819410000000  0.5216450000000  0.4672960000000 1.0
C      1  0.4731630000000  0.5303650000000  0.4251170000000 1.0
C      1  0.5390280000000  0.5686130000000  0.5307610000000 1.0
C      1  0.4222190000000  0.4675850000000  0.5179480000000 1.0
C      1  0.4928640000000  0.5302200000000  0.5714150000000 1.0
C      1  0.4830980000000  0.4716600000000  0.4744910000000 1.0
C      1  0.5263700000000  0.5815980000000  0.4839670000000 1.0
C      1  0.4759440000000  0.4506830000000  0.5907510000000 1.0
C      1  0.5747630000000  0.5253480000000  0.4527410000000 1.0
C      1  0.4713160000000  0.4215400000000  0.4820160000000 1.0
C      1  0.5460630000000  0.4358450000000  0.4810850000000 1.0
C      1  0.4422170000000  0.5420020000000  0.5631280000000 1.0
C      1  0.4842960000000  0.4408840000000  0.4390040000000 1.0
C      1  0.5499470000000  0.4546110000000  0.5541500000000 1.0
C      1  0.5422610000000  0.5277940000000  0.5637540000000 1.0
C      1  0.4638680000000  0.4745820000000  0.5810570000000 1.0
C      1  0.5801460000000  0.5129590000000  0.4997750000000 1.0
C      1  0.4909590000000  0.4956700000000  0.5441580000000 1.0
C      1  0.4621440000000  0.5066650000000  0.5325010000000 1.0
C      1  0.5078680000000  0.5047320000000  0.5188370000000 1.0
C      1  0.5985610000000  0.4907380000000  0.4951770000000 1.0
C      1  0.5007530000000  0.4506610000000  0.5772940000000 1.0
C      1  0.5626500000000  0.4974070000000  0.4466410000000 1.0
C      1  0.5291070000000  0.4673430000000  0.5076630000000 1.0
C      1  0.5526900000000  0.5428240000000  0.4459900000000 1.0
C      1  0.5108000000000  0.4793610000000  0.4631120000000 1.0
C      1  0.5016990000000  0.5361660000000  0.4309400000000 1.0
C      1  0.4451310000000  0.4627740000000  0.5610400000000 1.0
C      1  0.4490830000000  0.4226060000000  0.5043210000000 1.0
C      1  0.5607850000000  0.5397690000000  0.5431240000000 1.0
C      1  0.5837360000000  0.5352850000000  0.4806200000000 1.0
END
