TITL C-951340-9809-362 -3.48625705017017e-06 125000 -946.112441029008 0 0 153 (C1) n - 1
REM
REM in /home/bkarasulu/work/CARBON/AIRSS/Generating-Clusters/EDIP-Nigel-Params/with-SteepDescent/Only-C1/SD-CG/HFTN-CG
REM
REM
REM
REM
REM
REM ./C.cell (11c1c37f851c82e70ff6c80c92926a4b)
REM
REM compiler GCC version 9.2.1 20190827 (Red Hat 9.2.1-1)
REM options -cpp -mtune=generic -march=x86-64 -g -O0 -fpre-include=/usr/include/finclude/math-vector-fortran.h
REM seed 367635091 314854098 -1033517708 -1275251631 -2064215956 -743723358 715047637 -988829563 158230373 -1687858148 702690230 -1097621370 -697999089 -280708426 1942296467 1164126436 -935124678 987813407 1693696100 -1884472374 -1832051266 1892869729 938691423 1152877898 2137472263 -431678575 -1589255559 -374039608 -1876814152 -1203748586 163165904 769782551 -1328563242
REM
CELL 1.54180   50.00000   50.00000   50.00000   90.00000   90.00000   90.00000
LATT -1
SFAC C  
C      1  0.4474600000000  0.5191400000000  0.4248580000000 1.0
C      1  0.5748240000000  0.4992260000000  0.4885350000000 1.0
C      1  0.4789990000000  0.4941360000000  0.4541330000000 1.0
C      1  0.5063010000000  0.4890370000000  0.5184700000000 1.0
C      1  0.5871470000000  0.5482380000000  0.4411010000000 1.0
C      1  0.4692510000000  0.5888500000000  0.4805990000000 1.0
C      1  0.4489480000000  0.5498300000000  0.5132620000000 1.0
C      1  0.4287180000000  0.4256640000000  0.5197630000000 1.0
C      1  0.4817960000000  0.5827570000000  0.4386870000000 1.0
C      1  0.5355290000000  0.5057410000000  0.5898760000000 1.0
C      1  0.4954180000000  0.5459830000000  0.5209170000000 1.0
C      1  0.5287870000000  0.5100870000000  0.5596110000000 1.0
C      1  0.5119760000000  0.4480020000000  0.4752910000000 1.0
C      1  0.4824500000000  0.3948140000000  0.4974860000000 1.0
C      1  0.4799770000000  0.4314570000000  0.4327510000000 1.0
C      1  0.5162120000000  0.6043230000000  0.5475880000000 1.0
C      1  0.5520350000000  0.4882710000000  0.5029560000000 1.0
C      1  0.5633750000000  0.5026420000000  0.4283310000000 1.0
C      1  0.4299730000000  0.4778670000000  0.4463840000000 1.0
C      1  0.4550730000000  0.4344290000000  0.5655020000000 1.0
C      1  0.4550560000000  0.4201040000000  0.5359980000000 1.0
C      1  0.4484040000000  0.4982250000000  0.5793550000000 1.0
C      1  0.5354890000000  0.4739740000000  0.5485610000000 1.0
C      1  0.5937300000000  0.4714130000000  0.5235350000000 1.0
C      1  0.4620720000000  0.5029680000000  0.4054410000000 1.0
C      1  0.5321380000000  0.4297110000000  0.5719850000000 1.0
C      1  0.4640560000000  0.5376030000000  0.5631380000000 1.0
C      1  0.5811150000000  0.5289820000000  0.4871220000000 1.0
C      1  0.4759150000000  0.4627660000000  0.4547950000000 1.0
C      1  0.5542180000000  0.4588460000000  0.5038690000000 1.0
C      1  0.4869160000000  0.4809080000000  0.5572680000000 1.0
C      1  0.5481070000000  0.4778820000000  0.5917040000000 1.0
C      1  0.4572370000000  0.5348000000000  0.4879360000000 1.0
C      1  0.5272490000000  0.4470290000000  0.5064210000000 1.0
C      1  0.5294120000000  0.4196530000000  0.5224230000000 1.0
C      1  0.4911660000000  0.4848400000000  0.6045290000000 1.0
C      1  0.5375600000000  0.5125370000000  0.4150530000000 1.0
C      1  0.5287620000000  0.5056850000000  0.5075430000000 1.0
C      1  0.5484120000000  0.4702910000000  0.4569270000000 1.0
C      1  0.5118100000000  0.5573540000000  0.4346780000000 1.0
C      1  0.4883260000000  0.5041860000000  0.4807080000000 1.0
C      1  0.5909070000000  0.5268170000000  0.4581290000000 1.0
C      1  0.4029600000000  0.5014260000000  0.5035040000000 1.0
C      1  0.5759930000000  0.4494250000000  0.5221430000000 1.0
C      1  0.5568450000000  0.4331550000000  0.4279440000000 1.0
C      1  0.5589770000000  0.5781550000000  0.4635890000000 1.0
C      1  0.4691990000000  0.4435520000000  0.5249400000000 1.0
C      1  0.4573400000000  0.4863450000000  0.5528030000000 1.0
C      1  0.4631230000000  0.5445000000000  0.4285740000000 1.0
C      1  0.4658590000000  0.4959230000000  0.6010710000000 1.0
C      1  0.4611820000000  0.4214590000000  0.4546210000000 1.0
C      1  0.5661650000000  0.4846020000000  0.5459330000000 1.0
C      1  0.5082170000000  0.5086740000000  0.6037820000000 1.0
C      1  0.5022770000000  0.4173540000000  0.5389830000000 1.0
C      1  0.5362220000000  0.4049620000000  0.4952430000000 1.0
C      1  0.4149220000000  0.5648570000000  0.4860520000000 1.0
C      1  0.5027140000000  0.5996500000000  0.5717920000000 1.0
C      1  0.5481250000000  0.5687390000000  0.4883830000000 1.0
C      1  0.5016960000000  0.5928620000000  0.4587830000000 1.0
C      1  0.5288760000000  0.4603490000000  0.5754060000000 1.0
C      1  0.4650450000000  0.4746920000000  0.4136790000000 1.0
C      1  0.5235690000000  0.5408470000000  0.4101830000000 1.0
C      1  0.4055030000000  0.5195440000000  0.4375710000000 1.0
C      1  0.4226930000000  0.4607060000000  0.4703170000000 1.0
C      1  0.4466780000000  0.4601910000000  0.4299150000000 1.0
C      1  0.5981720000000  0.4808210000000  0.4953980000000 1.0
C      1  0.4905400000000  0.4640370000000  0.4046150000000 1.0
C      1  0.5715220000000  0.4347900000000  0.5448920000000 1.0
C      1  0.4082710000000  0.4938670000000  0.5490830000000 1.0
C      1  0.5041050000000  0.4880680000000  0.3915770000000 1.0
C      1  0.4809470000000  0.5983310000000  0.5331590000000 1.0
C      1  0.5633660000000  0.5479490000000  0.5052980000000 1.0
C      1  0.4968260000000  0.5398560000000  0.3967330000000 1.0
C      1  0.4389310000000  0.4616480000000  0.5518530000000 1.0
C      1  0.4749870000000  0.4409880000000  0.4979470000000 1.0
C      1  0.5154280000000  0.4641330000000  0.5274460000000 1.0
C      1  0.4587160000000  0.5036040000000  0.5234610000000 1.0
C      1  0.4153150000000  0.4720140000000  0.5664720000000 1.0
C      1  0.4393460000000  0.5238960000000  0.5710990000000 1.0
C      1  0.4883820000000  0.5389080000000  0.4450350000000 1.0
C      1  0.5355600000000  0.5491900000000  0.4519480000000 1.0
C      1  0.4491420000000  0.5023530000000  0.4507630000000 1.0
C      1  0.4970720000000  0.4653400000000  0.5817320000000 1.0
C      1  0.5168770000000  0.4603610000000  0.4229480000000 1.0
C      1  0.4825290000000  0.4368250000000  0.5808200000000 1.0
C      1  0.4277150000000  0.4153990000000  0.4923480000000 1.0
C      1  0.4773120000000  0.5596320000000  0.4072620000000 1.0
C      1  0.4324890000000  0.4993750000000  0.4987790000000 1.0
C      1  0.5193700000000  0.4667390000000  0.4534560000000 1.0
C      1  0.5628230000000  0.5615030000000  0.4405270000000 1.0
C      1  0.5475140000000  0.4217590000000  0.5474580000000 1.0
C      1  0.4644390000000  0.4167340000000  0.4852940000000 1.0
C      1  0.4551970000000  0.5783660000000  0.4557250000000 1.0
C      1  0.5078500000000  0.4175320000000  0.4325280000000 1.0
C      1  0.5096600000000  0.3981440000000  0.4820510000000 1.0
C      1  0.4618140000000  0.5667850000000  0.5681580000000 1.0
C      1  0.4686640000000  0.5336720000000  0.5309320000000 1.0
C      1  0.4807480000000  0.5472620000000  0.4740240000000 1.0
C      1  0.4158590000000  0.5445920000000  0.4428460000000 1.0
C      1  0.4913790000000  0.5739260000000  0.5684020000000 1.0
C      1  0.5654650000000  0.4639240000000  0.4320800000000 1.0
C      1  0.4898850000000  0.5263420000000  0.5791380000000 1.0
C      1  0.4395900000000  0.5160350000000  0.4752970000000 1.0
C      1  0.3926330000000  0.5273380000000  0.5062960000000 1.0
C      1  0.4521720000000  0.5957390000000  0.5300230000000 1.0
C      1  0.4936730000000  0.5743350000000  0.5239650000000 1.0
C      1  0.4932390000000  0.4478720000000  0.5397540000000 1.0
C      1  0.5629640000000  0.4509690000000  0.4774380000000 1.0
C      1  0.5805390000000  0.5144050000000  0.5826960000000 1.0
C      1  0.5301120000000  0.5186120000000  0.4581790000000 1.0
C      1  0.5794280000000  0.5636380000000  0.5264130000000 1.0
C      1  0.5553650000000  0.4999760000000  0.4583170000000 1.0
C      1  0.5734390000000  0.4855310000000  0.5761320000000 1.0
C      1  0.5980750000000  0.5007460000000  0.4462170000000 1.0
C      1  0.5779830000000  0.5314470000000  0.5569750000000 1.0
C      1  0.5588200000000  0.4139770000000  0.4486130000000 1.0
C      1  0.4236590000000  0.5491710000000  0.5324510000000 1.0
C      1  0.4908150000000  0.5109980000000  0.4059840000000 1.0
C      1  0.5145140000000  0.5176880000000  0.4839700000000 1.0
C      1  0.5066030000000  0.5957720000000  0.4871940000000 1.0
C      1  0.4275700000000  0.4319920000000  0.4676490000000 1.0
C      1  0.5025200000000  0.4219230000000  0.4640450000000 1.0
C      1  0.3990930000000  0.4822820000000  0.5246050000000 1.0
C      1  0.4803220000000  0.4895190000000  0.5042450000000 1.0
C      1  0.5568100000000  0.5263690000000  0.5958760000000 1.0
C      1  0.4045360000000  0.5522110000000  0.5094360000000 1.0
C      1  0.4072210000000  0.4922220000000  0.4347730000000 1.0
C      1  0.4218860000000  0.5212680000000  0.5483890000000 1.0
C      1  0.5445220000000  0.5273310000000  0.5222480000000 1.0
C      1  0.5559300000000  0.4206130000000  0.4755300000000 1.0
C      1  0.5070820000000  0.5508570000000  0.5772290000000 1.0
C      1  0.5594980000000  0.5756840000000  0.5451980000000 1.0
C      1  0.5044300000000  0.5442420000000  0.4919440000000 1.0
C      1  0.5922310000000  0.4597410000000  0.4744300000000 1.0
C      1  0.5976620000000  0.5480840000000  0.5424120000000 1.0
C      1  0.5293120000000  0.5410420000000  0.5610640000000 1.0
C      1  0.4991860000000  0.5103870000000  0.4369450000000 1.0
C      1  0.5287500000000  0.4335530000000  0.4179830000000 1.0
C      1  0.4796410000000  0.4001490000000  0.5276280000000 1.0
C      1  0.5318160000000  0.5886260000000  0.5020910000000 1.0
C      1  0.5307370000000  0.4871020000000  0.4026520000000 1.0
C      1  0.4996220000000  0.5080170000000  0.5576700000000 1.0
C      1  0.4519080000000  0.5801270000000  0.5049530000000 1.0
C      1  0.4669750000000  0.4655780000000  0.4865510000000 1.0
C      1  0.4373020000000  0.4697360000000  0.4938370000000 1.0
C      1  0.4403740000000  0.5763810000000  0.5494120000000 1.0
C      1  0.5044860000000  0.4178630000000  0.5697860000000 1.0
C      1  0.4266260000000  0.4562020000000  0.5216340000000 1.0
C      1  0.5931960000000  0.4711640000000  0.4464100000000 1.0
C      1  0.5660390000000  0.5134770000000  0.5370310000000 1.0
C      1  0.5562250000000  0.5520270000000  0.5664580000000 1.0
C      1  0.5350150000000  0.5877270000000  0.5321100000000 1.0
C      1  0.4271470000000  0.5645490000000  0.4601480000000 1.0
END
