TITL C-950533-5798-701 -1.90563547673874e-07 125000 -71.792939429403 0 0 13 (C1) n - 1
REM
REM in /home/bkarasulu/work/CARBON/AIRSS/Generating-Clusters/EDIP-Nigel-Params/with-SteepDescent/Only-C1/SD-CG/HFTN-CG
REM
REM
REM
REM
REM
REM ./C.cell (11c1c37f851c82e70ff6c80c92926a4b)
REM
REM compiler GCC version 9.2.1 20190827 (Red Hat 9.2.1-1)
REM options -cpp -mtune=generic -march=x86-64 -g -O0 -fpre-include=/usr/include/finclude/math-vector-fortran.h
REM seed -1314865617 -450299754 703572513 106994377 2056498934 765556782 -1046773493 -953128560 2001248276 -713419272 -1806537957 -1822382825 -21285165 1133327845 726611505 1141287081 522113357 -426473169 -1847087871 1109342485 1304760979 -2100794282 1972414779 -1744666656 1519817112 -2046867730 466994663 -1149520209 1659924438 -795654942 -642022820 722379773 542085675
REM
CELL 1.54180   50.00000   50.00000   50.00000   90.00000   90.00000   90.00000
LATT -1
SFAC C  
C      1  0.5053390000000  0.4650250000000  0.4867510000000 1.0
C      1  0.4897510000000  0.5072840000000  0.5122380000000 1.0
C      1  0.5455680000000  0.4977300000000  0.4919030000000 1.0
C      1  0.4672460000000  0.4880970000000  0.5082070000000 1.0
C      1  0.4863100000000  0.5351800000000  0.5143320000000 1.0
C      1  0.5396860000000  0.5151340000000  0.5159470000000 1.0
C      1  0.5314130000000  0.5337810000000  0.4956990000000 1.0
C      1  0.4777880000000  0.4644510000000  0.4903240000000 1.0
C      1  0.5074900000000  0.5463850000000  0.5015650000000 1.0
C      1  0.4593030000000  0.4778020000000  0.4715950000000 1.0
C      1  0.5267590000000  0.4755740000000  0.5012030000000 1.0
C      1  0.4481160000000  0.4979020000000  0.4880130000000 1.0
C      1  0.5152310000000  0.4956580000000  0.5222230000000 1.0
END
