TITL C-951346-9544-242 -1.13023681208661e-07 125000 -607.873167412454 0 0 100 (C1) n - 1
REM
REM in /home/bkarasulu/work/CARBON/AIRSS/Generating-Clusters/EDIP-Nigel-Params/with-SteepDescent/Only-C1/SD-CG/HFTN-CG
REM
REM
REM
REM
REM
REM ./C.cell (11c1c37f851c82e70ff6c80c92926a4b)
REM
REM compiler GCC version 9.2.1 20190827 (Red Hat 9.2.1-1)
REM options -cpp -mtune=generic -march=x86-64 -g -O0 -fpre-include=/usr/include/finclude/math-vector-fortran.h
REM seed 686571601 2120215460 86466919 606810029 291528708 -1353761250 -764283004 -165949738 -752495957 -538401003 -2143610052 -1736901065 1268916954 1877703776 -507841833 2126833140 1613826482 -1350367692 1923114301 -1498781406 -108659512 -1055000414 773737139 -2071981558 -1618691525 -1540636898 -434703060 1032805566 -1762991682 -705492833 -1293496856 23250830 1698283580
REM
CELL 1.54180   50.00000   50.00000   50.00000   90.00000   90.00000   90.00000
LATT -1
SFAC C  
C      1  0.4204980000000  0.5624290000000  0.5004290000000 1.0
C      1  0.4767590000000  0.4460210000000  0.4320710000000 1.0
C      1  0.5522920000000  0.5802910000000  0.5338470000000 1.0
C      1  0.5352010000000  0.4712150000000  0.5805000000000 1.0
C      1  0.5220840000000  0.5460610000000  0.5578870000000 1.0
C      1  0.4639010000000  0.5283060000000  0.5766450000000 1.0
C      1  0.4215400000000  0.4917590000000  0.4391750000000 1.0
C      1  0.5246260000000  0.4287330000000  0.5580210000000 1.0
C      1  0.4976510000000  0.5116010000000  0.4205970000000 1.0
C      1  0.5215470000000  0.4928350000000  0.4189020000000 1.0
C      1  0.4310000000000  0.5446380000000  0.5431490000000 1.0
C      1  0.5692310000000  0.4789350000000  0.5029620000000 1.0
C      1  0.5023340000000  0.4200010000000  0.4973280000000 1.0
C      1  0.4412870000000  0.4731280000000  0.5631760000000 1.0
C      1  0.5046480000000  0.5225890000000  0.5972180000000 1.0
C      1  0.5777870000000  0.4700550000000  0.4604730000000 1.0
C      1  0.5778170000000  0.4928910000000  0.4787940000000 1.0
C      1  0.5392950000000  0.4938070000000  0.4424710000000 1.0
C      1  0.4776890000000  0.5546390000000  0.5754140000000 1.0
C      1  0.5322080000000  0.6015150000000  0.4916910000000 1.0
C      1  0.5701260000000  0.4246200000000  0.4685800000000 1.0
C      1  0.5109210000000  0.5670740000000  0.5126610000000 1.0
C      1  0.4950780000000  0.5766590000000  0.4912790000000 1.0
C      1  0.5025360000000  0.5004320000000  0.5072470000000 1.0
C      1  0.5027230000000  0.5336600000000  0.4435160000000 1.0
C      1  0.4904560000000  0.5222500000000  0.5267570000000 1.0
C      1  0.4463870000000  0.5756480000000  0.5061270000000 1.0
C      1  0.5539260000000  0.5203600000000  0.4433460000000 1.0
C      1  0.5310150000000  0.4247050000000  0.4942810000000 1.0
C      1  0.4320580000000  0.4672290000000  0.4279960000000 1.0
C      1  0.4470560000000  0.5028280000000  0.4227540000000 1.0
C      1  0.4939540000000  0.4635950000000  0.4963920000000 1.0
C      1  0.5481110000000  0.4243560000000  0.5168420000000 1.0
C      1  0.5292240000000  0.5168230000000  0.5568550000000 1.0
C      1  0.5996060000000  0.5103230000000  0.4793880000000 1.0
C      1  0.4850890000000  0.5603170000000  0.4386890000000 1.0
C      1  0.4984320000000  0.4438660000000  0.4529950000000 1.0
C      1  0.5058330000000  0.5479280000000  0.5836940000000 1.0
C      1  0.4784500000000  0.4918780000000  0.4611280000000 1.0
C      1  0.4858670000000  0.5084400000000  0.5794080000000 1.0
C      1  0.5499890000000  0.4926170000000  0.5204720000000 1.0
C      1  0.4877370000000  0.4193900000000  0.5231930000000 1.0
C      1  0.5465510000000  0.5629880000000  0.5555290000000 1.0
C      1  0.4998920000000  0.4711050000000  0.4681360000000 1.0
C      1  0.5213060000000  0.4844930000000  0.5250610000000 1.0
C      1  0.4610570000000  0.5207220000000  0.5211560000000 1.0
C      1  0.5151610000000  0.5113390000000  0.4835020000000 1.0
C      1  0.5718230000000  0.5467610000000  0.5323780000000 1.0
C      1  0.5611030000000  0.5549000000000  0.4799380000000 1.0
C      1  0.5582540000000  0.4780010000000  0.5660450000000 1.0
C      1  0.5009750000000  0.5513010000000  0.5351810000000 1.0
C      1  0.4151760000000  0.5414920000000  0.5190670000000 1.0
C      1  0.5016750000000  0.4392360000000  0.5399560000000 1.0
C      1  0.4522200000000  0.5627320000000  0.5333070000000 1.0
C      1  0.4593570000000  0.4275320000000  0.4793580000000 1.0
C      1  0.4203780000000  0.4778500000000  0.5181580000000 1.0
C      1  0.4779130000000  0.5660410000000  0.5479630000000 1.0
C      1  0.4677790000000  0.5654820000000  0.4852850000000 1.0
C      1  0.4153720000000  0.4910040000000  0.4666570000000 1.0
C      1  0.4647810000000  0.4521850000000  0.4966830000000 1.0
C      1  0.5657230000000  0.4544530000000  0.5526330000000 1.0
C      1  0.4886720000000  0.4524920000000  0.5741600000000 1.0
C      1  0.4613070000000  0.5643210000000  0.4558870000000 1.0
C      1  0.4487520000000  0.5331650000000  0.4233930000000 1.0
C      1  0.5425290000000  0.5431560000000  0.4607790000000 1.0
C      1  0.5509180000000  0.4317760000000  0.5441560000000 1.0
C      1  0.5762160000000  0.5228060000000  0.5481160000000 1.0
C      1  0.5318920000000  0.5855940000000  0.5148730000000 1.0
C      1  0.4609920000000  0.4472530000000  0.5264910000000 1.0
C      1  0.4252800000000  0.4779840000000  0.4890150000000 1.0
C      1  0.5937410000000  0.5357780000000  0.4879080000000 1.0
C      1  0.4855260000000  0.4672000000000  0.4161420000000 1.0
C      1  0.5095120000000  0.5961430000000  0.4769480000000 1.0
C      1  0.4560290000000  0.4918820000000  0.5181870000000 1.0
C      1  0.4405590000000  0.5225340000000  0.5602270000000 1.0
C      1  0.5550520000000  0.5028110000000  0.5485400000000 1.0
C      1  0.4406880000000  0.5473640000000  0.4462240000000 1.0
C      1  0.4757050000000  0.4922770000000  0.4300760000000 1.0
C      1  0.5425890000000  0.5446280000000  0.4318390000000 1.0
C      1  0.5021060000000  0.5048440000000  0.5515850000000 1.0
C      1  0.5176500000000  0.4489430000000  0.5798090000000 1.0
C      1  0.5771760000000  0.4488530000000  0.4802300000000 1.0
C      1  0.4338230000000  0.4592460000000  0.5373760000000 1.0
C      1  0.5421280000000  0.4254010000000  0.4670450000000 1.0
C      1  0.4922610000000  0.5185270000000  0.4674020000000 1.0
C      1  0.4277830000000  0.4979470000000  0.5651090000000 1.0
C      1  0.4724200000000  0.4754420000000  0.5647770000000 1.0
C      1  0.5247380000000  0.4880830000000  0.4680900000000 1.0
C      1  0.4755940000000  0.4739780000000  0.5349770000000 1.0
C      1  0.4500970000000  0.4502300000000  0.4423240000000 1.0
C      1  0.4471630000000  0.5352880000000  0.4988880000000 1.0
C      1  0.5135380000000  0.4571280000000  0.5188530000000 1.0
C      1  0.5143440000000  0.4650960000000  0.4161380000000 1.0
C      1  0.4875230000000  0.4224370000000  0.4724380000000 1.0
C      1  0.4540020000000  0.4803410000000  0.4883360000000 1.0
C      1  0.5293540000000  0.4417780000000  0.4437080000000 1.0
C      1  0.5552920000000  0.4690420000000  0.4418240000000 1.0
C      1  0.4407640000000  0.4295350000000  0.4582900000000 1.0
C      1  0.5700710000000  0.5400890000000  0.5032640000000 1.0
C      1  0.4757500000000  0.5425480000000  0.4162370000000 1.0
END
