TITL C-951345-2650-320 1.54735909560154e-06 125000 -861.976825479005 0 0 139 (C1) n - 1
REM
REM in /home/bkarasulu/work/CARBON/AIRSS/Generating-Clusters/EDIP-Nigel-Params/with-SteepDescent/Only-C1/SD-CG/HFTN-CG
REM
REM
REM
REM
REM
REM ./C.cell (11c1c37f851c82e70ff6c80c92926a4b)
REM
REM compiler GCC version 9.2.1 20190827 (Red Hat 9.2.1-1)
REM options -cpp -mtune=generic -march=x86-64 -g -O0 -fpre-include=/usr/include/finclude/math-vector-fortran.h
REM seed -700071507 1577641116 -958042010 1638951071 1576248191 1831699621 1591557432 1068152524 -1430791450 1205785694 1585167391 1778310768 383907645 929286680 -165149413 1769877181 1813307482 -1099741679 819415078 -1584930686 2079668328 1651410109 1949687311 915507974 -730892654 -377429743 -230317853 148455542 -1936240085 -1331795569 -143674066 1210594548 1090787034
REM
CELL 1.54180   50.00000   50.00000   50.00000   90.00000   90.00000   90.00000
LATT -1
SFAC C  
C      1  0.4777480000000  0.4279900000000  0.5618580000000 1.0
C      1  0.4078480000000  0.4910750000000  0.4770190000000 1.0
C      1  0.5187660000000  0.5268610000000  0.5689250000000 1.0
C      1  0.4142750000000  0.5118770000000  0.5373700000000 1.0
C      1  0.5847960000000  0.4452520000000  0.4917500000000 1.0
C      1  0.4180550000000  0.4852980000000  0.5236900000000 1.0
C      1  0.5011480000000  0.4639590000000  0.5314870000000 1.0
C      1  0.5351480000000  0.5482450000000  0.5831660000000 1.0
C      1  0.5515720000000  0.5343630000000  0.4162580000000 1.0
C      1  0.4843080000000  0.4513590000000  0.5794800000000 1.0
C      1  0.4164300000000  0.4328460000000  0.5203150000000 1.0
C      1  0.5144980000000  0.4543190000000  0.5790070000000 1.0
C      1  0.4426070000000  0.5275030000000  0.5791280000000 1.0
C      1  0.4618050000000  0.4471400000000  0.4925610000000 1.0
C      1  0.5423200000000  0.4226700000000  0.4691840000000 1.0
C      1  0.5370340000000  0.5187310000000  0.5445040000000 1.0
C      1  0.4506340000000  0.5801350000000  0.5440130000000 1.0
C      1  0.5662580000000  0.5640800000000  0.5416980000000 1.0
C      1  0.5671330000000  0.4509380000000  0.5689060000000 1.0
C      1  0.4878990000000  0.5345530000000  0.4970540000000 1.0
C      1  0.4899540000000  0.5717460000000  0.5762520000000 1.0
C      1  0.5264830000000  0.5869350000000  0.4789210000000 1.0
C      1  0.4155920000000  0.5619850000000  0.5347660000000 1.0
C      1  0.4948080000000  0.4717540000000  0.4703590000000 1.0
C      1  0.5593250000000  0.5259920000000  0.4752000000000 1.0
C      1  0.5036620000000  0.4153460000000  0.5523780000000 1.0
C      1  0.4124500000000  0.5335400000000  0.4547660000000 1.0
C      1  0.5413520000000  0.4931950000000  0.4888000000000 1.0
C      1  0.4085930000000  0.4451070000000  0.4960950000000 1.0
C      1  0.5563560000000  0.4329420000000  0.4945140000000 1.0
C      1  0.4732040000000  0.4674810000000  0.4130260000000 1.0
C      1  0.5276970000000  0.3985550000000  0.5061350000000 1.0
C      1  0.5523690000000  0.5883920000000  0.4622410000000 1.0
C      1  0.4178720000000  0.5137040000000  0.4337660000000 1.0
C      1  0.4399590000000  0.5216060000000  0.4177500000000 1.0
C      1  0.5294400000000  0.5082980000000  0.4485960000000 1.0
C      1  0.5117540000000  0.5031040000000  0.4031880000000 1.0
C      1  0.4119300000000  0.4858490000000  0.4402000000000 1.0
C      1  0.4528200000000  0.4540630000000  0.4287470000000 1.0
C      1  0.4283840000000  0.4435260000000  0.4748260000000 1.0
C      1  0.5230080000000  0.5196700000000  0.5198510000000 1.0
C      1  0.5996600000000  0.4910650000000  0.4778530000000 1.0
C      1  0.4236420000000  0.4672530000000  0.5480260000000 1.0
C      1  0.5058000000000  0.5262050000000  0.4542470000000 1.0
C      1  0.4917710000000  0.5795990000000  0.5301080000000 1.0
C      1  0.5671660000000  0.5120130000000  0.5415760000000 1.0
C      1  0.4245670000000  0.5816570000000  0.5151420000000 1.0
C      1  0.4832900000000  0.5005410000000  0.5860370000000 1.0
C      1  0.5526380000000  0.4270370000000  0.5603370000000 1.0
C      1  0.4895400000000  0.4909470000000  0.4919670000000 1.0
C      1  0.4770360000000  0.5389610000000  0.5403350000000 1.0
C      1  0.5116390000000  0.5027480000000  0.5839560000000 1.0
C      1  0.5358970000000  0.5369970000000  0.4937120000000 1.0
C      1  0.5763230000000  0.5880710000000  0.4785030000000 1.0
C      1  0.5718140000000  0.5640750000000  0.4934110000000 1.0
C      1  0.5684300000000  0.4851850000000  0.5000960000000 1.0
C      1  0.4552280000000  0.3993580000000  0.4747330000000 1.0
C      1  0.5611760000000  0.4973570000000  0.5853470000000 1.0
C      1  0.4605630000000  0.4395660000000  0.5397760000000 1.0
C      1  0.4001090000000  0.4736890000000  0.5003640000000 1.0
C      1  0.4922490000000  0.6046420000000  0.5009430000000 1.0
C      1  0.4664730000000  0.5893770000000  0.5042130000000 1.0
C      1  0.4619690000000  0.5452910000000  0.4938090000000 1.0
C      1  0.5069320000000  0.4148220000000  0.5214380000000 1.0
C      1  0.5363980000000  0.4395900000000  0.4464630000000 1.0
C      1  0.4270480000000  0.4648420000000  0.4298870000000 1.0
C      1  0.5607130000000  0.4099790000000  0.5397780000000 1.0
C      1  0.5424520000000  0.5664230000000  0.4995440000000 1.0
C      1  0.5201660000000  0.4734360000000  0.4019830000000 1.0
C      1  0.5738170000000  0.5176200000000  0.5702300000000 1.0
C      1  0.4877750000000  0.5420590000000  0.5675430000000 1.0
C      1  0.4981950000000  0.5365290000000  0.5225750000000 1.0
C      1  0.4659360000000  0.5714400000000  0.4803830000000 1.0
C      1  0.5360190000000  0.4848710000000  0.4623510000000 1.0
C      1  0.5633870000000  0.5459720000000  0.5731560000000 1.0
C      1  0.5489620000000  0.5612930000000  0.4508230000000 1.0
C      1  0.5820190000000  0.5123740000000  0.4923740000000 1.0
C      1  0.4520730000000  0.5255420000000  0.4711670000000 1.0
C      1  0.4424620000000  0.4932560000000  0.5083960000000 1.0
C      1  0.5099770000000  0.5365890000000  0.4798840000000 1.0
C      1  0.4722750000000  0.4677820000000  0.5357420000000 1.0
C      1  0.4793390000000  0.6122040000000  0.4752550000000 1.0
C      1  0.4901230000000  0.4452130000000  0.4808660000000 1.0
C      1  0.5695300000000  0.4826860000000  0.5305780000000 1.0
C      1  0.4770210000000  0.5887730000000  0.5548750000000 1.0
C      1  0.5939080000000  0.4667700000000  0.5371420000000 1.0
C      1  0.4789170000000  0.5115830000000  0.4600730000000 1.0
C      1  0.5567070000000  0.4538190000000  0.4313490000000 1.0
C      1  0.5916170000000  0.4637850000000  0.4697340000000 1.0
C      1  0.5225500000000  0.4776470000000  0.5494210000000 1.0
C      1  0.5378480000000  0.4531420000000  0.5077950000000 1.0
C      1  0.5988200000000  0.4501940000000  0.5154380000000 1.0
C      1  0.4850740000000  0.5044440000000  0.4171810000000 1.0
C      1  0.5481230000000  0.4728400000000  0.4115620000000 1.0
C      1  0.5840950000000  0.5553880000000  0.5196570000000 1.0
C      1  0.4383610000000  0.4814280000000  0.5690780000000 1.0
C      1  0.5373110000000  0.5083930000000  0.4206260000000 1.0
C      1  0.4830220000000  0.3976650000000  0.4820500000000 1.0
C      1  0.5488530000000  0.4726670000000  0.5774010000000 1.0
C      1  0.4352000000000  0.5509490000000  0.4501940000000 1.0
C      1  0.5454610000000  0.4665430000000  0.5334220000000 1.0
C      1  0.4290500000000  0.5087470000000  0.5636390000000 1.0
C      1  0.4421690000000  0.4209450000000  0.4623290000000 1.0
C      1  0.5245630000000  0.4287520000000  0.5678220000000 1.0
C      1  0.5201160000000  0.5722300000000  0.5718440000000 1.0
C      1  0.5183440000000  0.5708760000000  0.5422250000000 1.0
C      1  0.5208040000000  0.4047430000000  0.4776330000000 1.0
C      1  0.5095190000000  0.4434260000000  0.5098610000000 1.0
C      1  0.5049870000000  0.5531900000000  0.4390530000000 1.0
C      1  0.4899280000000  0.4256810000000  0.4560360000000 1.0
C      1  0.5940610000000  0.4551770000000  0.5623850000000 1.0
C      1  0.4673630000000  0.5286490000000  0.4163090000000 1.0
C      1  0.5806670000000  0.4587200000000  0.4444390000000 1.0
C      1  0.5097860000000  0.4367340000000  0.4358130000000 1.0
C      1  0.4689520000000  0.5815630000000  0.4311860000000 1.0
C      1  0.4384670000000  0.5735020000000  0.4678940000000 1.0
C      1  0.4541580000000  0.5534310000000  0.5269140000000 1.0
C      1  0.5552750000000  0.4079880000000  0.5123340000000 1.0
C      1  0.5168330000000  0.4917930000000  0.5086620000000 1.0
C      1  0.4187920000000  0.5687920000000  0.4894960000000 1.0
C      1  0.4617410000000  0.4305140000000  0.4436980000000 1.0
C      1  0.4846700000000  0.5973380000000  0.4500370000000 1.0
C      1  0.4816020000000  0.4056530000000  0.5101620000000 1.0
C      1  0.4310570000000  0.4399650000000  0.5432650000000 1.0
C      1  0.5425000000000  0.5737510000000  0.5282350000000 1.0
C      1  0.4793240000000  0.5554600000000  0.4239410000000 1.0
C      1  0.4117280000000  0.5402840000000  0.4920520000000 1.0
C      1  0.4139020000000  0.5367130000000  0.5214190000000 1.0
C      1  0.4614460000000  0.4260990000000  0.5137810000000 1.0
C      1  0.5008970000000  0.4589410000000  0.4186480000000 1.0
C      1  0.4699480000000  0.5265720000000  0.5854730000000 1.0
C      1  0.5851290000000  0.5259830000000  0.5203150000000 1.0
C      1  0.4343050000000  0.5032560000000  0.4828260000000 1.0
C      1  0.4688610000000  0.4772960000000  0.5736860000000 1.0
C      1  0.5321450000000  0.5581360000000  0.4258240000000 1.0
C      1  0.4788750000000  0.4830510000000  0.4487280000000 1.0
C      1  0.5688550000000  0.5402540000000  0.4422640000000 1.0
C      1  0.4656530000000  0.4757080000000  0.5070690000000 1.0
C      1  0.5007640000000  0.5759120000000  0.4630540000000 1.0
END
