TITL C-951337-3020-284 -9.46802503898681e-07 125000 -896.292985496559 0 0 143 (C1) n - 1
REM
REM in /home/bkarasulu/work/CARBON/AIRSS/Generating-Clusters/EDIP-Nigel-Params/with-SteepDescent/Only-C1/SD-CG/HFTN-CG
REM
REM
REM
REM
REM
REM ./C.cell (11c1c37f851c82e70ff6c80c92926a4b)
REM
REM compiler GCC version 9.2.1 20190827 (Red Hat 9.2.1-1)
REM options -cpp -mtune=generic -march=x86-64 -g -O0 -fpre-include=/usr/include/finclude/math-vector-fortran.h
REM seed 1901500594 1149996962 -144199190 2126265921 1858219138 -665265278 -1443846654 164591053 1598211047 -605294658 1144755990 2079056808 -1025936322 -817989790 2048590318 324319522 137833641 -1527911040 -629219706 -1971019529 1836479170 308085590 -761312718 1507389 843970742 -447107785 -1964833146 -2042584974 904885822 1299228258 520832808 -1839146505 257754485
REM
CELL 1.54180   50.00000   50.00000   50.00000   90.00000   90.00000   90.00000
LATT -1
SFAC C  
C      1  0.5774920000000  0.4954010000000  0.5210200000000 1.0
C      1  0.4704770000000  0.4447010000000  0.4204650000000 1.0
C      1  0.4154860000000  0.4372220000000  0.5280990000000 1.0
C      1  0.4595450000000  0.4648500000000  0.5170340000000 1.0
C      1  0.4912960000000  0.4229920000000  0.4234870000000 1.0
C      1  0.5757890000000  0.4491690000000  0.5372990000000 1.0
C      1  0.5545780000000  0.5135660000000  0.5719340000000 1.0
C      1  0.4908090000000  0.5965870000000  0.4561070000000 1.0
C      1  0.5784260000000  0.4735650000000  0.4212150000000 1.0
C      1  0.4878660000000  0.4629740000000  0.4735230000000 1.0
C      1  0.4911120000000  0.4665060000000  0.4155910000000 1.0
C      1  0.4853790000000  0.4525410000000  0.5028760000000 1.0
C      1  0.4438670000000  0.5028370000000  0.4021780000000 1.0
C      1  0.5598170000000  0.4243460000000  0.5401460000000 1.0
C      1  0.5334730000000  0.5770180000000  0.5498720000000 1.0
C      1  0.5884760000000  0.4677750000000  0.4474530000000 1.0
C      1  0.4196320000000  0.5472750000000  0.4940150000000 1.0
C      1  0.5105660000000  0.4212250000000  0.4718120000000 1.0
C      1  0.5062480000000  0.5898980000000  0.5046560000000 1.0
C      1  0.5548980000000  0.4945170000000  0.4433930000000 1.0
C      1  0.4971020000000  0.4863720000000  0.5930200000000 1.0
C      1  0.3956520000000  0.5025050000000  0.4987030000000 1.0
C      1  0.4635740000000  0.4710850000000  0.4604810000000 1.0
C      1  0.5804370000000  0.4592190000000  0.5081140000000 1.0
C      1  0.4484220000000  0.4513570000000  0.4449390000000 1.0
C      1  0.5010720000000  0.4769580000000  0.5639640000000 1.0
C      1  0.5252240000000  0.5133320000000  0.4067590000000 1.0
C      1  0.4844620000000  0.4951990000000  0.4226000000000 1.0
C      1  0.4099920000000  0.5043320000000  0.5593460000000 1.0
C      1  0.4987550000000  0.4971590000000  0.5166950000000 1.0
C      1  0.5477690000000  0.4210420000000  0.5654810000000 1.0
C      1  0.5766740000000  0.5394720000000  0.4574680000000 1.0
C      1  0.5532720000000  0.5552620000000  0.5440330000000 1.0
C      1  0.5352200000000  0.5895450000000  0.4625440000000 1.0
C      1  0.4007390000000  0.4793010000000  0.5461460000000 1.0
C      1  0.4705550000000  0.5153750000000  0.4687390000000 1.0
C      1  0.4873900000000  0.5567820000000  0.4752050000000 1.0
C      1  0.4190820000000  0.5241380000000  0.5369540000000 1.0
C      1  0.4459590000000  0.5646870000000  0.5549800000000 1.0
C      1  0.4843510000000  0.4212760000000  0.5630990000000 1.0
C      1  0.5147070000000  0.4700690000000  0.6092880000000 1.0
C      1  0.5130600000000  0.4871480000000  0.4743730000000 1.0
C      1  0.5228810000000  0.5606080000000  0.4229180000000 1.0
C      1  0.5919050000000  0.5320770000000  0.5480650000000 1.0
C      1  0.5181740000000  0.4459490000000  0.5953040000000 1.0
C      1  0.4751480000000  0.4999570000000  0.4947180000000 1.0
C      1  0.4314300000000  0.5283940000000  0.4415960000000 1.0
C      1  0.4652830000000  0.4958010000000  0.4459220000000 1.0
C      1  0.4982430000000  0.5612980000000  0.5018460000000 1.0
C      1  0.4955240000000  0.4204580000000  0.4979420000000 1.0
C      1  0.5783930000000  0.5713910000000  0.5215590000000 1.0
C      1  0.4388030000000  0.5699470000000  0.4914890000000 1.0
C      1  0.5402940000000  0.5366010000000  0.4175640000000 1.0
C      1  0.4614670000000  0.6132050000000  0.5008960000000 1.0
C      1  0.4788730000000  0.5831490000000  0.4340210000000 1.0
C      1  0.4945440000000  0.4330560000000  0.5868870000000 1.0
C      1  0.6040240000000  0.5359850000000  0.4980760000000 1.0
C      1  0.5595620000000  0.4689760000000  0.5532070000000 1.0
C      1  0.4364340000000  0.4970860000000  0.5752110000000 1.0
C      1  0.3961050000000  0.4961960000000  0.4711370000000 1.0
C      1  0.5112760000000  0.5989170000000  0.4754100000000 1.0
C      1  0.4257570000000  0.4726140000000  0.4375160000000 1.0
C      1  0.4373920000000  0.4330450000000  0.4720830000000 1.0
C      1  0.4616200000000  0.4707100000000  0.5454910000000 1.0
C      1  0.4828120000000  0.6043880000000  0.5160290000000 1.0
C      1  0.5344310000000  0.5828820000000  0.4354160000000 1.0
C      1  0.5000560000000  0.4322490000000  0.5407800000000 1.0
C      1  0.4470230000000  0.4635580000000  0.5904810000000 1.0
C      1  0.5552800000000  0.5798630000000  0.5064540000000 1.0
C      1  0.5094830000000  0.5076640000000  0.4308480000000 1.0
C      1  0.4080620000000  0.4726870000000  0.4608200000000 1.0
C      1  0.5161320000000  0.5165260000000  0.4843770000000 1.0
C      1  0.4448860000000  0.5495580000000  0.4246880000000 1.0
C      1  0.4474340000000  0.5909340000000  0.5093630000000 1.0
C      1  0.5923150000000  0.5024280000000  0.5465630000000 1.0
C      1  0.5171380000000  0.4236450000000  0.4102040000000 1.0
C      1  0.4531590000000  0.5084760000000  0.6002900000000 1.0
C      1  0.5390600000000  0.4185240000000  0.4680850000000 1.0
C      1  0.4453370000000  0.5121280000000  0.5290490000000 1.0
C      1  0.5758120000000  0.5670150000000  0.4626800000000 1.0
C      1  0.5132680000000  0.5692670000000  0.5706880000000 1.0
C      1  0.5567510000000  0.5193980000000  0.5111220000000 1.0
C      1  0.5282080000000  0.4710040000000  0.4941380000000 1.0
C      1  0.4567550000000  0.5608960000000  0.4692580000000 1.0
C      1  0.5244490000000  0.4871620000000  0.4460300000000 1.0
C      1  0.5342650000000  0.5096430000000  0.5484390000000 1.0
C      1  0.4507030000000  0.4923190000000  0.5073390000000 1.0
C      1  0.4044790000000  0.4534320000000  0.5061910000000 1.0
C      1  0.5530830000000  0.4665720000000  0.4090570000000 1.0
C      1  0.4154980000000  0.4515100000000  0.4792920000000 1.0
C      1  0.5033860000000  0.5007200000000  0.5483890000000 1.0
C      1  0.5564370000000  0.4722170000000  0.4908370000000 1.0
C      1  0.5374560000000  0.4471450000000  0.5716270000000 1.0
C      1  0.4508210000000  0.4204100000000  0.4961390000000 1.0
C      1  0.4893980000000  0.5428780000000  0.5458140000000 1.0
C      1  0.4448430000000  0.5329140000000  0.4681800000000 1.0
C      1  0.4671150000000  0.4820920000000  0.6024700000000 1.0
C      1  0.5556590000000  0.4176320000000  0.4920150000000 1.0
C      1  0.4049160000000  0.5280800000000  0.5104900000000 1.0
C      1  0.5591740000000  0.5247190000000  0.4378120000000 1.0
C      1  0.5774150000000  0.4427430000000  0.4576270000000 1.0
C      1  0.4982920000000  0.4412260000000  0.4544140000000 1.0
C      1  0.4558970000000  0.4990640000000  0.5519920000000 1.0
C      1  0.5797160000000  0.4348650000000  0.4868270000000 1.0
C      1  0.4795360000000  0.5166780000000  0.5587290000000 1.0
C      1  0.5579340000000  0.5822620000000  0.4776780000000 1.0
C      1  0.4883160000000  0.5829890000000  0.5695350000000 1.0
C      1  0.5319020000000  0.5898410000000  0.5218350000000 1.0
C      1  0.4732710000000  0.5674030000000  0.5517900000000 1.0
C      1  0.5632050000000  0.4950070000000  0.4727170000000 1.0
C      1  0.4930520000000  0.5605590000000  0.4205670000000 1.0
C      1  0.4519680000000  0.5731810000000  0.4418750000000 1.0
C      1  0.4704020000000  0.5126420000000  0.4026310000000 1.0
C      1  0.5025150000000  0.5192400000000  0.5958700000000 1.0
C      1  0.5130630000000  0.5398100000000  0.5761030000000 1.0
C      1  0.5462960000000  0.4866020000000  0.5310100000000 1.0
C      1  0.5685530000000  0.5397280000000  0.5657570000000 1.0
C      1  0.5745940000000  0.4911780000000  0.5679380000000 1.0
C      1  0.5929310000000  0.4964990000000  0.4717380000000 1.0
C      1  0.5136750000000  0.4144150000000  0.5214630000000 1.0
C      1  0.5399200000000  0.4899020000000  0.4006100000000 1.0
C      1  0.5905820000000  0.5451380000000  0.5212400000000 1.0
C      1  0.4416150000000  0.4248200000000  0.5238980000000 1.0
C      1  0.4384920000000  0.5004330000000  0.4310700000000 1.0
C      1  0.5065340000000  0.5373510000000  0.5191980000000 1.0
C      1  0.4248780000000  0.5495400000000  0.5487400000000 1.0
C      1  0.5970830000000  0.5250750000000  0.4729540000000 1.0
C      1  0.4711710000000  0.5405770000000  0.4136530000000 1.0
C      1  0.4726650000000  0.4031410000000  0.4944330000000 1.0
C      1  0.5091630000000  0.4679450000000  0.5160140000000 1.0
C      1  0.3960610000000  0.4793200000000  0.5167350000000 1.0
C      1  0.5470430000000  0.5191750000000  0.4835480000000 1.0
C      1  0.4962290000000  0.5304070000000  0.4662080000000 1.0
C      1  0.5173260000000  0.4561960000000  0.5494370000000 1.0
C      1  0.5144930000000  0.4605340000000  0.4348930000000 1.0
C      1  0.5521880000000  0.4323430000000  0.4460250000000 1.0
C      1  0.4447410000000  0.4530550000000  0.5627510000000 1.0
C      1  0.5363370000000  0.4438520000000  0.4224860000000 1.0
C      1  0.4552980000000  0.4247550000000  0.5577490000000 1.0
C      1  0.4152390000000  0.4535120000000  0.5529870000000 1.0
C      1  0.5419360000000  0.4221360000000  0.5173720000000 1.0
C      1  0.4744910000000  0.5270950000000  0.5947230000000 1.0
C      1  0.5370660000000  0.5332330000000  0.5297660000000 1.0
END
