TITL C-951346-9544-460 -1.08252196791603e-06 125000 -570.105738034928 0 0 93 (C1) n - 1
REM
REM in /home/bkarasulu/work/CARBON/AIRSS/Generating-Clusters/EDIP-Nigel-Params/with-SteepDescent/Only-C1/SD-CG/HFTN-CG
REM
REM
REM
REM
REM
REM ./C.cell (11c1c37f851c82e70ff6c80c92926a4b)
REM
REM compiler GCC version 9.2.1 20190827 (Red Hat 9.2.1-1)
REM options -cpp -mtune=generic -march=x86-64 -g -O0 -fpre-include=/usr/include/finclude/math-vector-fortran.h
REM seed -279437723 -899966381 -525223315 -1514771289 -1168768038 842495274 1291808521 1972937515 -1571723805 119516038 1231297324 1005425564 -882940623 -921895034 760639595 1627652691 -283312267 1747262981 879865175 -1500204764 1442391652 -617387578 -1058893571 1262689354 -2122132852 1116250995 -636586787 489161132 -1153770659 -869265012 -1265324328 -1198413273 -1130717282
REM
CELL 1.54180   50.00000   50.00000   50.00000   90.00000   90.00000   90.00000
LATT -1
SFAC C  
C      1  0.4873960000000  0.5633870000000  0.5252700000000 1.0
C      1  0.4821540000000  0.4256890000000  0.5530360000000 1.0
C      1  0.5631930000000  0.5348470000000  0.4490040000000 1.0
C      1  0.4972180000000  0.5331120000000  0.5273970000000 1.0
C      1  0.4462240000000  0.4338530000000  0.4937970000000 1.0
C      1  0.5575800000000  0.4646960000000  0.4681700000000 1.0
C      1  0.5274770000000  0.4854050000000  0.5252090000000 1.0
C      1  0.5598740000000  0.4484370000000  0.5158140000000 1.0
C      1  0.5744990000000  0.4611250000000  0.4925040000000 1.0
C      1  0.4710680000000  0.5816120000000  0.4949380000000 1.0
C      1  0.4874880000000  0.4519530000000  0.5657410000000 1.0
C      1  0.5230100000000  0.5034430000000  0.4667530000000 1.0
C      1  0.4551520000000  0.5633970000000  0.5558010000000 1.0
C      1  0.5605420000000  0.4870690000000  0.4498540000000 1.0
C      1  0.4877360000000  0.4366130000000  0.5030720000000 1.0
C      1  0.4798060000000  0.5148310000000  0.4156960000000 1.0
C      1  0.5303430000000  0.5878940000000  0.5279660000000 1.0
C      1  0.5336890000000  0.4408670000000  0.5061280000000 1.0
C      1  0.4536390000000  0.5186450000000  0.4293020000000 1.0
C      1  0.4138020000000  0.4465520000000  0.5211180000000 1.0
C      1  0.5387160000000  0.4438100000000  0.4600800000000 1.0
C      1  0.5446790000000  0.5272020000000  0.4265240000000 1.0
C      1  0.5538540000000  0.4722610000000  0.5348950000000 1.0
C      1  0.4633720000000  0.4340030000000  0.4530350000000 1.0
C      1  0.4373520000000  0.5451230000000  0.4901030000000 1.0
C      1  0.5031170000000  0.5160190000000  0.4352390000000 1.0
C      1  0.5335950000000  0.5013880000000  0.4994190000000 1.0
C      1  0.5187420000000  0.4540920000000  0.4188140000000 1.0
C      1  0.4989050000000  0.5894260000000  0.4887820000000 1.0
C      1  0.5825230000000  0.5107160000000  0.4884580000000 1.0
C      1  0.5185510000000  0.5403010000000  0.4265010000000 1.0
C      1  0.4308810000000  0.5198730000000  0.4765220000000 1.0
C      1  0.5889070000000  0.4850810000000  0.5036580000000 1.0
C      1  0.4963990000000  0.5148360000000  0.5774190000000 1.0
C      1  0.4163500000000  0.5003680000000  0.4913810000000 1.0
C      1  0.5115590000000  0.4222290000000  0.5447820000000 1.0
C      1  0.5198520000000  0.4814650000000  0.4137450000000 1.0
C      1  0.4225330000000  0.4501630000000  0.4949770000000 1.0
C      1  0.4549820000000  0.5376100000000  0.5386810000000 1.0
C      1  0.4557100000000  0.5643640000000  0.4782640000000 1.0
C      1  0.4438490000000  0.4673860000000  0.5506180000000 1.0
C      1  0.4286920000000  0.4761430000000  0.4834520000000 1.0
C      1  0.5050880000000  0.5313540000000  0.4766370000000 1.0
C      1  0.4616730000000  0.4256890000000  0.5299520000000 1.0
C      1  0.4732880000000  0.4828890000000  0.5224150000000 1.0
C      1  0.4486250000000  0.4176860000000  0.4703970000000 1.0
C      1  0.5499440000000  0.5271500000000  0.5537840000000 1.0
C      1  0.5379140000000  0.5774970000000  0.4613870000000 1.0
C      1  0.4924200000000  0.4318190000000  0.4542770000000 1.0
C      1  0.5043600000000  0.4801520000000  0.4604650000000 1.0
C      1  0.5537270000000  0.4491740000000  0.5541000000000 1.0
C      1  0.4818130000000  0.5134470000000  0.4856920000000 1.0
C      1  0.4696890000000  0.4645830000000  0.4964620000000 1.0
C      1  0.5438600000000  0.5781810000000  0.5487730000000 1.0
C      1  0.4393000000000  0.4920420000000  0.5375820000000 1.0
C      1  0.4363230000000  0.5713980000000  0.5343080000000 1.0
C      1  0.5501260000000  0.5469200000000  0.4962460000000 1.0
C      1  0.5100350000000  0.5797070000000  0.4628810000000 1.0
C      1  0.4521210000000  0.4574240000000  0.4436220000000 1.0
C      1  0.5207950000000  0.5460500000000  0.5006570000000 1.0
C      1  0.4501550000000  0.5131050000000  0.5535030000000 1.0
C      1  0.4497370000000  0.5058250000000  0.4565740000000 1.0
C      1  0.5093920000000  0.4427600000000  0.5223780000000 1.0
C      1  0.4974470000000  0.5539840000000  0.4548050000000 1.0
C      1  0.5130850000000  0.4531210000000  0.4473690000000 1.0
C      1  0.5553040000000  0.5565270000000  0.4687910000000 1.0
C      1  0.4782820000000  0.4855540000000  0.4735880000000 1.0
C      1  0.5250030000000  0.4695280000000  0.5811060000000 1.0
C      1  0.4837650000000  0.5707410000000  0.5547550000000 1.0
C      1  0.5781520000000  0.4902940000000  0.5323720000000 1.0
C      1  0.5486400000000  0.5541150000000  0.5592430000000 1.0
C      1  0.4802140000000  0.5114160000000  0.5140360000000 1.0
C      1  0.5009110000000  0.4210550000000  0.4798930000000 1.0
C      1  0.5010710000000  0.4706590000000  0.5348040000000 1.0
C      1  0.4683800000000  0.4720580000000  0.5647540000000 1.0
C      1  0.4674870000000  0.5583520000000  0.4526120000000 1.0
C      1  0.5121070000000  0.5741280000000  0.5106020000000 1.0
C      1  0.5764060000000  0.5097640000000  0.4592580000000 1.0
C      1  0.4269420000000  0.5507390000000  0.5163480000000 1.0
C      1  0.5120750000000  0.5302700000000  0.5545100000000 1.0
C      1  0.5676640000000  0.5183410000000  0.5324940000000 1.0
C      1  0.4731060000000  0.5004690000000  0.5656690000000 1.0
C      1  0.4507070000000  0.5459240000000  0.4338920000000 1.0
C      1  0.4387670000000  0.4782300000000  0.4561400000000 1.0
C      1  0.5424060000000  0.4914130000000  0.5847360000000 1.0
C      1  0.5302010000000  0.4356470000000  0.5634220000000 1.0
C      1  0.5301930000000  0.4262420000000  0.4818580000000 1.0
C      1  0.5005610000000  0.5525970000000  0.5705800000000 1.0
C      1  0.5581460000000  0.5196610000000  0.5037150000000 1.0
C      1  0.5151780000000  0.4961600000000  0.5922260000000 1.0
C      1  0.4931280000000  0.4906700000000  0.4071750000000 1.0
C      1  0.4377520000000  0.4430200000000  0.5361930000000 1.0
C      1  0.5415250000000  0.4971830000000  0.4290430000000 1.0
END
