TITL C-951338-5626-582 -4.3721693467949e-06 125000 -377.337830098026 0 0 62 (C1) n - 1
REM
REM in /home/bkarasulu/work/CARBON/AIRSS/Generating-Clusters/EDIP-Nigel-Params/with-SteepDescent/Only-C1/SD-CG/HFTN-CG
REM
REM
REM
REM
REM
REM ./C.cell (11c1c37f851c82e70ff6c80c92926a4b)
REM
REM compiler GCC version 9.2.1 20190827 (Red Hat 9.2.1-1)
REM options -cpp -mtune=generic -march=x86-64 -g -O0 -fpre-include=/usr/include/finclude/math-vector-fortran.h
REM seed -949473466 2129739183 1361457594 -135910983 529386983 -1571335574 1620411247 961659883 -656281468 -419832862 1242963067 -1916905628 1847957704 -1630257936 1157187539 1906570021 637705195 -2146911090 -1333472063 990395404 956677406 -413444949 1708825285 703551872 -442748249 -1038794193 1359108935 -973196206 -131405155 318476641 1954558150 -147844591 -863336289
REM
CELL 1.54180   50.00000   50.00000   50.00000   90.00000   90.00000   90.00000
LATT -1
SFAC C  
C      1  0.4626660000000  0.5469270000000  0.4838030000000 1.0
C      1  0.4882640000000  0.4476910000000  0.4814340000000 1.0
C      1  0.5181290000000  0.4802060000000  0.4866880000000 1.0
C      1  0.5169420000000  0.4450720000000  0.5481250000000 1.0
C      1  0.5281050000000  0.5081160000000  0.4969600000000 1.0
C      1  0.4924210000000  0.4942200000000  0.4411460000000 1.0
C      1  0.4899850000000  0.5802380000000  0.5044780000000 1.0
C      1  0.4316140000000  0.4973450000000  0.5301100000000 1.0
C      1  0.5013070000000  0.5498950000000  0.5388750000000 1.0
C      1  0.4305520000000  0.4588130000000  0.4947540000000 1.0
C      1  0.4345260000000  0.4678580000000  0.5231950000000 1.0
C      1  0.4870610000000  0.4791440000000  0.4876600000000 1.0
C      1  0.5202140000000  0.4859730000000  0.4427950000000 1.0
C      1  0.5637820000000  0.4869650000000  0.4830110000000 1.0
C      1  0.4586910000000  0.4573190000000  0.5379920000000 1.0
C      1  0.5051380000000  0.5234390000000  0.4838350000000 1.0
C      1  0.4654280000000  0.4312890000000  0.4955320000000 1.0
C      1  0.5407140000000  0.5606070000000  0.4946070000000 1.0
C      1  0.4736280000000  0.4353630000000  0.5242340000000 1.0
C      1  0.4362710000000  0.5066430000000  0.4795750000000 1.0
C      1  0.4922950000000  0.5169360000000  0.4220020000000 1.0
C      1  0.4542840000000  0.5637300000000  0.5293360000000 1.0
C      1  0.5257960000000  0.5325160000000  0.4331320000000 1.0
C      1  0.4998770000000  0.5422050000000  0.4304750000000 1.0
C      1  0.4518960000000  0.5402750000000  0.5115280000000 1.0
C      1  0.4875250000000  0.5640320000000  0.4816090000000 1.0
C      1  0.5428590000000  0.5439540000000  0.5181010000000 1.0
C      1  0.4847120000000  0.5048200000000  0.4693790000000 1.0
C      1  0.4947670000000  0.4473090000000  0.4515740000000 1.0
C      1  0.4383360000000  0.4778600000000  0.4739690000000 1.0
C      1  0.5399260000000  0.4433270000000  0.4915990000000 1.0
C      1  0.4573210000000  0.5040490000000  0.5446740000000 1.0
C      1  0.4980080000000  0.5254910000000  0.5219770000000 1.0
C      1  0.5491390000000  0.4814150000000  0.5554120000000 1.0
C      1  0.4695740000000  0.5197630000000  0.5236730000000 1.0
C      1  0.4981570000000  0.4865050000000  0.5667220000000 1.0
C      1  0.5367090000000  0.5089160000000  0.4459500000000 1.0
C      1  0.5267770000000  0.4740660000000  0.5175690000000 1.0
C      1  0.5185980000000  0.5030140000000  0.5321110000000 1.0
C      1  0.5234770000000  0.4592600000000  0.4539840000000 1.0
C      1  0.5496680000000  0.5531870000000  0.4690070000000 1.0
C      1  0.5219420000000  0.4694590000000  0.5611240000000 1.0
C      1  0.5031190000000  0.4375700000000  0.5249910000000 1.0
C      1  0.5552960000000  0.4599670000000  0.4750350000000 1.0
C      1  0.5585000000000  0.5097870000000  0.4650070000000 1.0
C      1  0.5290550000000  0.5560330000000  0.5400430000000 1.0
C      1  0.5031830000000  0.5138440000000  0.5718250000000 1.0
C      1  0.5127540000000  0.4375410000000  0.4974630000000 1.0
C      1  0.5662870000000  0.4930210000000  0.5122890000000 1.0
C      1  0.4285070000000  0.5180540000000  0.5070660000000 1.0
C      1  0.5126210000000  0.5496450000000  0.4709330000000 1.0
C      1  0.4378580000000  0.4322020000000  0.4899140000000 1.0
C      1  0.5615720000000  0.4706630000000  0.5306430000000 1.0
C      1  0.5492160000000  0.5108890000000  0.5526200000000 1.0
C      1  0.4816570000000  0.5715200000000  0.5297310000000 1.0
C      1  0.4591870000000  0.5216940000000  0.4682500000000 1.0
C      1  0.4765760000000  0.4678670000000  0.4382560000000 1.0
C      1  0.5704630000000  0.5346870000000  0.4686930000000 1.0
C      1  0.4510160000000  0.4690410000000  0.4503140000000 1.0
C      1  0.4733270000000  0.4802820000000  0.5510260000000 1.0
C      1  0.5040920000000  0.5410180000000  0.5660950000000 1.0
C      1  0.5586350000000  0.5194610000000  0.5260870000000 1.0
END
