TITL C-950530-3293-39 -5.44982202862465e-07 125000 -1266.44070065439 0 0 200 (C1) n - 1
REM
REM in /home/bkarasulu/work/CARBON/AIRSS/Generating-Clusters/EDIP-Nigel-Params/with-SteepDescent/Only-C1/SD-CG/HFTN-CG
REM
REM
REM
REM
REM
REM ./C.cell (11c1c37f851c82e70ff6c80c92926a4b)
REM
REM compiler GCC version 9.2.1 20190827 (Red Hat 9.2.1-1)
REM options -cpp -mtune=generic -march=x86-64 -g -O0 -fpre-include=/usr/include/finclude/math-vector-fortran.h
REM seed 1327933780 687831350 622979455 -1038773653 -1254673712 1501722770 -2103594024 270743436 795821848 -1722540404 -1704501718 -261888276 2117386008 -163618715 -971823076 -503538299 1615075462 1876511408 -1183127283 524194519 -1103702635 -1694610480 1247896405 -1023123528 1717502721 1342536585 1962544854 1881915816 1495775238 1680207314 59191308 -1427688056 -608537758
REM
CELL 1.54180   50.00000   50.00000   50.00000   90.00000   90.00000   90.00000
LATT -1
SFAC C  
C      1  0.4597550000000  0.5494810000000  0.4581320000000 1.0
C      1  0.4918860000000  0.5876470000000  0.4362380000000 1.0
C      1  0.5519670000000  0.5832160000000  0.5480890000000 1.0
C      1  0.4318710000000  0.5765760000000  0.4562040000000 1.0
C      1  0.5241960000000  0.5151610000000  0.3988540000000 1.0
C      1  0.5728260000000  0.5705860000000  0.4436500000000 1.0
C      1  0.6164180000000  0.5214430000000  0.5021210000000 1.0
C      1  0.5451200000000  0.4915060000000  0.5031550000000 1.0
C      1  0.5886170000000  0.5547290000000  0.5129080000000 1.0
C      1  0.4709720000000  0.4572790000000  0.6027270000000 1.0
C      1  0.4092190000000  0.4666280000000  0.4531150000000 1.0
C      1  0.5432100000000  0.6103070000000  0.5042880000000 1.0
C      1  0.5515380000000  0.4343230000000  0.4538400000000 1.0
C      1  0.4559680000000  0.4508060000000  0.4686500000000 1.0
C      1  0.5195210000000  0.4726430000000  0.4499400000000 1.0
C      1  0.5509530000000  0.4410760000000  0.5171540000000 1.0
C      1  0.5309980000000  0.4152920000000  0.4710140000000 1.0
C      1  0.5136080000000  0.6049320000000  0.5080300000000 1.0
C      1  0.4123120000000  0.4153490000000  0.4544530000000 1.0
C      1  0.5914740000000  0.5522730000000  0.5432390000000 1.0
C      1  0.4969200000000  0.5079980000000  0.5220250000000 1.0
C      1  0.4865840000000  0.3924650000000  0.4589120000000 1.0
C      1  0.4989090000000  0.5357980000000  0.5093350000000 1.0
C      1  0.4846510000000  0.4939930000000  0.4120990000000 1.0
C      1  0.4668300000000  0.5065180000000  0.4784620000000 1.0
C      1  0.5345400000000  0.5003890000000  0.6099480000000 1.0
C      1  0.5465000000000  0.5390460000000  0.5375800000000 1.0
C      1  0.4710760000000  0.5399200000000  0.5907370000000 1.0
C      1  0.6057440000000  0.4768920000000  0.5551970000000 1.0
C      1  0.5313060000000  0.5660420000000  0.4102980000000 1.0
C      1  0.5093120000000  0.4956580000000  0.4707580000000 1.0
C      1  0.3991070000000  0.5496540000000  0.4823500000000 1.0
C      1  0.4646270000000  0.6001030000000  0.5161260000000 1.0
C      1  0.5075750000000  0.4828110000000  0.5628550000000 1.0
C      1  0.4614360000000  0.4845000000000  0.4316500000000 1.0
C      1  0.5637760000000  0.5568570000000  0.5553640000000 1.0
C      1  0.4426070000000  0.5317390000000  0.5904640000000 1.0
C      1  0.5154630000000  0.3986100000000  0.4500130000000 1.0
C      1  0.5424820000000  0.5405880000000  0.3979820000000 1.0
C      1  0.5024860000000  0.5670510000000  0.4167870000000 1.0
C      1  0.5187060000000  0.4871450000000  0.5189440000000 1.0
C      1  0.5079050000000  0.5995040000000  0.4584430000000 1.0
C      1  0.4341870000000  0.5259490000000  0.3891340000000 1.0
C      1  0.4136740000000  0.5683930000000  0.5009650000000 1.0
C      1  0.6127170000000  0.5068630000000  0.4362560000000 1.0
C      1  0.5809810000000  0.4587640000000  0.5951560000000 1.0
C      1  0.4778400000000  0.5017310000000  0.6174200000000 1.0
C      1  0.5807890000000  0.5204430000000  0.4683100000000 1.0
C      1  0.5930580000000  0.4680800000000  0.4567090000000 1.0
C      1  0.4813430000000  0.4463470000000  0.3987770000000 1.0
C      1  0.4307370000000  0.5207650000000  0.5280000000000 1.0
C      1  0.4017960000000  0.5366020000000  0.5678590000000 1.0
C      1  0.5571550000000  0.6083210000000  0.4752190000000 1.0
C      1  0.5707380000000  0.5053410000000  0.5119220000000 1.0
C      1  0.5933810000000  0.4338680000000  0.4870290000000 1.0
C      1  0.5310030000000  0.4493400000000  0.6049050000000 1.0
C      1  0.4351950000000  0.5311520000000  0.4181110000000 1.0
C      1  0.6126930000000  0.5483560000000  0.4975700000000 1.0
C      1  0.4440390000000  0.4980810000000  0.3868070000000 1.0
C      1  0.4628050000000  0.5911830000000  0.4386620000000 1.0
C      1  0.4654720000000  0.4954130000000  0.5809390000000 1.0
C      1  0.4286820000000  0.5032060000000  0.5892950000000 1.0
C      1  0.6046470000000  0.5262410000000  0.5484290000000 1.0
C      1  0.3957950000000  0.4531180000000  0.5111320000000 1.0
C      1  0.4954320000000  0.4450040000000  0.5165400000000 1.0
C      1  0.5757750000000  0.5249490000000  0.5926040000000 1.0
C      1  0.4070350000000  0.4128330000000  0.4818350000000 1.0
C      1  0.5033460000000  0.5173110000000  0.4215970000000 1.0
C      1  0.4111880000000  0.4844830000000  0.4276710000000 1.0
C      1  0.4522720000000  0.5437310000000  0.3755890000000 1.0
C      1  0.5235710000000  0.5857710000000  0.5562170000000 1.0
C      1  0.6226070000000  0.5172310000000  0.5288550000000 1.0
C      1  0.5152870000000  0.5126310000000  0.5655640000000 1.0
C      1  0.5611480000000  0.4953620000000  0.5626730000000 1.0
C      1  0.5337040000000  0.5891600000000  0.4722670000000 1.0
C      1  0.5396080000000  0.5384070000000  0.4928800000000 1.0
C      1  0.5622150000000  0.5342600000000  0.5123420000000 1.0
C      1  0.4947110000000  0.3826190000000  0.5223810000000 1.0
C      1  0.4041700000000  0.5072510000000  0.5705620000000 1.0
C      1  0.5580510000000  0.4147630000000  0.5058340000000 1.0
C      1  0.4904630000000  0.3943420000000  0.4970700000000 1.0
C      1  0.5179310000000  0.5513190000000  0.5292680000000 1.0
C      1  0.5352600000000  0.5097560000000  0.4814280000000 1.0
C      1  0.4996880000000  0.4476710000000  0.4487200000000 1.0
C      1  0.5842070000000  0.4096390000000  0.4976030000000 1.0
C      1  0.4774180000000  0.5339890000000  0.3840290000000 1.0
C      1  0.4515130000000  0.5766030000000  0.4175070000000 1.0
C      1  0.4062410000000  0.5003040000000  0.4871040000000 1.0
C      1  0.4540210000000  0.4801820000000  0.5157260000000 1.0
C      1  0.5191790000000  0.4752080000000  0.6124460000000 1.0
C      1  0.4088030000000  0.5371570000000  0.4298040000000 1.0
C      1  0.5280890000000  0.4143730000000  0.5730470000000 1.0
C      1  0.5413230000000  0.5140900000000  0.5521120000000 1.0
C      1  0.5307160000000  0.5485640000000  0.5930660000000 1.0
C      1  0.6027350000000  0.4782680000000  0.4824050000000 1.0
C      1  0.4781260000000  0.5950150000000  0.5395970000000 1.0
C      1  0.4875710000000  0.4239440000000  0.4949550000000 1.0
C      1  0.4465330000000  0.4954350000000  0.4594760000000 1.0
C      1  0.4254670000000  0.5510360000000  0.5768330000000 1.0
C      1  0.5386360000000  0.4371000000000  0.4252820000000 1.0
C      1  0.4540830000000  0.5179960000000  0.5502690000000 1.0
C      1  0.5846140000000  0.4395780000000  0.4591700000000 1.0
C      1  0.5409010000000  0.4902230000000  0.4027890000000 1.0
C      1  0.5252520000000  0.5501200000000  0.4504970000000 1.0
C      1  0.5525950000000  0.4692860000000  0.5515290000000 1.0
C      1  0.5879610000000  0.4794270000000  0.4097570000000 1.0
C      1  0.4126280000000  0.4296780000000  0.5036180000000 1.0
C      1  0.4032860000000  0.4397250000000  0.4450270000000 1.0
C      1  0.5245770000000  0.4690350000000  0.5433910000000 1.0
C      1  0.6001170000000  0.5293960000000  0.4476870000000 1.0
C      1  0.5926500000000  0.5042340000000  0.5649010000000 1.0
C      1  0.4757060000000  0.4478820000000  0.5412650000000 1.0
C      1  0.4322790000000  0.5838080000000  0.4850390000000 1.0
C      1  0.5071150000000  0.4341320000000  0.4749650000000 1.0
C      1  0.5680100000000  0.4991520000000  0.4080150000000 1.0
C      1  0.3904350000000  0.4776490000000  0.4744540000000 1.0
C      1  0.5001880000000  0.5436580000000  0.4739520000000 1.0
C      1  0.4226770000000  0.5130810000000  0.4648890000000 1.0
C      1  0.4846860000000  0.4104610000000  0.5476630000000 1.0
C      1  0.5423360000000  0.4595280000000  0.4658950000000 1.0
C      1  0.4786350000000  0.5705600000000  0.4739960000000 1.0
C      1  0.4583130000000  0.4013450000000  0.4671920000000 1.0
C      1  0.4245780000000  0.4932730000000  0.5133830000000 1.0
C      1  0.5597480000000  0.5482650000000  0.5846000000000 1.0
C      1  0.4000550000000  0.5424950000000  0.5393940000000 1.0
C      1  0.5263120000000  0.4670080000000  0.4174780000000 1.0
C      1  0.5562800000000  0.4238090000000  0.5730270000000 1.0
C      1  0.4439530000000  0.4249100000000  0.5726540000000 1.0
C      1  0.4694900000000  0.4547700000000  0.4439060000000 1.0
C      1  0.5173980000000  0.4158070000000  0.4247430000000 1.0
C      1  0.3889090000000  0.5225250000000  0.4954000000000 1.0
C      1  0.4359460000000  0.5679050000000  0.5547580000000 1.0
C      1  0.5541780000000  0.5100560000000  0.4595180000000 1.0
C      1  0.5414380000000  0.5594340000000  0.4727550000000 1.0
C      1  0.5009360000000  0.4706550000000  0.4991620000000 1.0
C      1  0.4736270000000  0.4824850000000  0.4937570000000 1.0
C      1  0.5180640000000  0.5211060000000  0.5953880000000 1.0
C      1  0.4706950000000  0.4177270000000  0.5728040000000 1.0
C      1  0.5131850000000  0.4302360000000  0.5929060000000 1.0
C      1  0.4348800000000  0.4699960000000  0.4695280000000 1.0
C      1  0.4398430000000  0.4089260000000  0.4448120000000 1.0
C      1  0.4989340000000  0.4692250000000  0.4048590000000 1.0
C      1  0.4798520000000  0.4773210000000  0.5575230000000 1.0
C      1  0.4897190000000  0.5173960000000  0.4634530000000 1.0
C      1  0.5812980000000  0.4814770000000  0.6116270000000 1.0
C      1  0.5215270000000  0.4399330000000  0.5307600000000 1.0
C      1  0.6088900000000  0.4678970000000  0.5284200000000 1.0
C      1  0.5624130000000  0.4989010000000  0.5980440000000 1.0
C      1  0.4714380000000  0.4967490000000  0.5359320000000 1.0
C      1  0.4896580000000  0.5236440000000  0.6050360000000 1.0
C      1  0.4282220000000  0.4603920000000  0.5476830000000 1.0
C      1  0.4899500000000  0.4247870000000  0.4182630000000 1.0
C      1  0.5110370000000  0.5634910000000  0.5741790000000 1.0
C      1  0.6035220000000  0.4807560000000  0.4325530000000 1.0
C      1  0.5219820000000  0.3905550000000  0.5279870000000 1.0
C      1  0.4588400000000  0.5822120000000  0.4954280000000 1.0
C      1  0.4729740000000  0.5044390000000  0.3864200000000 1.0
C      1  0.4957260000000  0.6037060000000  0.4845920000000 1.0
C      1  0.3920630000000  0.4961860000000  0.5440340000000 1.0
C      1  0.5155310000000  0.4139390000000  0.5461550000000 1.0
C      1  0.5059220000000  0.5891340000000  0.5323480000000 1.0
C      1  0.4589010000000  0.4265000000000  0.4856640000000 1.0
C      1  0.4364470000000  0.5387980000000  0.4775400000000 1.0
C      1  0.4639970000000  0.5787520000000  0.5602880000000 1.0
C      1  0.4494110000000  0.4522310000000  0.5284860000000 1.0
C      1  0.4409390000000  0.4302840000000  0.5097740000000 1.0
C      1  0.5622250000000  0.5283830000000  0.4179400000000 1.0
C      1  0.4808520000000  0.5665010000000  0.5825670000000 1.0
C      1  0.5915540000000  0.4546740000000  0.5675020000000 1.0
C      1  0.3866960000000  0.5203350000000  0.5252450000000 1.0
C      1  0.4072770000000  0.5585010000000  0.4517080000000 1.0
C      1  0.4531520000000  0.4329640000000  0.4281650000000 1.0
C      1  0.4032120000000  0.5109490000000  0.4414530000000 1.0
C      1  0.5380130000000  0.5242720000000  0.4387730000000 1.0
C      1  0.5469430000000  0.5768370000000  0.4323860000000 1.0
C      1  0.5935230000000  0.5055820000000  0.4913980000000 1.0
C      1  0.6015610000000  0.4582710000000  0.5026970000000 1.0
C      1  0.4301680000000  0.4492010000000  0.5746300000000 1.0
C      1  0.4391150000000  0.4795550000000  0.4110200000000 1.0
C      1  0.5025470000000  0.5406790000000  0.5539560000000 1.0
C      1  0.4851860000000  0.4360420000000  0.5888210000000 1.0
C      1  0.4856960000000  0.5421360000000  0.4122940000000 1.0
C      1  0.5584370000000  0.5916980000000  0.5205320000000 1.0
C      1  0.4895030000000  0.4768320000000  0.6132200000000 1.0
C      1  0.5794160000000  0.5887910000000  0.4753660000000 1.0
C      1  0.4074560000000  0.4740360000000  0.5305490000000 1.0
C      1  0.5499130000000  0.4636590000000  0.4943810000000 1.0
C      1  0.5842130000000  0.5468030000000  0.4299240000000 1.0
C      1  0.4484440000000  0.4508360000000  0.4028590000000 1.0
C      1  0.4427850000000  0.4675210000000  0.5946780000000 1.0
C      1  0.3769320000000  0.4607760000000  0.4921760000000 1.0
C      1  0.5676910000000  0.4433300000000  0.5505500000000 1.0
C      1  0.5370880000000  0.3959190000000  0.5036590000000 1.0
C      1  0.4714770000000  0.5433310000000  0.5463520000000 1.0
C      1  0.4192710000000  0.5628810000000  0.5296670000000 1.0
C      1  0.5800500000000  0.5814480000000  0.5044500000000 1.0
C      1  0.4498920000000  0.5299120000000  0.5042490000000 1.0
C      1  0.5584120000000  0.4405930000000  0.5976300000000 1.0
C      1  0.4578650000000  0.5490850000000  0.4262170000000 1.0
C      1  0.4719440000000  0.5457780000000  0.5163820000000 1.0
END
