TITL C-951335-1172-558 -8.55703180082593e-07 125000 -144.814160899912 0 0 25 (C1) n - 1
REM
REM in /home/bkarasulu/work/CARBON/AIRSS/Generating-Clusters/EDIP-Nigel-Params/with-SteepDescent/Only-C1/SD-CG/HFTN-CG
REM
REM
REM
REM
REM
REM ./C.cell (11c1c37f851c82e70ff6c80c92926a4b)
REM
REM compiler GCC version 9.2.1 20190827 (Red Hat 9.2.1-1)
REM options -cpp -mtune=generic -march=x86-64 -g -O0 -fpre-include=/usr/include/finclude/math-vector-fortran.h
REM seed -1943834947 -685568471 -1254803129 1499823767 -1567179404 -1255033700 -1045166635 571543994 1937892801 1681767388 73006154 -1667418556 -1415026167 316331377 1113301900 -47131513 -212633602 1429171468 140158076 1417722136 425938272 -2048013056 -1838578170 1260272818 -2052903134 -985555576 2016415682 -1610038284 -1689698031 189626493 -382879636 95857874 -748462879
REM
CELL 1.54180   50.00000   50.00000   50.00000   90.00000   90.00000   90.00000
LATT -1
SFAC C  
C      1  0.5016640000000  0.5578670000000  0.4816270000000 1.0
C      1  0.5206740000000  0.5372630000000  0.4863950000000 1.0
C      1  0.4677260000000  0.4710570000000  0.4662150000000 1.0
C      1  0.4460230000000  0.4929270000000  0.5404380000000 1.0
C      1  0.5438270000000  0.4787790000000  0.5328560000000 1.0
C      1  0.4738040000000  0.4950130000000  0.4543910000000 1.0
C      1  0.4490220000000  0.5167050000000  0.5285120000000 1.0
C      1  0.5269950000000  0.4646440000000  0.5013610000000 1.0
C      1  0.5016970000000  0.4982250000000  0.4579940000000 1.0
C      1  0.4677640000000  0.5477630000000  0.4965400000000 1.0
C      1  0.5522800000000  0.5245390000000  0.5240030000000 1.0
C      1  0.5397890000000  0.5060230000000  0.5439390000000 1.0
C      1  0.5135470000000  0.4723330000000  0.4566640000000 1.0
C      1  0.4766900000000  0.5531360000000  0.4707940000000 1.0
C      1  0.5113340000000  0.5086850000000  0.4852050000000 1.0
C      1  0.4897350000000  0.5040070000000  0.5060780000000 1.0
C      1  0.5099830000000  0.4554610000000  0.4796100000000 1.0
C      1  0.4670880000000  0.5218600000000  0.5082460000000 1.0
C      1  0.4853250000000  0.4638640000000  0.5391070000000 1.0
C      1  0.5351500000000  0.4903170000000  0.4909940000000 1.0
C      1  0.4849280000000  0.4746200000000  0.5114300000000 1.0
C      1  0.4584320000000  0.4693960000000  0.5330990000000 1.0
C      1  0.5565550000000  0.4967590000000  0.5106980000000 1.0
C      1  0.4814080000000  0.4572230000000  0.4867620000000 1.0
C      1  0.5385590000000  0.5415320000000  0.5070430000000 1.0
END
