TITL C-950525-1983-527 -8.78970854889478e-07 125000 -188.073704001129 0 0 32 (C1) n - 1
REM
REM in /home/bkarasulu/work/CARBON/AIRSS/Generating-Clusters/EDIP-Nigel-Params/with-SteepDescent/Only-C1/SD-CG/HFTN-CG
REM
REM
REM
REM
REM
REM ./C.cell (11c1c37f851c82e70ff6c80c92926a4b)
REM
REM compiler GCC version 9.2.1 20190827 (Red Hat 9.2.1-1)
REM options -cpp -mtune=generic -march=x86-64 -g -O0 -fpre-include=/usr/include/finclude/math-vector-fortran.h
REM seed 1296805626 -1725556754 1054025096 1880325241 -103685475 998412275 -1071747185 174670361 1951779943 1176599573 -696889407 1782454904 1414508508 -201110839 -934861931 -277593790 768302944 1240535091 -758777033 948839310 -864161557 1241525702 1173989612 1138652611 1560638169 797756383 114733088 1392569514 317019341 -1037280213 -1202058904 1852025924 -2022024621
REM
CELL 1.54180   50.00000   50.00000   50.00000   90.00000   90.00000   90.00000
LATT -1
SFAC C  
C      1  0.5320600000000  0.5183840000000  0.4696530000000 1.0
C      1  0.5352090000000  0.4512820000000  0.4804160000000 1.0
C      1  0.4754130000000  0.4676250000000  0.4888730000000 1.0
C      1  0.5401260000000  0.4656150000000  0.5174920000000 1.0
C      1  0.4991120000000  0.5351840000000  0.5406010000000 1.0
C      1  0.4842710000000  0.5413540000000  0.4888080000000 1.0
C      1  0.4340770000000  0.4886150000000  0.5124240000000 1.0
C      1  0.5090030000000  0.5542500000000  0.4966360000000 1.0
C      1  0.5141250000000  0.5156620000000  0.4460850000000 1.0
C      1  0.5333510000000  0.5438990000000  0.4840220000000 1.0
C      1  0.4857530000000  0.4514690000000  0.5098270000000 1.0
C      1  0.5424910000000  0.5121510000000  0.5159390000000 1.0
C      1  0.4834750000000  0.5326630000000  0.4616480000000 1.0
C      1  0.4609010000000  0.5471580000000  0.5026680000000 1.0
C      1  0.4501720000000  0.5318200000000  0.5218960000000 1.0
C      1  0.4787300000000  0.5053530000000  0.4577650000000 1.0
C      1  0.5045660000000  0.4687340000000  0.4485900000000 1.0
C      1  0.4497420000000  0.4772500000000  0.4935570000000 1.0
C      1  0.4940030000000  0.4841580000000  0.4720620000000 1.0
C      1  0.5293200000000  0.4561570000000  0.4532050000000 1.0
C      1  0.4745680000000  0.4930490000000  0.5385040000000 1.0
C      1  0.4758990000000  0.4650670000000  0.5447150000000 1.0
C      1  0.4500410000000  0.5048840000000  0.5285720000000 1.0
C      1  0.5162040000000  0.5519790000000  0.5254820000000 1.0
C      1  0.5406220000000  0.4751850000000  0.4918020000000 1.0
C      1  0.4691490000000  0.4425100000000  0.5300690000000 1.0
C      1  0.5195020000000  0.4942080000000  0.5525900000000 1.0
C      1  0.5396140000000  0.4897650000000  0.5336650000000 1.0
C      1  0.4958950000000  0.5088510000000  0.5493700000000 1.0
C      1  0.5188720000000  0.4884790000000  0.4339060000000 1.0
C      1  0.5210430000000  0.4972110000000  0.4877190000000 1.0
C      1  0.5426920000000  0.5400290000000  0.5214420000000 1.0
END
