TITL C-950524-1808-659 -2.38765288672007e-07 125000 -246.104735075106 0 0 42 (C1) n - 1
REM
REM in /home/bkarasulu/work/CARBON/AIRSS/Generating-Clusters/EDIP-Nigel-Params/with-SteepDescent/Only-C1/SD-CG/HFTN-CG
REM
REM
REM
REM
REM
REM ./C.cell (11c1c37f851c82e70ff6c80c92926a4b)
REM
REM compiler GCC version 9.2.1 20190827 (Red Hat 9.2.1-1)
REM options -cpp -mtune=generic -march=x86-64 -g -O0 -fpre-include=/usr/include/finclude/math-vector-fortran.h
REM seed 291191695 -2132768632 -1038740766 -968779621 -457818273 -1011248739 -101235438 -1372781434 845494440 64499812 2003297207 -448881718 -1477444131 1885023309 -2119765078 -1033910185 -1439180405 1099710113 -85257183 285770852 -93614404 1234208123 -947980207 -574572473 1426905932 -2129758370 1000321155 1424819079 -530629177 845095811 -64644563 -39544089 -67636444
REM
CELL 1.54180   50.00000   50.00000   50.00000   90.00000   90.00000   90.00000
LATT -1
SFAC C  
C      1  0.4263840000000  0.4499730000000  0.5630070000000 1.0
C      1  0.5584880000000  0.5074380000000  0.4728020000000 1.0
C      1  0.5334980000000  0.5224260000000  0.4650210000000 1.0
C      1  0.5277820000000  0.5593570000000  0.4889100000000 1.0
C      1  0.5067700000000  0.4902190000000  0.5103720000000 1.0
C      1  0.4908940000000  0.4952830000000  0.4180600000000 1.0
C      1  0.4956740000000  0.4620770000000  0.5032680000000 1.0
C      1  0.5257320000000  0.5172420000000  0.4379510000000 1.0
C      1  0.4298690000000  0.4768720000000  0.5537130000000 1.0
C      1  0.4963820000000  0.5386550000000  0.5201490000000 1.0
C      1  0.5504990000000  0.4955130000000  0.5352580000000 1.0
C      1  0.5222410000000  0.4697040000000  0.4430670000000 1.0
C      1  0.5129330000000  0.4517130000000  0.4839260000000 1.0
C      1  0.5201100000000  0.4565890000000  0.5397750000000 1.0
C      1  0.4753960000000  0.4668980000000  0.4508000000000 1.0
C      1  0.4979400000000  0.5156480000000  0.4362720000000 1.0
C      1  0.5518090000000  0.4807450000000  0.4824700000000 1.0
C      1  0.4745410000000  0.5396980000000  0.4758330000000 1.0
C      1  0.4808840000000  0.4684780000000  0.5618720000000 1.0
C      1  0.5661370000000  0.5303800000000  0.5020200000000 1.0
C      1  0.4533500000000  0.4589310000000  0.5602460000000 1.0
C      1  0.5390360000000  0.5512350000000  0.4648700000000 1.0
C      1  0.4668690000000  0.4891570000000  0.4655120000000 1.0
C      1  0.4366470000000  0.5137530000000  0.4873230000000 1.0
C      1  0.4550500000000  0.5322640000000  0.4970130000000 1.0
C      1  0.5330770000000  0.4760070000000  0.5223750000000 1.0
C      1  0.5086860000000  0.5144740000000  0.4853020000000 1.0
C      1  0.4850910000000  0.5133720000000  0.4637970000000 1.0
C      1  0.5233460000000  0.5288700000000  0.5245130000000 1.0
C      1  0.4985360000000  0.5507330000000  0.4934030000000 1.0
C      1  0.4712540000000  0.5244180000000  0.5200380000000 1.0
C      1  0.4993960000000  0.4884040000000  0.5483420000000 1.0
C      1  0.4401830000000  0.4914490000000  0.4728790000000 1.0
C      1  0.5424590000000  0.5451960000000  0.5101810000000 1.0
C      1  0.4362660000000  0.5029400000000  0.5461780000000 1.0
C      1  0.5325690000000  0.4637960000000  0.4684280000000 1.0
C      1  0.5669560000000  0.5021010000000  0.5109510000000 1.0
C      1  0.4971670000000  0.4461650000000  0.5270500000000 1.0
C      1  0.4961390000000  0.4715570000000  0.4324300000000 1.0
C      1  0.4597840000000  0.5176510000000  0.5454200000000 1.0
C      1  0.5339130000000  0.5157960000000  0.5469770000000 1.0
C      1  0.4802640000000  0.5068210000000  0.5622280000000 1.0
END
