TITL C-950532-2784-48 -1.57888758549775e-06 125000 -292.391023643818 0 0 48 (C1) n - 1
REM
REM in /home/bkarasulu/work/CARBON/AIRSS/Generating-Clusters/EDIP-Nigel-Params/with-SteepDescent/Only-C1/SD-CG/HFTN-CG
REM
REM
REM
REM
REM
REM ./C.cell (11c1c37f851c82e70ff6c80c92926a4b)
REM
REM compiler GCC version 9.2.1 20190827 (Red Hat 9.2.1-1)
REM options -cpp -mtune=generic -march=x86-64 -g -O0 -fpre-include=/usr/include/finclude/math-vector-fortran.h
REM seed 1581734642 -833586539 -965707467 1486872007 -1766205351 -1461172531 -256044598 772478230 117544920 1283826381 1292553910 -1785817885 -1732644622 2143276712 -1765920983 1982050023 -1644020472 -625180325 -1962908095 -245218682 440504158 1213819038 115757472 1497582827 991654755 1151850771 1739487288 617238893 1553416012 667888089 838167245 124436472 1081717252
REM
CELL 1.54180   50.00000   50.00000   50.00000   90.00000   90.00000   90.00000
LATT -1
SFAC C  
C      1  0.4774470000000  0.5610140000000  0.5190840000000 1.0
C      1  0.4297090000000  0.5110620000000  0.4936800000000 1.0
C      1  0.5462220000000  0.5026630000000  0.5352510000000 1.0
C      1  0.4598360000000  0.5466530000000  0.5026050000000 1.0
C      1  0.4641400000000  0.5475490000000  0.4735420000000 1.0
C      1  0.4944650000000  0.4534730000000  0.4519560000000 1.0
C      1  0.5568730000000  0.4747210000000  0.4970490000000 1.0
C      1  0.4828770000000  0.5018800000000  0.5717010000000 1.0
C      1  0.5367600000000  0.5230530000000  0.4544850000000 1.0
C      1  0.4649370000000  0.5034810000000  0.5273270000000 1.0
C      1  0.4458320000000  0.5228390000000  0.5133910000000 1.0
C      1  0.4820340000000  0.4469960000000  0.5513610000000 1.0
C      1  0.5527770000000  0.4978030000000  0.4554230000000 1.0
C      1  0.5209130000000  0.5139050000000  0.5281060000000 1.0
C      1  0.4787840000000  0.4880320000000  0.5039890000000 1.0
C      1  0.5289050000000  0.5697910000000  0.4650700000000 1.0
C      1  0.5071860000000  0.5604180000000  0.4501740000000 1.0
C      1  0.4779630000000  0.5137590000000  0.4417040000000 1.0
C      1  0.4986730000000  0.5007130000000  0.4868520000000 1.0
C      1  0.5449380000000  0.4769440000000  0.5235360000000 1.0
C      1  0.5161080000000  0.5197500000000  0.4995040000000 1.0
C      1  0.5255920000000  0.5658070000000  0.5114480000000 1.0
C      1  0.5216650000000  0.4079870000000  0.5015300000000 1.0
C      1  0.5079310000000  0.5348050000000  0.5447130000000 1.0
C      1  0.5397960000000  0.5588550000000  0.4882920000000 1.0
C      1  0.5387450000000  0.4726280000000  0.4499850000000 1.0
C      1  0.4528500000000  0.4490620000000  0.5133980000000 1.0
C      1  0.5384900000000  0.4286570000000  0.4909550000000 1.0
C      1  0.5001530000000  0.5003200000000  0.4567200000000 1.0
C      1  0.5104910000000  0.4749100000000  0.4452190000000 1.0
C      1  0.4575840000000  0.4895670000000  0.5736530000000 1.0
C      1  0.5250370000000  0.4570460000000  0.5314490000000 1.0
C      1  0.4774070000000  0.4508530000000  0.4723070000000 1.0
C      1  0.4825210000000  0.5647870000000  0.4619230000000 1.0
C      1  0.4669160000000  0.4635130000000  0.4944390000000 1.0
C      1  0.5407070000000  0.5287370000000  0.4846420000000 1.0
C      1  0.4557350000000  0.5252410000000  0.4566060000000 1.0
C      1  0.4820750000000  0.5237200000000  0.5524490000000 1.0
C      1  0.5039260000000  0.5596840000000  0.5286000000000 1.0
C      1  0.4357640000000  0.5086360000000  0.4674910000000 1.0
C      1  0.5237450000000  0.4318570000000  0.5170620000000 1.0
C      1  0.5638670000000  0.4989760000000  0.4828550000000 1.0
C      1  0.5506810000000  0.4523740000000  0.4800330000000 1.0
C      1  0.5043920000000  0.4841500000000  0.5676580000000 1.0
C      1  0.5115470000000  0.5328560000000  0.4398600000000 1.0
C      1  0.4570820000000  0.4549720000000  0.5405170000000 1.0
C      1  0.5067050000000  0.4600040000000  0.5537890000000 1.0
C      1  0.4512190000000  0.4834980000000  0.5466170000000 1.0
END
