TITL C-950521-2237-100 -2.59967348909774e-06 125000 -1123.8914851406 0 0 179 (C1) n - 1
REM
REM in /home/bkarasulu/work/CARBON/AIRSS/Generating-Clusters/EDIP-Nigel-Params/with-SteepDescent/Only-C1/SD-CG/HFTN-CG
REM
REM
REM
REM
REM
REM ./C.cell (11c1c37f851c82e70ff6c80c92926a4b)
REM
REM compiler GCC version 9.2.1 20190827 (Red Hat 9.2.1-1)
REM options -cpp -mtune=generic -march=x86-64 -g -O0 -fpre-include=/usr/include/finclude/math-vector-fortran.h
REM seed 1639414489 1936727709 -154074955 1147458521 -330683289 -381870120 1384058279 -2089513987 -1955986882 -238973246 1903968758 2139231913 293654924 346961856 715218329 731866212 -2039105862 -1418594862 -535810592 1433439673 632923736 -968946881 -1207860061 -343312638 -99293425 -1144223358 -2047595794 1739758872 2104660951 -1196186607 682055014 1482167566 -1217302893
REM
CELL 1.54180   50.00000   50.00000   50.00000   90.00000   90.00000   90.00000
LATT -1
SFAC C  
C      1  0.4873280000000  0.3816330000000  0.5113910000000 1.0
C      1  0.6207010000000  0.4539380000000  0.4659920000000 1.0
C      1  0.5659350000000  0.5212760000000  0.6098750000000 1.0
C      1  0.6150780000000  0.4729850000000  0.4466250000000 1.0
C      1  0.5824160000000  0.5482780000000  0.5450040000000 1.0
C      1  0.4965180000000  0.4786170000000  0.4429990000000 1.0
C      1  0.5310420000000  0.3960390000000  0.4864700000000 1.0
C      1  0.5989690000000  0.4535560000000  0.4350570000000 1.0
C      1  0.5120840000000  0.5752760000000  0.4152320000000 1.0
C      1  0.4152500000000  0.5610440000000  0.5000010000000 1.0
C      1  0.4566020000000  0.4272150000000  0.5608840000000 1.0
C      1  0.5205510000000  0.4199100000000  0.4452770000000 1.0
C      1  0.4196450000000  0.4178910000000  0.4793290000000 1.0
C      1  0.4597880000000  0.5203060000000  0.5122800000000 1.0
C      1  0.4140600000000  0.5246950000000  0.5588270000000 1.0
C      1  0.4560230000000  0.5411600000000  0.5938340000000 1.0
C      1  0.5654280000000  0.4583520000000  0.5843740000000 1.0
C      1  0.4426520000000  0.5642370000000  0.5109270000000 1.0
C      1  0.4973900000000  0.5168250000000  0.5709740000000 1.0
C      1  0.4564090000000  0.4724630000000  0.5919160000000 1.0
C      1  0.4023440000000  0.5262680000000  0.4875270000000 1.0
C      1  0.5768320000000  0.5118590000000  0.5179230000000 1.0
C      1  0.4665920000000  0.5360650000000  0.5382200000000 1.0
C      1  0.5630380000000  0.4651380000000  0.5128130000000 1.0
C      1  0.5125750000000  0.4801760000000  0.4928990000000 1.0
C      1  0.3911140000000  0.4439490000000  0.5102770000000 1.0
C      1  0.4805610000000  0.4113670000000  0.5523890000000 1.0
C      1  0.4541940000000  0.4460730000000  0.5823080000000 1.0
C      1  0.5091830000000  0.4724800000000  0.4156130000000 1.0
C      1  0.5054050000000  0.5560660000000  0.5895160000000 1.0
C      1  0.4574910000000  0.5436310000000  0.4936960000000 1.0
C      1  0.5546710000000  0.5510830000000  0.4006220000000 1.0
C      1  0.4301440000000  0.4931720000000  0.4917860000000 1.0
C      1  0.4472300000000  0.4673290000000  0.5441730000000 1.0
C      1  0.4960090000000  0.5174030000000  0.4783980000000 1.0
C      1  0.5128980000000  0.4404950000000  0.4705010000000 1.0
C      1  0.3925250000000  0.4722240000000  0.5127440000000 1.0
C      1  0.5590200000000  0.5246930000000  0.3974980000000 1.0
C      1  0.4712820000000  0.4629050000000  0.4428570000000 1.0
C      1  0.4377780000000  0.6044040000000  0.4844040000000 1.0
C      1  0.4905440000000  0.5547870000000  0.5246400000000 1.0
C      1  0.4410840000000  0.3993480000000  0.5250420000000 1.0
C      1  0.4429220000000  0.5808340000000  0.4461100000000 1.0
C      1  0.5007280000000  0.6035900000000  0.4761810000000 1.0
C      1  0.4154820000000  0.5523300000000  0.5510670000000 1.0
C      1  0.5597350000000  0.5245790000000  0.4758860000000 1.0
C      1  0.5719540000000  0.4455140000000  0.4410390000000 1.0
C      1  0.5295540000000  0.6015450000000  0.4772410000000 1.0
C      1  0.5175190000000  0.4703690000000  0.4638370000000 1.0
C      1  0.5318840000000  0.4116710000000  0.5369180000000 1.0
C      1  0.5198440000000  0.5256760000000  0.4985820000000 1.0
C      1  0.4487160000000  0.4476530000000  0.5223270000000 1.0
C      1  0.4546580000000  0.4130990000000  0.4393780000000 1.0
C      1  0.5212560000000  0.5536620000000  0.4640170000000 1.0
C      1  0.5639230000000  0.5724090000000  0.5469790000000 1.0
C      1  0.5876650000000  0.5356970000000  0.4762250000000 1.0
C      1  0.4947650000000  0.5515430000000  0.4109330000000 1.0
C      1  0.5586360000000  0.5796300000000  0.4396910000000 1.0
C      1  0.5730440000000  0.4126760000000  0.5093060000000 1.0
C      1  0.5941050000000  0.5737760000000  0.4756040000000 1.0
C      1  0.4558600000000  0.4875090000000  0.4765960000000 1.0
C      1  0.4974620000000  0.5952450000000  0.4293960000000 1.0
C      1  0.5994500000000  0.5530580000000  0.5201260000000 1.0
C      1  0.5011000000000  0.4001320000000  0.4382750000000 1.0
C      1  0.5068240000000  0.4263200000000  0.5486310000000 1.0
C      1  0.4128080000000  0.5857440000000  0.4818230000000 1.0
C      1  0.5045360000000  0.4996420000000  0.5956410000000 1.0
C      1  0.3983660000000  0.4850950000000  0.5386110000000 1.0
C      1  0.5403720000000  0.5630130000000  0.4223990000000 1.0
C      1  0.5925130000000  0.4591920000000  0.5782980000000 1.0
C      1  0.4496290000000  0.5366670000000  0.4629170000000 1.0
C      1  0.4599210000000  0.4298370000000  0.4152420000000 1.0
C      1  0.5620130000000  0.4938470000000  0.4993500000000 1.0
C      1  0.5853490000000  0.5737840000000  0.5034500000000 1.0
C      1  0.5400160000000  0.5354130000000  0.6082250000000 1.0
C      1  0.5131750000000  0.5215270000000  0.6165300000000 1.0
C      1  0.3988230000000  0.5000630000000  0.4388520000000 1.0
C      1  0.4011120000000  0.4881460000000  0.4879150000000 1.0
C      1  0.4378630000000  0.4261210000000  0.4590380000000 1.0
C      1  0.4477430000000  0.4986640000000  0.4240730000000 1.0
C      1  0.5440590000000  0.4699890000000  0.5392950000000 1.0
C      1  0.4086670000000  0.5123620000000  0.5325860000000 1.0
C      1  0.5065860000000  0.5276080000000  0.4243720000000 1.0
C      1  0.5615120000000  0.5294990000000  0.5367750000000 1.0
C      1  0.4043200000000  0.4651400000000  0.4692060000000 1.0
C      1  0.5555600000000  0.5714800000000  0.5100970000000 1.0
C      1  0.6131280000000  0.4532660000000  0.5132350000000 1.0
C      1  0.5953420000000  0.5279810000000  0.5655340000000 1.0
C      1  0.5975910000000  0.5282920000000  0.5037480000000 1.0
C      1  0.5195950000000  0.4886860000000  0.5415810000000 1.0
C      1  0.4989740000000  0.5915950000000  0.5600330000000 1.0
C      1  0.4688790000000  0.4956640000000  0.4044860000000 1.0
C      1  0.5305880000000  0.4320600000000  0.4195840000000 1.0
C      1  0.4251180000000  0.4626680000000  0.4254860000000 1.0
C      1  0.4045700000000  0.4729380000000  0.4413910000000 1.0
C      1  0.4839690000000  0.4765390000000  0.6013310000000 1.0
C      1  0.4931400000000  0.5667640000000  0.4683210000000 1.0
C      1  0.5658090000000  0.4947860000000  0.6192440000000 1.0
C      1  0.5350410000000  0.5488590000000  0.5807500000000 1.0
C      1  0.5799690000000  0.5654740000000  0.4526160000000 1.0
C      1  0.4464170000000  0.5424060000000  0.4070390000000 1.0
C      1  0.4909030000000  0.5399280000000  0.6084450000000 1.0
C      1  0.5660680000000  0.4254460000000  0.4621940000000 1.0
C      1  0.4779030000000  0.3824970000000  0.4737130000000 1.0
C      1  0.4512970000000  0.5151370000000  0.5807590000000 1.0
C      1  0.6041210000000  0.4464520000000  0.4879570000000 1.0
C      1  0.5268960000000  0.4812110000000  0.5912560000000 1.0
C      1  0.5117500000000  0.5348450000000  0.5255270000000 1.0
C      1  0.5420720000000  0.4080520000000  0.4613260000000 1.0
C      1  0.4279860000000  0.4011180000000  0.5002860000000 1.0
C      1  0.4098740000000  0.5253060000000  0.4350170000000 1.0
C      1  0.4305570000000  0.5209260000000  0.4147090000000 1.0
C      1  0.4274140000000  0.4955120000000  0.5806640000000 1.0
C      1  0.5391920000000  0.4798050000000  0.4182680000000 1.0
C      1  0.5173490000000  0.5169290000000  0.5491220000000 1.0
C      1  0.5260810000000  0.5937580000000  0.5671110000000 1.0
C      1  0.5856420000000  0.5295180000000  0.5916740000000 1.0
C      1  0.4339210000000  0.4196880000000  0.5441440000000 1.0
C      1  0.4983380000000  0.4484870000000  0.5289500000000 1.0
C      1  0.5976060000000  0.5011670000000  0.5554460000000 1.0
C      1  0.4329990000000  0.5094020000000  0.5144500000000 1.0
C      1  0.3899400000000  0.5298210000000  0.5164560000000 1.0
C      1  0.5175460000000  0.4417870000000  0.5729990000000 1.0
C      1  0.4186710000000  0.5402360000000  0.4603210000000 1.0
C      1  0.5009210000000  0.4529310000000  0.5949850000000 1.0
C      1  0.5462090000000  0.5989600000000  0.4550910000000 1.0
C      1  0.5083120000000  0.4437470000000  0.4055670000000 1.0
C      1  0.4714830000000  0.6037140000000  0.5228360000000 1.0
C      1  0.4605060000000  0.4557710000000  0.4683360000000 1.0
C      1  0.4785500000000  0.4989240000000  0.4952990000000 1.0
C      1  0.5527810000000  0.4512780000000  0.4194150000000 1.0
C      1  0.5553720000000  0.4233810000000  0.5513700000000 1.0
C      1  0.3983770000000  0.5571350000000  0.5259980000000 1.0
C      1  0.4835020000000  0.5561870000000  0.4949250000000 1.0
C      1  0.5395930000000  0.5958590000000  0.5037270000000 1.0
C      1  0.4829160000000  0.4428210000000  0.4828500000000 1.0
C      1  0.4758010000000  0.3936310000000  0.4473140000000 1.0
C      1  0.5466610000000  0.5750100000000  0.5701480000000 1.0
C      1  0.4168490000000  0.5709130000000  0.4567920000000 1.0
C      1  0.4854420000000  0.4277060000000  0.4043990000000 1.0
C      1  0.5395470000000  0.5454920000000  0.4869720000000 1.0
C      1  0.4592480000000  0.5632580000000  0.5741360000000 1.0
C      1  0.4944600000000  0.5887210000000  0.5316710000000 1.0
C      1  0.5180290000000  0.5992630000000  0.5202960000000 1.0
C      1  0.4675390000000  0.5559090000000  0.4191410000000 1.0
C      1  0.4705150000000  0.3983480000000  0.5276600000000 1.0
C      1  0.5889410000000  0.4552130000000  0.5290210000000 1.0
C      1  0.4445270000000  0.5588390000000  0.5465160000000 1.0
C      1  0.5205020000000  0.4569940000000  0.5108900000000 1.0
C      1  0.4902900000000  0.5090690000000  0.4483000000000 1.0
C      1  0.5135830000000  0.5132420000000  0.3984670000000 1.0
C      1  0.4533780000000  0.5912920000000  0.5055040000000 1.0
C      1  0.4756580000000  0.4433220000000  0.5111170000000 1.0
C      1  0.4698720000000  0.4863620000000  0.5455470000000 1.0
C      1  0.5506180000000  0.5183790000000  0.4484110000000 1.0
C      1  0.5328230000000  0.4998000000000  0.5008560000000 1.0
C      1  0.5305770000000  0.5394690000000  0.4394430000000 1.0
C      1  0.5419220000000  0.5268430000000  0.5592820000000 1.0
C      1  0.5431330000000  0.4907710000000  0.4453510000000 1.0
C      1  0.4007050000000  0.4395370000000  0.4840260000000 1.0
C      1  0.4531310000000  0.4590700000000  0.4192920000000 1.0
C      1  0.5840960000000  0.4253270000000  0.4850980000000 1.0
C      1  0.4847380000000  0.6061240000000  0.4525920000000 1.0
C      1  0.5414290000000  0.5029870000000  0.3971710000000 1.0
C      1  0.5800030000000  0.4262110000000  0.5348240000000 1.0
C      1  0.5432630000000  0.4123980000000  0.5081900000000 1.0
C      1  0.4951030000000  0.4738120000000  0.5432410000000 1.0
C      1  0.4648040000000  0.5600050000000  0.4484360000000 1.0
C      1  0.4593100000000  0.5080640000000  0.4517920000000 1.0
C      1  0.4209540000000  0.4753960000000  0.5576180000000 1.0
C      1  0.4532190000000  0.6058080000000  0.4570030000000 1.0
C      1  0.5945720000000  0.4727140000000  0.5540540000000 1.0
C      1  0.4878340000000  0.5680080000000  0.5707100000000 1.0
C      1  0.5398640000000  0.4393670000000  0.4951720000000 1.0
C      1  0.4707770000000  0.5130410000000  0.5590800000000 1.0
C      1  0.5016150000000  0.3910020000000  0.4882790000000 1.0
C      1  0.5461730000000  0.4490250000000  0.5631930000000 1.0
C      1  0.4953030000000  0.4905580000000  0.3966990000000 1.0
C      1  0.5540040000000  0.4800230000000  0.5985730000000 1.0
END
