TITL C-950521-2237-201 -5.02851148602048e-06 125000 -1205.54238137436 0 0 193 (C1) n - 1
REM
REM in /home/bkarasulu/work/CARBON/AIRSS/Generating-Clusters/EDIP-Nigel-Params/with-SteepDescent/Only-C1/SD-CG/HFTN-CG
REM
REM
REM
REM
REM
REM ./C.cell (11c1c37f851c82e70ff6c80c92926a4b)
REM
REM compiler GCC version 9.2.1 20190827 (Red Hat 9.2.1-1)
REM options -cpp -mtune=generic -march=x86-64 -g -O0 -fpre-include=/usr/include/finclude/math-vector-fortran.h
REM seed 2133594764 1173206715 -1319152707 -1157188221 -1988453912 1933383009 1650064511 171483926 1617687075 1352324455 -1845755544 -218376526 -1009525575 1681305907 1724343240 -1504881112 981975091 -1509809152 629692674 -1455080635 -2111956334 -361523066 -377839498 -48688489 -1998520528 -988209491 1163452980 -966163588 -1359600688 1454169176 -1495174248 -1510601108 -1363590161
REM
CELL 1.54180   50.00000   50.00000   50.00000   90.00000   90.00000   90.00000
LATT -1
SFAC C  
C      1  0.3816870000000  0.4978130000000  0.4983300000000 1.0
C      1  0.5092460000000  0.4684230000000  0.4498530000000 1.0
C      1  0.4106860000000  0.4437590000000  0.4573880000000 1.0
C      1  0.5029730000000  0.4458680000000  0.3981010000000 1.0
C      1  0.4299880000000  0.4241900000000  0.4451790000000 1.0
C      1  0.4883190000000  0.5541780000000  0.4665030000000 1.0
C      1  0.5678230000000  0.5812200000000  0.4671570000000 1.0
C      1  0.5512490000000  0.5024780000000  0.4005890000000 1.0
C      1  0.4761300000000  0.4765480000000  0.5458990000000 1.0
C      1  0.4795560000000  0.5123090000000  0.4973720000000 1.0
C      1  0.5484670000000  0.5888310000000  0.5565290000000 1.0
C      1  0.4849360000000  0.4491880000000  0.5417720000000 1.0
C      1  0.4673680000000  0.6075770000000  0.4682870000000 1.0
C      1  0.4900230000000  0.3701990000000  0.4803980000000 1.0
C      1  0.5408270000000  0.5343800000000  0.4835940000000 1.0
C      1  0.5497700000000  0.4571150000000  0.5863590000000 1.0
C      1  0.5363450000000  0.5481260000000  0.5099690000000 1.0
C      1  0.4773670000000  0.3983920000000  0.5634510000000 1.0
C      1  0.4621490000000  0.5512440000000  0.4489340000000 1.0
C      1  0.4671190000000  0.5529810000000  0.5379380000000 1.0
C      1  0.4938660000000  0.5248640000000  0.4730080000000 1.0
C      1  0.5868560000000  0.4418270000000  0.5186290000000 1.0
C      1  0.4068900000000  0.5557890000000  0.5424000000000 1.0
C      1  0.5619690000000  0.4636040000000  0.4392980000000 1.0
C      1  0.6006750000000  0.5472470000000  0.4862990000000 1.0
C      1  0.4876640000000  0.4243090000000  0.5715300000000 1.0
C      1  0.5583490000000  0.5383460000000  0.4595970000000 1.0
C      1  0.4365160000000  0.4442180000000  0.5546710000000 1.0
C      1  0.5360050000000  0.5239920000000  0.5300880000000 1.0
C      1  0.4667760000000  0.5553480000000  0.6049220000000 1.0
C      1  0.6120430000000  0.4893160000000  0.5076530000000 1.0
C      1  0.5769810000000  0.4085820000000  0.4860890000000 1.0
C      1  0.4978270000000  0.5302540000000  0.3765430000000 1.0
C      1  0.4819820000000  0.4802630000000  0.4582720000000 1.0
C      1  0.5596300000000  0.4410500000000  0.5642510000000 1.0
C      1  0.4491310000000  0.5749800000000  0.5660920000000 1.0
C      1  0.4964470000000  0.4196060000000  0.4080030000000 1.0
C      1  0.4968550000000  0.4307820000000  0.4696230000000 1.0
C      1  0.4103950000000  0.4897430000000  0.4458980000000 1.0
C      1  0.5234650000000  0.5698250000000  0.3850760000000 1.0
C      1  0.5184670000000  0.4911530000000  0.4929730000000 1.0
C      1  0.5514250000000  0.5230100000000  0.5571940000000 1.0
C      1  0.4538550000000  0.5177500000000  0.4005350000000 1.0
C      1  0.5655110000000  0.5106850000000  0.4487250000000 1.0
C      1  0.3934250000000  0.4924110000000  0.5428950000000 1.0
C      1  0.4249770000000  0.5323830000000  0.5836750000000 1.0
C      1  0.5877590000000  0.4133980000000  0.5118370000000 1.0
C      1  0.5207930000000  0.5152060000000  0.4756950000000 1.0
C      1  0.5614710000000  0.4819990000000  0.5956870000000 1.0
C      1  0.3964660000000  0.5449130000000  0.4910060000000 1.0
C      1  0.5466350000000  0.4777970000000  0.4142220000000 1.0
C      1  0.4802530000000  0.4821930000000  0.4896110000000 1.0
C      1  0.5924680000000  0.5639200000000  0.5536220000000 1.0
C      1  0.5908620000000  0.5495830000000  0.4433460000000 1.0
C      1  0.4355170000000  0.3977320000000  0.4966260000000 1.0
C      1  0.5849300000000  0.4469240000000  0.4532690000000 1.0
C      1  0.5418640000000  0.5044930000000  0.6036760000000 1.0
C      1  0.4557480000000  0.4389670000000  0.5058770000000 1.0
C      1  0.4380800000000  0.4940140000000  0.4358010000000 1.0
C      1  0.4271270000000  0.4273690000000  0.5029510000000 1.0
C      1  0.4538830000000  0.5669660000000  0.4153110000000 1.0
C      1  0.5510300000000  0.5601560000000  0.5973100000000 1.0
C      1  0.4428690000000  0.5107740000000  0.5256750000000 1.0
C      1  0.4841540000000  0.6053290000000  0.4473970000000 1.0
C      1  0.4787770000000  0.5852840000000  0.5634440000000 1.0
C      1  0.4587770000000  0.5548930000000  0.5068550000000 1.0
C      1  0.6094030000000  0.4866290000000  0.4466880000000 1.0
C      1  0.5325600000000  0.6061150000000  0.5417020000000 1.0
C      1  0.5775680000000  0.5235520000000  0.5721570000000 1.0
C      1  0.5163210000000  0.4247140000000  0.5791890000000 1.0
C      1  0.3991530000000  0.4949370000000  0.5699490000000 1.0
C      1  0.4366070000000  0.3926280000000  0.4668120000000 1.0
C      1  0.5031310000000  0.4042910000000  0.5129430000000 1.0
C      1  0.4592400000000  0.3884330000000  0.5157700000000 1.0
C      1  0.5329640000000  0.4020670000000  0.5371490000000 1.0
C      1  0.5072890000000  0.5107370000000  0.5662730000000 1.0
C      1  0.5339850000000  0.5490490000000  0.4420210000000 1.0
C      1  0.4626070000000  0.5231130000000  0.5447330000000 1.0
C      1  0.5246350000000  0.6077840000000  0.4721980000000 1.0
C      1  0.4373310000000  0.5175810000000  0.4745810000000 1.0
C      1  0.4519340000000  0.5242590000000  0.4995010000000 1.0
C      1  0.6081740000000  0.4632110000000  0.4620640000000 1.0
C      1  0.4317030000000  0.5791970000000  0.4930920000000 1.0
C      1  0.5554580000000  0.4187950000000  0.4248820000000 1.0
C      1  0.4156610000000  0.5620690000000  0.4767730000000 1.0
C      1  0.4218230000000  0.5024100000000  0.5843150000000 1.0
C      1  0.3997670000000  0.4643540000000  0.4425490000000 1.0
C      1  0.5831540000000  0.4934640000000  0.5783130000000 1.0
C      1  0.5747130000000  0.5729510000000  0.4394020000000 1.0
C      1  0.4297270000000  0.5747300000000  0.5425170000000 1.0
C      1  0.3848560000000  0.5128560000000  0.5242860000000 1.0
C      1  0.4178250000000  0.5406820000000  0.4294290000000 1.0
C      1  0.5735500000000  0.4832870000000  0.4862570000000 1.0
C      1  0.4400950000000  0.4807400000000  0.5945210000000 1.0
C      1  0.4451570000000  0.4537270000000  0.5816150000000 1.0
C      1  0.5148240000000  0.5013420000000  0.6175880000000 1.0
C      1  0.4510910000000  0.4185310000000  0.4671260000000 1.0
C      1  0.3881250000000  0.5200830000000  0.4769360000000 1.0
C      1  0.4722530000000  0.5192500000000  0.3780210000000 1.0
C      1  0.4773170000000  0.4155770000000  0.4548460000000 1.0
C      1  0.4871660000000  0.5143540000000  0.5267550000000 1.0
C      1  0.4556320000000  0.4689560000000  0.5018190000000 1.0
C      1  0.5038900000000  0.5687490000000  0.5780710000000 1.0
C      1  0.6125120000000  0.5481090000000  0.4609820000000 1.0
C      1  0.4900470000000  0.4295440000000  0.4994830000000 1.0
C      1  0.5059230000000  0.4739050000000  0.6182520000000 1.0
C      1  0.4943310000000  0.5505690000000  0.6014230000000 1.0
C      1  0.4719560000000  0.4434320000000  0.5896910000000 1.0
C      1  0.5963980000000  0.5363790000000  0.5534740000000 1.0
C      1  0.4586180000000  0.4339310000000  0.5362800000000 1.0
C      1  0.4984100000000  0.5551190000000  0.5407030000000 1.0
C      1  0.5230250000000  0.5419470000000  0.3809560000000 1.0
C      1  0.4655050000000  0.5122550000000  0.6126110000000 1.0
C      1  0.5520530000000  0.5623390000000  0.4203860000000 1.0
C      1  0.5922610000000  0.4778380000000  0.5541990000000 1.0
C      1  0.4842860000000  0.5671610000000  0.4939080000000 1.0
C      1  0.5161790000000  0.4008600000000  0.4155480000000 1.0
C      1  0.4636260000000  0.5126100000000  0.5750690000000 1.0
C      1  0.3982040000000  0.5387240000000  0.5198600000000 1.0
C      1  0.5653760000000  0.5713920000000  0.5142820000000 1.0
C      1  0.4052200000000  0.5432890000000  0.5671770000000 1.0
C      1  0.5405110000000  0.5297720000000  0.4026560000000 1.0
C      1  0.3967570000000  0.4674690000000  0.5297440000000 1.0
C      1  0.4636610000000  0.6039310000000  0.5178740000000 1.0
C      1  0.5228110000000  0.5265320000000  0.4263420000000 1.0
C      1  0.5327020000000  0.3967330000000  0.4609190000000 1.0
C      1  0.5405710000000  0.4427160000000  0.4827680000000 1.0
C      1  0.5894610000000  0.4933900000000  0.5281590000000 1.0
C      1  0.5174300000000  0.4730900000000  0.4206130000000 1.0
C      1  0.6089180000000  0.5270570000000  0.5055840000000 1.0
C      1  0.4816470000000  0.4657540000000  0.3979450000000 1.0
C      1  0.5818070000000  0.5695150000000  0.4903650000000 1.0
C      1  0.4976090000000  0.5120460000000  0.4252190000000 1.0
C      1  0.4401900000000  0.5417400000000  0.4115800000000 1.0
C      1  0.4369740000000  0.5907040000000  0.5190060000000 1.0
C      1  0.5733020000000  0.5408760000000  0.5971750000000 1.0
C      1  0.5572810000000  0.4542240000000  0.5155800000000 1.0
C      1  0.5255390000000  0.4269250000000  0.4617840000000 1.0
C      1  0.5563280000000  0.4843860000000  0.4616300000000 1.0
C      1  0.4735180000000  0.4209980000000  0.4263230000000 1.0
C      1  0.5917460000000  0.5058140000000  0.4397160000000 1.0
C      1  0.5845600000000  0.4491210000000  0.5496240000000 1.0
C      1  0.4893470000000  0.4683050000000  0.5938460000000 1.0
C      1  0.5075850000000  0.6084660000000  0.4968440000000 1.0
C      1  0.4571090000000  0.4711110000000  0.4436540000000 1.0
C      1  0.4118140000000  0.5010810000000  0.4732400000000 1.0
C      1  0.5095080000000  0.6089810000000  0.5268870000000 1.0
C      1  0.5027130000000  0.4491250000000  0.5179630000000 1.0
C      1  0.4919530000000  0.4949180000000  0.4007560000000 1.0
C      1  0.5708760000000  0.4363130000000  0.4777790000000 1.0
C      1  0.5503570000000  0.3947600000000  0.4864860000000 1.0
C      1  0.5300080000000  0.4479510000000  0.5242320000000 1.0
C      1  0.5407030000000  0.4402100000000  0.4369150000000 1.0
C      1  0.5230910000000  0.4488060000000  0.5953710000000 1.0
C      1  0.5723810000000  0.5792200000000  0.5414310000000 1.0
C      1  0.4619060000000  0.4049150000000  0.5408590000000 1.0
C      1  0.4462670000000  0.4310690000000  0.4191840000000 1.0
C      1  0.5111070000000  0.5664070000000  0.4520010000000 1.0
C      1  0.5096950000000  0.3798470000000  0.4647700000000 1.0
C      1  0.4110410000000  0.4487290000000  0.5442370000000 1.0
C      1  0.4401420000000  0.4924450000000  0.4058290000000 1.0
C      1  0.5988240000000  0.4671410000000  0.4915260000000 1.0
C      1  0.5921300000000  0.5229480000000  0.5284880000000 1.0
C      1  0.5625250000000  0.4837360000000  0.5134470000000 1.0
C      1  0.5110940000000  0.5958140000000  0.4480860000000 1.0
C      1  0.4519690000000  0.4822210000000  0.5281520000000 1.0
C      1  0.5082870000000  0.5261700000000  0.5414030000000 1.0
C      1  0.4818230000000  0.5093670000000  0.4502560000000 1.0
C      1  0.4566880000000  0.4861640000000  0.6168950000000 1.0
C      1  0.4471790000000  0.5524140000000  0.5852620000000 1.0
C      1  0.4844180000000  0.4912380000000  0.5711170000000 1.0
C      1  0.5373820000000  0.4212900000000  0.5588580000000 1.0
C      1  0.3976630000000  0.4700080000000  0.5007120000000 1.0
C      1  0.4933580000000  0.5201110000000  0.6070680000000 1.0
C      1  0.5394050000000  0.3965980000000  0.4308900000000 1.0
C      1  0.4863490000000  0.3801930000000  0.5061060000000 1.0
C      1  0.5242910000000  0.6007640000000  0.4229610000000 1.0
C      1  0.4563950000000  0.4603720000000  0.4140970000000 1.0
C      1  0.4404650000000  0.5803880000000  0.4371310000000 1.0
C      1  0.5568580000000  0.5266030000000  0.6160230000000 1.0
C      1  0.4524250000000  0.5203260000000  0.4485620000000 1.0
C      1  0.5086850000000  0.5622720000000  0.5130760000000 1.0
C      1  0.4796900000000  0.5981910000000  0.4926850000000 1.0
C      1  0.5301700000000  0.4717300000000  0.4720540000000 1.0
C      1  0.5337780000000  0.5108590000000  0.5759730000000 1.0
C      1  0.5368260000000  0.4975440000000  0.5160240000000 1.0
C      1  0.4834420000000  0.6030850000000  0.5397080000000 1.0
C      1  0.4196270000000  0.5630030000000  0.4472850000000 1.0
C      1  0.4086890000000  0.4455770000000  0.4866540000000 1.0
C      1  0.5346780000000  0.5721100000000  0.5767110000000 1.0
C      1  0.5371610000000  0.5831160000000  0.4056330000000 1.0
C      1  0.5520540000000  0.6037400000000  0.4720620000000 1.0
C      1  0.5346570000000  0.4067850000000  0.5083230000000 1.0
END
