TITL C-951337-3020-607 -3.81483454203231e-06 125000 -915.150452250158 0 0 146 (C1) n - 1
REM
REM in /home/bkarasulu/work/CARBON/AIRSS/Generating-Clusters/EDIP-Nigel-Params/with-SteepDescent/Only-C1/SD-CG/HFTN-CG
REM
REM
REM
REM
REM
REM ./C.cell (11c1c37f851c82e70ff6c80c92926a4b)
REM
REM compiler GCC version 9.2.1 20190827 (Red Hat 9.2.1-1)
REM options -cpp -mtune=generic -march=x86-64 -g -O0 -fpre-include=/usr/include/finclude/math-vector-fortran.h
REM seed 930843224 1542341736 585133870 -10110975 1208404823 893083446 155435901 -1268880762 -1914165099 -28154392 -1942133020 -77830026 1993136669 475018634 333891025 827377747 521722034 -1892622138 -1458865524 -60267829 -543031997 -1047146998 1794585478 -1697958635 -1846447679 -659213403 -792694336 669748092 -1021182585 -1337740949 420464453 -1187307731 1903577573
REM
CELL 1.54180   50.00000   50.00000   50.00000   90.00000   90.00000   90.00000
LATT -1
SFAC C  
C      1  0.4667080000000  0.4455300000000  0.5224500000000 1.0
C      1  0.4482470000000  0.4867130000000  0.4242230000000 1.0
C      1  0.4198250000000  0.5753840000000  0.5227840000000 1.0
C      1  0.4387980000000  0.4733150000000  0.4583190000000 1.0
C      1  0.5702810000000  0.4293720000000  0.5325660000000 1.0
C      1  0.4969560000000  0.4520780000000  0.4335660000000 1.0
C      1  0.4913040000000  0.4718120000000  0.4008080000000 1.0
C      1  0.4205620000000  0.5546840000000  0.4761190000000 1.0
C      1  0.3967830000000  0.5317440000000  0.5053400000000 1.0
C      1  0.5568870000000  0.5136220000000  0.4692060000000 1.0
C      1  0.5189300000000  0.5446450000000  0.5349670000000 1.0
C      1  0.5659380000000  0.4900380000000  0.5053630000000 1.0
C      1  0.4149430000000  0.4388810000000  0.5170710000000 1.0
C      1  0.4891780000000  0.4823100000000  0.5975230000000 1.0
C      1  0.4917410000000  0.4682570000000  0.4581790000000 1.0
C      1  0.4034570000000  0.5326520000000  0.4681180000000 1.0
C      1  0.4451040000000  0.4870920000000  0.5798510000000 1.0
C      1  0.5288030000000  0.4647870000000  0.5691810000000 1.0
C      1  0.4221280000000  0.4752850000000  0.4859280000000 1.0
C      1  0.4139940000000  0.5190420000000  0.4460440000000 1.0
C      1  0.4930430000000  0.5588080000000  0.5677690000000 1.0
C      1  0.4226950000000  0.5708630000000  0.5500620000000 1.0
C      1  0.3964700000000  0.5075520000000  0.5218520000000 1.0
C      1  0.5205450000000  0.4853690000000  0.4988780000000 1.0
C      1  0.5647470000000  0.4314860000000  0.4835600000000 1.0
C      1  0.4110250000000  0.4635630000000  0.5310490000000 1.0
C      1  0.5751870000000  0.4671080000000  0.4119950000000 1.0
C      1  0.5054090000000  0.5077240000000  0.4851650000000 1.0
C      1  0.4434370000000  0.5636730000000  0.5674900000000 1.0
C      1  0.5709320000000  0.5758740000000  0.5020540000000 1.0
C      1  0.4604270000000  0.4391830000000  0.4275460000000 1.0
C      1  0.4239520000000  0.4139910000000  0.5262930000000 1.0
C      1  0.4479560000000  0.4016430000000  0.5187520000000 1.0
C      1  0.4729450000000  0.5064630000000  0.4813120000000 1.0
C      1  0.5902280000000  0.5099950000000  0.5381180000000 1.0
C      1  0.4442610000000  0.4324230000000  0.4789840000000 1.0
C      1  0.5843990000000  0.5176680000000  0.4604900000000 1.0
C      1  0.5007480000000  0.5440180000000  0.4102540000000 1.0
C      1  0.4910400000000  0.4484600000000  0.4804260000000 1.0
C      1  0.4360420000000  0.5966740000000  0.5151090000000 1.0
C      1  0.4946070000000  0.4202010000000  0.4665280000000 1.0
C      1  0.5463930000000  0.5154210000000  0.5682620000000 1.0
C      1  0.4696930000000  0.4411750000000  0.5696890000000 1.0
C      1  0.5473770000000  0.4863920000000  0.3946060000000 1.0
C      1  0.4692010000000  0.5772140000000  0.5664480000000 1.0
C      1  0.5050290000000  0.4091300000000  0.5657740000000 1.0
C      1  0.5364810000000  0.4374790000000  0.4481220000000 1.0
C      1  0.5375880000000  0.5132130000000  0.4455380000000 1.0
C      1  0.4700510000000  0.5367280000000  0.4776450000000 1.0
C      1  0.4934740000000  0.5413410000000  0.4582560000000 1.0
C      1  0.5260440000000  0.4050150000000  0.5116740000000 1.0
C      1  0.5446040000000  0.5618310000000  0.5686800000000 1.0
C      1  0.5201000000000  0.5343940000000  0.4923270000000 1.0
C      1  0.4733970000000  0.4154700000000  0.5286390000000 1.0
C      1  0.5384500000000  0.4395170000000  0.5794590000000 1.0
C      1  0.5374940000000  0.4899280000000  0.5839290000000 1.0
C      1  0.5398930000000  0.4211360000000  0.5335880000000 1.0
C      1  0.6064390000000  0.4664120000000  0.4789960000000 1.0
C      1  0.5275050000000  0.5915900000000  0.4868370000000 1.0
C      1  0.5748660000000  0.5242590000000  0.5585530000000 1.0
C      1  0.4569430000000  0.4833750000000  0.5527440000000 1.0
C      1  0.5047670000000  0.5527670000000  0.5101150000000 1.0
C      1  0.4824970000000  0.5302520000000  0.5558340000000 1.0
C      1  0.4191140000000  0.4879670000000  0.5154280000000 1.0
C      1  0.4498200000000  0.4537490000000  0.5489580000000 1.0
C      1  0.5520490000000  0.5660920000000  0.4512310000000 1.0
C      1  0.4696850000000  0.5985980000000  0.5489560000000 1.0
C      1  0.5275770000000  0.5160810000000  0.5431510000000 1.0
C      1  0.5850160000000  0.4302880000000  0.5061320000000 1.0
C      1  0.5765340000000  0.5657540000000  0.5279710000000 1.0
C      1  0.4641250000000  0.4489460000000  0.4926240000000 1.0
C      1  0.4180830000000  0.5522920000000  0.5050990000000 1.0
C      1  0.4931110000000  0.4628470000000  0.5741190000000 1.0
C      1  0.4996640000000  0.4998830000000  0.3991760000000 1.0
C      1  0.4641080000000  0.4980840000000  0.5983890000000 1.0
C      1  0.5934350000000  0.5433410000000  0.4713190000000 1.0
C      1  0.4759120000000  0.6089820000000  0.4770330000000 1.0
C      1  0.5295970000000  0.4703960000000  0.4140040000000 1.0
C      1  0.5117750000000  0.5019650000000  0.5952760000000 1.0
C      1  0.4677610000000  0.5264320000000  0.5908850000000 1.0
C      1  0.5824210000000  0.5158970000000  0.5110470000000 1.0
C      1  0.5667260000000  0.4390270000000  0.4158500000000 1.0
C      1  0.5070940000000  0.5337940000000  0.5925070000000 1.0
C      1  0.4582590000000  0.5142060000000  0.4247970000000 1.0
C      1  0.4542450000000  0.5766030000000  0.4466700000000 1.0
C      1  0.5091810000000  0.5143430000000  0.4547240000000 1.0
C      1  0.5390670000000  0.4923280000000  0.5215530000000 1.0
C      1  0.5200840000000  0.5923080000000  0.5344170000000 1.0
C      1  0.4291490000000  0.5182410000000  0.5554610000000 1.0
C      1  0.5302560000000  0.4472650000000  0.5241220000000 1.0
C      1  0.4438070000000  0.5361640000000  0.5757450000000 1.0
C      1  0.4955980000000  0.4037440000000  0.5107170000000 1.0
C      1  0.4522510000000  0.4029110000000  0.4887810000000 1.0
C      1  0.4637090000000  0.5737440000000  0.4199640000000 1.0
C      1  0.5094400000000  0.4591590000000  0.5056380000000 1.0
C      1  0.4854840000000  0.4233570000000  0.4372960000000 1.0
C      1  0.4421900000000  0.4440320000000  0.4510370000000 1.0
C      1  0.3986740000000  0.5132150000000  0.5515830000000 1.0
C      1  0.4675550000000  0.5264490000000  0.5292120000000 1.0
C      1  0.4199210000000  0.4455910000000  0.4898050000000 1.0
C      1  0.5356100000000  0.4650440000000  0.4624400000000 1.0
C      1  0.4632840000000  0.4653980000000  0.4099020000000 1.0
C      1  0.5022550000000  0.5075290000000  0.5576830000000 1.0
C      1  0.5233640000000  0.4154390000000  0.4633770000000 1.0
C      1  0.5307910000000  0.4184040000000  0.5623920000000 1.0
C      1  0.5514050000000  0.5971890000000  0.5031130000000 1.0
C      1  0.5689220000000  0.5532200000000  0.5524310000000 1.0
C      1  0.4892720000000  0.4639240000000  0.5260130000000 1.0
C      1  0.5417660000000  0.4672950000000  0.5405040000000 1.0
C      1  0.4080190000000  0.4895860000000  0.5716120000000 1.0
C      1  0.4773560000000  0.5856980000000  0.4616420000000 1.0
C      1  0.4875570000000  0.4809570000000  0.5507670000000 1.0
C      1  0.5366390000000  0.5384390000000  0.5854190000000 1.0
C      1  0.5744180000000  0.4809350000000  0.4379770000000 1.0
C      1  0.5699700000000  0.4577810000000  0.5419850000000 1.0
C      1  0.4144190000000  0.4635400000000  0.5590910000000 1.0
C      1  0.5595460000000  0.4634130000000  0.4804810000000 1.0
C      1  0.5434490000000  0.4831430000000  0.4395800000000 1.0
C      1  0.6013850000000  0.4558150000000  0.5050170000000 1.0
C      1  0.5494940000000  0.5457780000000  0.4291230000000 1.0
C      1  0.4619250000000  0.6037080000000  0.5228480000000 1.0
C      1  0.4817550000000  0.5210930000000  0.4076630000000 1.0
C      1  0.5196480000000  0.5675940000000  0.5526780000000 1.0
C      1  0.5275750000000  0.5096770000000  0.3948800000000 1.0
C      1  0.4920200000000  0.5701650000000  0.4204460000000 1.0
C      1  0.4822800000000  0.6009530000000  0.5029220000000 1.0
C      1  0.5669990000000  0.5570520000000  0.4781040000000 1.0
C      1  0.6025720000000  0.5264550000000  0.4934460000000 1.0
C      1  0.5492020000000  0.5342870000000  0.4883940000000 1.0
C      1  0.5296560000000  0.5364380000000  0.4089950000000 1.0
C      1  0.4454420000000  0.5506420000000  0.4597860000000 1.0
C      1  0.5447880000000  0.6047610000000  0.5297030000000 1.0
C      1  0.4680560000000  0.4877330000000  0.4581220000000 1.0
C      1  0.5074530000000  0.5851600000000  0.5080690000000 1.0
C      1  0.5866090000000  0.4743490000000  0.5241810000000 1.0
C      1  0.4380960000000  0.5311830000000  0.4382040000000 1.0
C      1  0.5668400000000  0.4291550000000  0.4454230000000 1.0
C      1  0.4759540000000  0.5443240000000  0.5071860000000 1.0
C      1  0.4998220000000  0.5698540000000  0.4494030000000 1.0
C      1  0.5398730000000  0.4125980000000  0.4867100000000 1.0
C      1  0.5833450000000  0.4659860000000  0.4628360000000 1.0
C      1  0.5272460000000  0.5796860000000  0.4593460000000 1.0
C      1  0.4454440000000  0.5046630000000  0.5328770000000 1.0
C      1  0.5359520000000  0.4411180000000  0.4164520000000 1.0
C      1  0.4820950000000  0.3993350000000  0.4845710000000 1.0
C      1  0.4790050000000  0.4154060000000  0.5585240000000 1.0
END
