TITL C-950531-5884-640 -8.62729267727546e-07 125000 -1227.28032376201 0 0 194 (C1) n - 1
REM
REM in /home/bkarasulu/work/CARBON/AIRSS/Generating-Clusters/EDIP-Nigel-Params/with-SteepDescent/Only-C1/SD-CG/HFTN-CG
REM
REM
REM
REM
REM
REM ./C.cell (11c1c37f851c82e70ff6c80c92926a4b)
REM
REM compiler GCC version 9.2.1 20190827 (Red Hat 9.2.1-1)
REM options -cpp -mtune=generic -march=x86-64 -g -O0 -fpre-include=/usr/include/finclude/math-vector-fortran.h
REM seed 449899097 -617219367 1085692361 -1307599454 2038814249 -67684906 75669298 676953758 -204971306 1302016812 1152191328 467621535 -2017752805 1792594443 1440309095 866443823 191175722 88490413 1540589149 -848299657 517889594 152404046 -1655164004 -532009412 839219711 363354715 -196143316 -1263552906 -83544114 415206337 176633558 -1772264964 1371602214
REM
CELL 1.54180   50.00000   50.00000   50.00000   90.00000   90.00000   90.00000
LATT -1
SFAC C  
C      1  0.4327830000000  0.5189720000000  0.5789170000000 1.0
C      1  0.4417320000000  0.4706010000000  0.4122830000000 1.0
C      1  0.5179690000000  0.4500600000000  0.4913610000000 1.0
C      1  0.5632080000000  0.4196150000000  0.5297150000000 1.0
C      1  0.5170590000000  0.5537370000000  0.6018960000000 1.0
C      1  0.5193410000000  0.4713300000000  0.5609820000000 1.0
C      1  0.4172860000000  0.5675720000000  0.4929010000000 1.0
C      1  0.4825530000000  0.5762500000000  0.4224560000000 1.0
C      1  0.4957520000000  0.5378530000000  0.5521510000000 1.0
C      1  0.4820120000000  0.3882630000000  0.5380660000000 1.0
C      1  0.5556650000000  0.4042700000000  0.4840410000000 1.0
C      1  0.5418630000000  0.4809420000000  0.4436290000000 1.0
C      1  0.5182490000000  0.4802640000000  0.6094850000000 1.0
C      1  0.5563220000000  0.4394570000000  0.5737860000000 1.0
C      1  0.5248520000000  0.5095390000000  0.6149970000000 1.0
C      1  0.4423920000000  0.5684690000000  0.4718470000000 1.0
C      1  0.4356480000000  0.5673050000000  0.4222280000000 1.0
C      1  0.5404380000000  0.4503870000000  0.3909220000000 1.0
C      1  0.4364180000000  0.4705830000000  0.4409030000000 1.0
C      1  0.4721750000000  0.4162790000000  0.5761090000000 1.0
C      1  0.4970940000000  0.4904210000000  0.5176300000000 1.0
C      1  0.3932650000000  0.5746980000000  0.4786480000000 1.0
C      1  0.5774020000000  0.4246210000000  0.4812900000000 1.0
C      1  0.4468580000000  0.5643530000000  0.5778960000000 1.0
C      1  0.5197770000000  0.4046660000000  0.4456400000000 1.0
C      1  0.4626960000000  0.3755620000000  0.4891760000000 1.0
C      1  0.4381290000000  0.5187260000000  0.4134950000000 1.0
C      1  0.4896770000000  0.4003710000000  0.4492160000000 1.0
C      1  0.5732890000000  0.4637060000000  0.5052490000000 1.0
C      1  0.4412550000000  0.5262540000000  0.5107530000000 1.0
C      1  0.4321960000000  0.5935100000000  0.5072350000000 1.0
C      1  0.4893170000000  0.6096820000000  0.5151530000000 1.0
C      1  0.4966890000000  0.5233280000000  0.6163890000000 1.0
C      1  0.4060020000000  0.5439960000000  0.5401470000000 1.0
C      1  0.5644500000000  0.4815770000000  0.5829730000000 1.0
C      1  0.5662890000000  0.5060810000000  0.5681340000000 1.0
C      1  0.6095840000000  0.4415240000000  0.5224040000000 1.0
C      1  0.5494920000000  0.5128830000000  0.4334640000000 1.0
C      1  0.4312130000000  0.4853780000000  0.5893730000000 1.0
C      1  0.4968610000000  0.4387920000000  0.4026420000000 1.0
C      1  0.6057430000000  0.5057210000000  0.5384420000000 1.0
C      1  0.4858190000000  0.5156430000000  0.5284870000000 1.0
C      1  0.5668730000000  0.5204920000000  0.5160530000000 1.0
C      1  0.4305290000000  0.4279860000000  0.5653210000000 1.0
C      1  0.5442680000000  0.4265800000000  0.5521640000000 1.0
C      1  0.4383640000000  0.5081550000000  0.4859390000000 1.0
C      1  0.4913030000000  0.4515700000000  0.4807710000000 1.0
C      1  0.4311400000000  0.4078360000000  0.5429800000000 1.0
C      1  0.5592210000000  0.5741060000000  0.5076770000000 1.0
C      1  0.4130180000000  0.4899420000000  0.4452100000000 1.0
C      1  0.3907990000000  0.5566600000000  0.4589360000000 1.0
C      1  0.5407380000000  0.5734970000000  0.4468310000000 1.0
C      1  0.4800420000000  0.5471250000000  0.4484630000000 1.0
C      1  0.5381180000000  0.6174090000000  0.5226680000000 1.0
C      1  0.5864090000000  0.4882840000000  0.4374430000000 1.0
C      1  0.3944310000000  0.4926190000000  0.5219620000000 1.0
C      1  0.4756460000000  0.5957670000000  0.5371340000000 1.0
C      1  0.4156220000000  0.4463830000000  0.5240860000000 1.0
C      1  0.4798240000000  0.5004750000000  0.5746610000000 1.0
C      1  0.5111340000000  0.5857830000000  0.4320260000000 1.0
C      1  0.4774030000000  0.5512380000000  0.4050460000000 1.0
C      1  0.4891050000000  0.5523840000000  0.6005740000000 1.0
C      1  0.6114010000000  0.5179550000000  0.5112330000000 1.0
C      1  0.5781360000000  0.5376400000000  0.4267280000000 1.0
C      1  0.4551330000000  0.4958480000000  0.4094290000000 1.0
C      1  0.5013090000000  0.5920880000000  0.4593960000000 1.0
C      1  0.4583130000000  0.5192470000000  0.5631680000000 1.0
C      1  0.4020640000000  0.5316360000000  0.4564840000000 1.0
C      1  0.4334440000000  0.5756260000000  0.5546710000000 1.0
C      1  0.5648280000000  0.5021180000000  0.3946510000000 1.0
C      1  0.5103440000000  0.3940980000000  0.5406030000000 1.0
C      1  0.5135220000000  0.5580310000000  0.5384070000000 1.0
C      1  0.5071650000000  0.5092060000000  0.4622930000000 1.0
C      1  0.5199750000000  0.4120530000000  0.5622810000000 1.0
C      1  0.6063950000000  0.5473980000000  0.5059220000000 1.0
C      1  0.5731130000000  0.4818770000000  0.4126290000000 1.0
C      1  0.5490210000000  0.4016640000000  0.5124490000000 1.0
C      1  0.4789030000000  0.4740830000000  0.4990350000000 1.0
C      1  0.5286450000000  0.4764850000000  0.4894500000000 1.0
C      1  0.5219840000000  0.6057920000000  0.4768820000000 1.0
C      1  0.3976380000000  0.4643790000000  0.4844980000000 1.0
C      1  0.5700490000000  0.5623590000000  0.4398960000000 1.0
C      1  0.4561730000000  0.4651660000000  0.5921690000000 1.0
C      1  0.5164720000000  0.4395920000000  0.5201220000000 1.0
C      1  0.4415940000000  0.6034840000000  0.4565540000000 1.0
C      1  0.5703300000000  0.5874260000000  0.4828730000000 1.0
C      1  0.5283300000000  0.4064930000000  0.4725710000000 1.0
C      1  0.5232340000000  0.4302510000000  0.4023050000000 1.0
C      1  0.5409450000000  0.5140100000000  0.3840650000000 1.0
C      1  0.4968920000000  0.5346690000000  0.3897260000000 1.0
C      1  0.4673870000000  0.5709320000000  0.4881130000000 1.0
C      1  0.4214840000000  0.4517740000000  0.5527370000000 1.0
C      1  0.4129510000000  0.5381940000000  0.5113420000000 1.0
C      1  0.5567170000000  0.5093920000000  0.4653460000000 1.0
C      1  0.5820590000000  0.4353020000000  0.5100770000000 1.0
C      1  0.5340210000000  0.4237810000000  0.4284880000000 1.0
C      1  0.4750370000000  0.6084700000000  0.4908600000000 1.0
C      1  0.5933800000000  0.5071030000000  0.4898670000000 1.0
C      1  0.5792480000000  0.5499700000000  0.5190600000000 1.0
C      1  0.4981610000000  0.5232270000000  0.4373250000000 1.0
C      1  0.4065600000000  0.4966510000000  0.5478920000000 1.0
C      1  0.4469140000000  0.6098850000000  0.4859360000000 1.0
C      1  0.4120970000000  0.5123080000000  0.4254000000000 1.0
C      1  0.4416150000000  0.4447450000000  0.5073940000000 1.0
C      1  0.4890970000000  0.5861150000000  0.5615140000000 1.0
C      1  0.4678370000000  0.4133850000000  0.5460720000000 1.0
C      1  0.4539210000000  0.5879720000000  0.4334660000000 1.0
C      1  0.4065780000000  0.5699230000000  0.5506520000000 1.0
C      1  0.4930150000000  0.5645120000000  0.4700900000000 1.0
C      1  0.4563790000000  0.5085780000000  0.5351900000000 1.0
C      1  0.5364110000000  0.5196510000000  0.5126300000000 1.0
C      1  0.4852000000000  0.4400950000000  0.5335350000000 1.0
C      1  0.5345790000000  0.5362780000000  0.5408620000000 1.0
C      1  0.5455980000000  0.5828170000000  0.5551780000000 1.0
C      1  0.4649310000000  0.4945330000000  0.4790560000000 1.0
C      1  0.4046250000000  0.4919780000000  0.4754030000000 1.0
C      1  0.6016520000000  0.5314340000000  0.5593610000000 1.0
C      1  0.4144070000000  0.4761020000000  0.5665060000000 1.0
C      1  0.4470450000000  0.5900860000000  0.5335150000000 1.0
C      1  0.5256830000000  0.5364680000000  0.3979160000000 1.0
C      1  0.5751490000000  0.5013760000000  0.5393640000000 1.0
C      1  0.4449940000000  0.4200010000000  0.4478580000000 1.0
C      1  0.5820380000000  0.5662920000000  0.4663380000000 1.0
C      1  0.5600920000000  0.4371180000000  0.4336110000000 1.0
C      1  0.4098290000000  0.4171190000000  0.5221070000000 1.0
C      1  0.5924420000000  0.4674950000000  0.4582790000000 1.0
C      1  0.5526910000000  0.5944560000000  0.5294110000000 1.0
C      1  0.5276840000000  0.4691900000000  0.3746640000000 1.0
C      1  0.5278050000000  0.5536430000000  0.4692940000000 1.0
C      1  0.4099430000000  0.5221340000000  0.5590080000000 1.0
C      1  0.5928030000000  0.5166500000000  0.4409120000000 1.0
C      1  0.5180590000000  0.5875380000000  0.5636100000000 1.0
C      1  0.5627460000000  0.5603280000000  0.5639430000000 1.0
C      1  0.4988130000000  0.4286060000000  0.5774810000000 1.0
C      1  0.5119300000000  0.4817520000000  0.4486770000000 1.0
C      1  0.5364890000000  0.4670740000000  0.5863460000000 1.0
C      1  0.4417980000000  0.3950810000000  0.4921380000000 1.0
C      1  0.4089610000000  0.4146120000000  0.4920590000000 1.0
C      1  0.5748630000000  0.4436140000000  0.4583740000000 1.0
C      1  0.5739480000000  0.4605810000000  0.5635870000000 1.0
C      1  0.4296420000000  0.4430890000000  0.4528680000000 1.0
C      1  0.4639090000000  0.4590640000000  0.5198900000000 1.0
C      1  0.5198350000000  0.4957780000000  0.3760710000000 1.0
C      1  0.5316640000000  0.5226580000000  0.4754000000000 1.0
C      1  0.5834180000000  0.5245900000000  0.5823490000000 1.0
C      1  0.6036030000000  0.5226100000000  0.4670170000000 1.0
C      1  0.4831510000000  0.4994750000000  0.4206100000000 1.0
C      1  0.4623620000000  0.5479790000000  0.5066460000000 1.0
C      1  0.4482030000000  0.5477700000000  0.4509580000000 1.0
C      1  0.5203950000000  0.4081980000000  0.5165420000000 1.0
C      1  0.4112600000000  0.4400310000000  0.4755540000000 1.0
C      1  0.4702930000000  0.4171070000000  0.4344400000000 1.0
C      1  0.3944970000000  0.4648270000000  0.5127610000000 1.0
C      1  0.5252430000000  0.5213150000000  0.5662060000000 1.0
C      1  0.4941100000000  0.5060520000000  0.3844010000000 1.0
C      1  0.5961410000000  0.4771880000000  0.4874980000000 1.0
C      1  0.5090470000000  0.5549320000000  0.5101920000000 1.0
C      1  0.3970750000000  0.5130440000000  0.5004700000000 1.0
C      1  0.4884620000000  0.4621750000000  0.4505400000000 1.0
C      1  0.4882270000000  0.4745180000000  0.6112850000000 1.0
C      1  0.4703140000000  0.4729630000000  0.5664190000000 1.0
C      1  0.6213420000000  0.4692940000000  0.5011990000000 1.0
C      1  0.4818360000000  0.4425410000000  0.4260150000000 1.0
C      1  0.4507840000000  0.4229180000000  0.4859710000000 1.0
C      1  0.5344010000000  0.5317190000000  0.5941250000000 1.0
C      1  0.5481730000000  0.5971150000000  0.4648620000000 1.0
C      1  0.4505260000000  0.4336970000000  0.5866270000000 1.0
C      1  0.5173530000000  0.6085340000000  0.5064650000000 1.0
C      1  0.4872850000000  0.5337030000000  0.5043360000000 1.0
C      1  0.4777450000000  0.3798030000000  0.4654160000000 1.0
C      1  0.6045450000000  0.5504860000000  0.4761860000000 1.0
C      1  0.5626320000000  0.5449190000000  0.5891390000000 1.0
C      1  0.5535430000000  0.4784110000000  0.4744880000000 1.0
C      1  0.4305780000000  0.5266250000000  0.4627080000000 1.0
C      1  0.5076660000000  0.4979740000000  0.5630220000000 1.0
C      1  0.6171980000000  0.4701760000000  0.5304270000000 1.0
C      1  0.4939880000000  0.4534070000000  0.5604030000000 1.0
C      1  0.5590960000000  0.4568940000000  0.4122210000000 1.0
C      1  0.4847460000000  0.5159130000000  0.4794310000000 1.0
C      1  0.4647370000000  0.4821560000000  0.4504400000000 1.0
C      1  0.4546940000000  0.4782510000000  0.5405360000000 1.0
C      1  0.5347720000000  0.4683660000000  0.5346770000000 1.0
C      1  0.5050880000000  0.4021340000000  0.4910570000000 1.0
C      1  0.5859300000000  0.5540420000000  0.5478660000000 1.0
C      1  0.5659730000000  0.4720100000000  0.5354130000000 1.0
C      1  0.4343460000000  0.5442170000000  0.5938240000000 1.0
C      1  0.5255690000000  0.4897420000000  0.5149760000000 1.0
C      1  0.5256250000000  0.5307560000000  0.4267950000000 1.0
C      1  0.5337760000000  0.5609920000000  0.4970970000000 1.0
C      1  0.4792530000000  0.5012790000000  0.6046820000000 1.0
C      1  0.4483380000000  0.5457850000000  0.4069450000000 1.0
C      1  0.4768470000000  0.3760820000000  0.5132820000000 1.0
C      1  0.4813720000000  0.4239430000000  0.4859500000000 1.0
C      1  0.4755750000000  0.5662260000000  0.5785150000000 1.0
END
