TITL C-950528-5794-70 -3.43618099829792e-06 125000 -620.858092508697 0 0 100 (C1) n - 1
REM
REM in /home/bkarasulu/work/CARBON/AIRSS/Generating-Clusters/EDIP-Nigel-Params/with-SteepDescent/Only-C1/SD-CG/HFTN-CG
REM
REM
REM
REM
REM
REM ./C.cell (11c1c37f851c82e70ff6c80c92926a4b)
REM
REM compiler GCC version 9.2.1 20190827 (Red Hat 9.2.1-1)
REM options -cpp -mtune=generic -march=x86-64 -g -O0 -fpre-include=/usr/include/finclude/math-vector-fortran.h
REM seed -1568483158 -619946684 1428998436 -710448573 -431099705 -338362999 877728524 1089590275 828157338 -1277527642 -1993335073 1841181494 2003525305 -1662027089 478018527 -311533300 -1756525729 1802788539 -1731453366 1229940995 236331413 767771262 425263671 -1386119139 1798202473 1301869249 89692094 -1175107558 548892944 -281320036 1417137690 -13187332 758298703
REM
CELL 1.54180   50.00000   50.00000   50.00000   90.00000   90.00000   90.00000
LATT -1
SFAC C  
C      1  0.4374450000000  0.5305540000000  0.5575600000000 1.0
C      1  0.5862100000000  0.5151990000000  0.5191150000000 1.0
C      1  0.4367400000000  0.5568480000000  0.4759720000000 1.0
C      1  0.4796710000000  0.5791000000000  0.4791950000000 1.0
C      1  0.4538360000000  0.4542860000000  0.5523930000000 1.0
C      1  0.5562720000000  0.5392130000000  0.4344690000000 1.0
C      1  0.5056490000000  0.5691890000000  0.5458810000000 1.0
C      1  0.5369260000000  0.4778370000000  0.5776380000000 1.0
C      1  0.4934290000000  0.5302500000000  0.4719580000000 1.0
C      1  0.4665440000000  0.5183960000000  0.4599430000000 1.0
C      1  0.4477250000000  0.4356920000000  0.5304350000000 1.0
C      1  0.5137250000000  0.4953790000000  0.5853530000000 1.0
C      1  0.5704190000000  0.4904960000000  0.4410890000000 1.0
C      1  0.4885440000000  0.4358030000000  0.4590850000000 1.0
C      1  0.5317280000000  0.4527200000000  0.5626260000000 1.0
C      1  0.4426650000000  0.5063160000000  0.5733170000000 1.0
C      1  0.4604450000000  0.5197680000000  0.5095820000000 1.0
C      1  0.5328780000000  0.5604470000000  0.5532620000000 1.0
C      1  0.5602490000000  0.4903990000000  0.5647830000000 1.0
C      1  0.5321600000000  0.5369100000000  0.4172450000000 1.0
C      1  0.4858700000000  0.5336640000000  0.5008210000000 1.0
C      1  0.4681580000000  0.4647580000000  0.4242370000000 1.0
C      1  0.5736470000000  0.5171990000000  0.4340550000000 1.0
C      1  0.5350010000000  0.5355290000000  0.5680480000000 1.0
C      1  0.4792560000000  0.4606370000000  0.5925200000000 1.0
C      1  0.4399170000000  0.5285510000000  0.4711070000000 1.0
C      1  0.5317980000000  0.4388480000000  0.4688870000000 1.0
C      1  0.4867990000000  0.4873400000000  0.5910740000000 1.0
C      1  0.4799590000000  0.4515520000000  0.5659280000000 1.0
C      1  0.5029760000000  0.4715120000000  0.4627140000000 1.0
C      1  0.4183240000000  0.5086840000000  0.4677480000000 1.0
C      1  0.5406970000000  0.5424170000000  0.4606180000000 1.0
C      1  0.5222110000000  0.4365400000000  0.4411940000000 1.0
C      1  0.5237310000000  0.5101360000000  0.4249470000000 1.0
C      1  0.5345310000000  0.4183090000000  0.4895430000000 1.0
C      1  0.5721620000000  0.4726910000000  0.5437770000000 1.0
C      1  0.4426640000000  0.5454150000000  0.5117580000000 1.0
C      1  0.4786390000000  0.5593150000000  0.5507770000000 1.0
C      1  0.4919780000000  0.4503670000000  0.5067170000000 1.0
C      1  0.5317910000000  0.5434610000000  0.5124090000000 1.0
C      1  0.5851670000000  0.4699680000000  0.4925340000000 1.0
C      1  0.5776140000000  0.4425890000000  0.4965570000000 1.0
C      1  0.4087480000000  0.4602450000000  0.5247110000000 1.0
C      1  0.4627810000000  0.5537930000000  0.4334210000000 1.0
C      1  0.4898220000000  0.4878770000000  0.4829240000000 1.0
C      1  0.4649920000000  0.4921150000000  0.4716360000000 1.0
C      1  0.5583380000000  0.5193810000000  0.5613840000000 1.0
C      1  0.4156840000000  0.4835890000000  0.5382320000000 1.0
C      1  0.4270840000000  0.4439910000000  0.5115370000000 1.0
C      1  0.4690700000000  0.5104730000000  0.5866550000000 1.0
C      1  0.5294390000000  0.5155500000000  0.4743250000000 1.0
C      1  0.5079780000000  0.5769070000000  0.4717460000000 1.0
C      1  0.4608900000000  0.5659220000000  0.5265180000000 1.0
C      1  0.5067820000000  0.4870630000000  0.5308400000000 1.0
C      1  0.5448160000000  0.4664150000000  0.5091740000000 1.0
C      1  0.5828710000000  0.4855400000000  0.5187850000000 1.0
C      1  0.5733910000000  0.5324820000000  0.5407060000000 1.0
C      1  0.5122150000000  0.5240840000000  0.5810610000000 1.0
C      1  0.5718730000000  0.5260140000000  0.4965270000000 1.0
C      1  0.5082270000000  0.4099940000000  0.4991520000000 1.0
C      1  0.5423190000000  0.5175250000000  0.5008530000000 1.0
C      1  0.4845460000000  0.5533000000000  0.4164600000000 1.0
C      1  0.4954360000000  0.4751230000000  0.4310900000000 1.0
C      1  0.5335210000000  0.4926290000000  0.5174910000000 1.0
C      1  0.4495660000000  0.4888170000000  0.4257300000000 1.0
C      1  0.4240250000000  0.5323570000000  0.5316440000000 1.0
C      1  0.4143480000000  0.5064720000000  0.5208360000000 1.0
C      1  0.5303230000000  0.4855020000000  0.4634290000000 1.0
C      1  0.4379000000000  0.4547070000000  0.4598280000000 1.0
C      1  0.5720910000000  0.5548800000000  0.4967670000000 1.0
C      1  0.4843830000000  0.4148860000000  0.4814490000000 1.0
C      1  0.4955930000000  0.5036320000000  0.4229680000000 1.0
C      1  0.5228960000000  0.4601400000000  0.4237820000000 1.0
C      1  0.5549710000000  0.5553380000000  0.5311410000000 1.0
C      1  0.4677920000000  0.5155250000000  0.4292300000000 1.0
C      1  0.4684710000000  0.4362740000000  0.4979370000000 1.0
C      1  0.4845330000000  0.5346740000000  0.5779980000000 1.0
C      1  0.4417100000000  0.4827190000000  0.5524110000000 1.0
C      1  0.4297380000000  0.4815990000000  0.4473110000000 1.0
C      1  0.5040160000000  0.5371450000000  0.5242740000000 1.0
C      1  0.5054140000000  0.4566000000000  0.5486720000000 1.0
C      1  0.4621350000000  0.4442640000000  0.4446410000000 1.0
C      1  0.5049830000000  0.4357840000000  0.5275380000000 1.0
C      1  0.5816570000000  0.4815690000000  0.4660630000000 1.0
C      1  0.4954690000000  0.5127590000000  0.5418290000000 1.0
C      1  0.5518540000000  0.5639340000000  0.4788940000000 1.0
C      1  0.5437030000000  0.4639080000000  0.4783730000000 1.0
C      1  0.4729370000000  0.5821190000000  0.5066470000000 1.0
C      1  0.4596840000000  0.5666920000000  0.4604760000000 1.0
C      1  0.5119190000000  0.5522490000000  0.4558130000000 1.0
C      1  0.4649800000000  0.5111430000000  0.5383820000000 1.0
C      1  0.5554980000000  0.4283570000000  0.5090750000000 1.0
C      1  0.5402030000000  0.4858110000000  0.4349710000000 1.0
C      1  0.5286520000000  0.5752100000000  0.4918490000000 1.0
C      1  0.4441690000000  0.4571610000000  0.4896440000000 1.0
C      1  0.4464780000000  0.4912840000000  0.4948820000000 1.0
C      1  0.4877360000000  0.4777940000000  0.5100630000000 1.0
C      1  0.4084640000000  0.4996470000000  0.4931530000000 1.0
C      1  0.5106220000000  0.5562090000000  0.4259290000000 1.0
C      1  0.5541140000000  0.4485420000000  0.5422720000000 1.0
END
