TITL C-950534-5965-317 1.05738693436247e-06 125000 -349.757870341133 0 0 58 (C1) n - 1
REM
REM in /home/bkarasulu/work/CARBON/AIRSS/Generating-Clusters/EDIP-Nigel-Params/with-SteepDescent/Only-C1/SD-CG/HFTN-CG
REM
REM
REM
REM
REM
REM ./C.cell (11c1c37f851c82e70ff6c80c92926a4b)
REM
REM compiler GCC version 9.2.1 20190827 (Red Hat 9.2.1-1)
REM options -cpp -mtune=generic -march=x86-64 -g -O0 -fpre-include=/usr/include/finclude/math-vector-fortran.h
REM seed 622796959 -350837769 -2017460965 175515532 -1125199126 1451888126 -106103814 281721886 991403938 151281561 -737440240 1239892980 -135987019 -86313553 -1856266284 -966414348 -31080125 701581224 -453975566 -1721484242 -580225669 -1793757936 515042093 -1445674147 1779306480 -1437212789 2047553319 235642771 318562087 1567607724 -540587608 1839288858 2016502028
REM
CELL 1.54180   50.00000   50.00000   50.00000   90.00000   90.00000   90.00000
LATT -1
SFAC C  
C      1  0.5694440000000  0.4939840000000  0.5077330000000 1.0
C      1  0.4918570000000  0.5082550000000  0.4508580000000 1.0
C      1  0.5444540000000  0.4901170000000  0.5541130000000 1.0
C      1  0.4367620000000  0.5420160000000  0.5243020000000 1.0
C      1  0.5630680000000  0.4932140000000  0.4365440000000 1.0
C      1  0.5467430000000  0.5316590000000  0.5300640000000 1.0
C      1  0.5144530000000  0.5292380000000  0.5654580000000 1.0
C      1  0.5061860000000  0.5120170000000  0.5026990000000 1.0
C      1  0.4808300000000  0.5121330000000  0.5691060000000 1.0
C      1  0.5000070000000  0.4442240000000  0.4722870000000 1.0
C      1  0.5646710000000  0.5366540000000  0.4849990000000 1.0
C      1  0.4357410000000  0.5186170000000  0.4610210000000 1.0
C      1  0.5021420000000  0.5584990000000  0.4724910000000 1.0
C      1  0.4650400000000  0.4888560000000  0.4928840000000 1.0
C      1  0.4703010000000  0.4500090000000  0.5286220000000 1.0
C      1  0.5052730000000  0.5416660000000  0.5067130000000 1.0
C      1  0.5160580000000  0.4470190000000  0.5137250000000 1.0
C      1  0.4361340000000  0.5201550000000  0.5054670000000 1.0
C      1  0.4386250000000  0.4788350000000  0.5354330000000 1.0
C      1  0.4686900000000  0.4870890000000  0.5773470000000 1.0
C      1  0.4593600000000  0.5593960000000  0.5216160000000 1.0
C      1  0.4785780000000  0.4762820000000  0.5158060000000 1.0
C      1  0.4728210000000  0.5566440000000  0.4724430000000 1.0
C      1  0.4487270000000  0.5056010000000  0.5303620000000 1.0
C      1  0.4547660000000  0.4723890000000  0.4696900000000 1.0
C      1  0.4583690000000  0.5371850000000  0.4548720000000 1.0
C      1  0.5064770000000  0.4788150000000  0.5788910000000 1.0
C      1  0.5624960000000  0.5209270000000  0.5077460000000 1.0
C      1  0.4840980000000  0.5436430000000  0.5303660000000 1.0
C      1  0.5885560000000  0.4811220000000  0.4309840000000 1.0
C      1  0.4921810000000  0.4373500000000  0.4998140000000 1.0
C      1  0.4831200000000  0.4611580000000  0.5780180000000 1.0
C      1  0.5290780000000  0.4511170000000  0.4710450000000 1.0
C      1  0.4861410000000  0.5065050000000  0.4816720000000 1.0
C      1  0.4399240000000  0.4912250000000  0.4539480000000 1.0
C      1  0.4879500000000  0.4443080000000  0.5529120000000 1.0
C      1  0.4745760000000  0.5258800000000  0.4352110000000 1.0
C      1  0.5602430000000  0.4688520000000  0.5051950000000 1.0
C      1  0.5175850000000  0.4792570000000  0.5515420000000 1.0
C      1  0.5074160000000  0.5528890000000  0.5492660000000 1.0
C      1  0.5342140000000  0.4976980000000  0.4347960000000 1.0
C      1  0.5466170000000  0.4485020000000  0.4492850000000 1.0
C      1  0.4927610000000  0.4810200000000  0.4383210000000 1.0
C      1  0.5157920000000  0.4503550000000  0.5428070000000 1.0
C      1  0.4798600000000  0.4602130000000  0.4554810000000 1.0
C      1  0.5183890000000  0.4752000000000  0.4280010000000 1.0
C      1  0.5500250000000  0.5497020000000  0.4666640000000 1.0
C      1  0.5273750000000  0.5530870000000  0.5254150000000 1.0
C      1  0.5391560000000  0.5178210000000  0.5543520000000 1.0
C      1  0.4773280000000  0.5147510000000  0.5399990000000 1.0
C      1  0.5190740000000  0.5182560000000  0.4485210000000 1.0
C      1  0.4974440000000  0.4960520000000  0.5274860000000 1.0
C      1  0.5396050000000  0.4517410000000  0.4977440000000 1.0
C      1  0.4606030000000  0.5677130000000  0.4949150000000 1.0
C      1  0.4419410000000  0.4518540000000  0.5347870000000 1.0
C      1  0.5675880000000  0.4626840000000  0.4366980000000 1.0
C      1  0.4193390000000  0.5234810000000  0.4831430000000 1.0
C      1  0.5239520000000  0.5450670000000  0.4583240000000 1.0
END
