TITL C-950535-5962-276 -8.71122260335023e-07 125000 -182.149742585404 0 0 31 (C1) n - 1
REM
REM in /home/bkarasulu/work/CARBON/AIRSS/Generating-Clusters/EDIP-Nigel-Params/with-SteepDescent/Only-C1/SD-CG/HFTN-CG
REM
REM
REM
REM
REM
REM ./C.cell (11c1c37f851c82e70ff6c80c92926a4b)
REM
REM compiler GCC version 9.2.1 20190827 (Red Hat 9.2.1-1)
REM options -cpp -mtune=generic -march=x86-64 -g -O0 -fpre-include=/usr/include/finclude/math-vector-fortran.h
REM seed 243063886 -1090720322 1950403275 721578177 -1984063525 1894702259 356962813 -985923721 1262295116 -1400724849 -1680313639 -1429055222 1141836838 -419356267 -1312451822 1753075127 -261671698 880863697 -420573292 349625737 -554073105 -1942798106 770419488 -1357682925 -1394974097 1567373732 1073577283 -6475645 -937020723 -196989978 -837463329 774309578 984319474
REM
CELL 1.54180   50.00000   50.00000   50.00000   90.00000   90.00000   90.00000
LATT -1
SFAC C  
C      1  0.5059800000000  0.4988750000000  0.5630730000000 1.0
C      1  0.4867630000000  0.4898690000000  0.5414920000000 1.0
C      1  0.5114470000000  0.5592810000000  0.5348480000000 1.0
C      1  0.4631170000000  0.5043170000000  0.5340770000000 1.0
C      1  0.5143830000000  0.4753750000000  0.4388060000000 1.0
C      1  0.4893090000000  0.4756370000000  0.5664180000000 1.0
C      1  0.5064930000000  0.5394220000000  0.4887740000000 1.0
C      1  0.4740440000000  0.5161740000000  0.4612630000000 1.0
C      1  0.4601510000000  0.5300340000000  0.5060710000000 1.0
C      1  0.4790970000000  0.5318180000000  0.4840720000000 1.0
C      1  0.5609830000000  0.4919150000000  0.5220350000000 1.0
C      1  0.5532770000000  0.5075980000000  0.5432420000000 1.0
C      1  0.4805410000000  0.4529610000000  0.4654560000000 1.0
C      1  0.4418050000000  0.4916700000000  0.5187030000000 1.0
C      1  0.4916540000000  0.4611980000000  0.4412440000000 1.0
C      1  0.4549260000000  0.4956570000000  0.4627510000000 1.0
C      1  0.5248550000000  0.5340500000000  0.4687980000000 1.0
C      1  0.4641560000000  0.4729110000000  0.4785980000000 1.0
C      1  0.4347950000000  0.5150680000000  0.5016520000000 1.0
C      1  0.5548420000000  0.4784100000000  0.4999990000000 1.0
C      1  0.5234860000000  0.4457870000000  0.4839210000000 1.0
C      1  0.5334690000000  0.4975530000000  0.5595650000000 1.0
C      1  0.5391910000000  0.5581170000000  0.5347070000000 1.0
C      1  0.4316350000000  0.5062110000000  0.4748000000000 1.0
C      1  0.5367900000000  0.5127380000000  0.4578810000000 1.0
C      1  0.4979460000000  0.4375240000000  0.4808860000000 1.0
C      1  0.5324910000000  0.4854430000000  0.4571910000000 1.0
C      1  0.4493620000000  0.4696030000000  0.5023380000000 1.0
C      1  0.5128860000000  0.5602470000000  0.5071710000000 1.0
C      1  0.5372390000000  0.4696980000000  0.4807890000000 1.0
C      1  0.5528900000000  0.5348390000000  0.5393790000000 1.0
END
