TITL C-951340-9809-78 -2.16781572789158e-06 125000 -820.827910667352 0 0 132 (C1) n - 1
REM
REM in /home/bkarasulu/work/CARBON/AIRSS/Generating-Clusters/EDIP-Nigel-Params/with-SteepDescent/Only-C1/SD-CG/HFTN-CG
REM
REM
REM
REM
REM
REM ./C.cell (11c1c37f851c82e70ff6c80c92926a4b)
REM
REM compiler GCC version 9.2.1 20190827 (Red Hat 9.2.1-1)
REM options -cpp -mtune=generic -march=x86-64 -g -O0 -fpre-include=/usr/include/finclude/math-vector-fortran.h
REM seed 30169011 -788331375 -1147012017 -925992796 610782825 -112928309 1415427534 77995729 1215446826 -1690283757 -249932832 1694119468 1151417484 633820297 -1849811485 -1449098895 1877787964 651388034 1466082602 -184420648 -19855489 -1415306058 -590451309 1253401374 -1817086595 1483190420 488151654 -208718666 2023011710 -747313086 1023773193 -1317880782 -560872970
REM
CELL 1.54180   50.00000   50.00000   50.00000   90.00000   90.00000   90.00000
LATT -1
SFAC C  
C      1  0.5926850000000  0.5469960000000  0.5215510000000 1.0
C      1  0.4012380000000  0.4928890000000  0.5085490000000 1.0
C      1  0.4357920000000  0.5028110000000  0.4814770000000 1.0
C      1  0.4837010000000  0.4142050000000  0.4452080000000 1.0
C      1  0.4996160000000  0.4696810000000  0.4665980000000 1.0
C      1  0.5533260000000  0.4568650000000  0.5474870000000 1.0
C      1  0.5144770000000  0.5363470000000  0.4921970000000 1.0
C      1  0.5185870000000  0.4101140000000  0.4801910000000 1.0
C      1  0.4714350000000  0.4974400000000  0.4152480000000 1.0
C      1  0.4276940000000  0.4480840000000  0.4532080000000 1.0
C      1  0.5132610000000  0.4847680000000  0.5901260000000 1.0
C      1  0.5674230000000  0.5524400000000  0.5384870000000 1.0
C      1  0.4390510000000  0.4552350000000  0.5015420000000 1.0
C      1  0.5586000000000  0.5812370000000  0.5288590000000 1.0
C      1  0.5311110000000  0.4199050000000  0.4329940000000 1.0
C      1  0.4661510000000  0.4506660000000  0.5172090000000 1.0
C      1  0.4157460000000  0.5161450000000  0.5525370000000 1.0
C      1  0.4972770000000  0.5088140000000  0.5931470000000 1.0
C      1  0.4838160000000  0.4432430000000  0.4203260000000 1.0
C      1  0.5097140000000  0.4561820000000  0.4116210000000 1.0
C      1  0.5709860000000  0.5157660000000  0.4367740000000 1.0
C      1  0.4224390000000  0.4795190000000  0.4928560000000 1.0
C      1  0.4679310000000  0.5475480000000  0.4521870000000 1.0
C      1  0.5675640000000  0.4299240000000  0.5006430000000 1.0
C      1  0.5352680000000  0.4462290000000  0.4217460000000 1.0
C      1  0.5347500000000  0.5516410000000  0.5054440000000 1.0
C      1  0.4899590000000  0.4137790000000  0.5385240000000 1.0
C      1  0.4717750000000  0.5484130000000  0.4218970000000 1.0
C      1  0.4706310000000  0.4694800000000  0.4607110000000 1.0
C      1  0.5201380000000  0.4975550000000  0.5323490000000 1.0
C      1  0.4055850000000  0.5415620000000  0.5086430000000 1.0
C      1  0.5197810000000  0.5285350000000  0.4056090000000 1.0
C      1  0.5432500000000  0.5379870000000  0.5284250000000 1.0
C      1  0.4770180000000  0.5727140000000  0.4633260000000 1.0
C      1  0.5561890000000  0.4944860000000  0.4210960000000 1.0
C      1  0.5677480000000  0.5621640000000  0.4532110000000 1.0
C      1  0.4888120000000  0.5480280000000  0.5033470000000 1.0
C      1  0.4460350000000  0.4556220000000  0.5766800000000 1.0
C      1  0.4712150000000  0.4065690000000  0.4925440000000 1.0
C      1  0.5023530000000  0.5182040000000  0.4486360000000 1.0
C      1  0.5393130000000  0.4176360000000  0.4613080000000 1.0
C      1  0.5270680000000  0.4132410000000  0.5076940000000 1.0
C      1  0.5013120000000  0.4796560000000  0.4944870000000 1.0
C      1  0.5375050000000  0.5484840000000  0.4177460000000 1.0
C      1  0.4149810000000  0.5174780000000  0.4638070000000 1.0
C      1  0.4606250000000  0.5400300000000  0.5569170000000 1.0
C      1  0.5576050000000  0.4643230000000  0.4311180000000 1.0
C      1  0.5074550000000  0.5916860000000  0.5396300000000 1.0
C      1  0.5711160000000  0.4566280000000  0.4569650000000 1.0
C      1  0.5487820000000  0.4998310000000  0.4878270000000 1.0
C      1  0.5224840000000  0.5247590000000  0.5469790000000 1.0
C      1  0.4278910000000  0.5075160000000  0.5779520000000 1.0
C      1  0.4407350000000  0.5392480000000  0.4252510000000 1.0
C      1  0.5303420000000  0.5007780000000  0.4061180000000 1.0
C      1  0.5680110000000  0.5350100000000  0.5650830000000 1.0
C      1  0.4766400000000  0.4957070000000  0.4985460000000 1.0
C      1  0.5029510000000  0.5836750000000  0.4566000000000 1.0
C      1  0.4175410000000  0.4917510000000  0.5354340000000 1.0
C      1  0.4909670000000  0.4137670000000  0.4729220000000 1.0
C      1  0.4920550000000  0.5255180000000  0.4197360000000 1.0
C      1  0.4251620000000  0.5611970000000  0.5044260000000 1.0
C      1  0.5345240000000  0.5970680000000  0.4888660000000 1.0
C      1  0.4441220000000  0.4125920000000  0.4837290000000 1.0
C      1  0.4618540000000  0.5686280000000  0.5419070000000 1.0
C      1  0.4381010000000  0.5741480000000  0.5264580000000 1.0
C      1  0.5509200000000  0.5759410000000  0.4993830000000 1.0
C      1  0.5991040000000  0.5203360000000  0.5069350000000 1.0
C      1  0.5117800000000  0.4302880000000  0.5271290000000 1.0
C      1  0.5660120000000  0.5018610000000  0.5370240000000 1.0
C      1  0.4975130000000  0.4788430000000  0.5405440000000 1.0
C      1  0.4494290000000  0.4900800000000  0.5265950000000 1.0
C      1  0.4565700000000  0.5858020000000  0.4778250000000 1.0
C      1  0.5727490000000  0.5686810000000  0.4799500000000 1.0
C      1  0.4358280000000  0.5642330000000  0.4777100000000 1.0
C      1  0.4859980000000  0.6023360000000  0.4950830000000 1.0
C      1  0.5196020000000  0.5378350000000  0.4623230000000 1.0
C      1  0.5607660000000  0.4342400000000  0.4724470000000 1.0
C      1  0.4429440000000  0.5097340000000  0.4199650000000 1.0
C      1  0.3967740000000  0.5192650000000  0.4933680000000 1.0
C      1  0.4760620000000  0.5241230000000  0.5144700000000 1.0
C      1  0.5841140000000  0.5075050000000  0.4622720000000 1.0
C      1  0.4903240000000  0.4168780000000  0.5664410000000 1.0
C      1  0.5967630000000  0.5561410000000  0.4911620000000 1.0
C      1  0.5440690000000  0.4899750000000  0.4579910000000 1.0
C      1  0.4661320000000  0.4204410000000  0.5206610000000 1.0
C      1  0.4307530000000  0.4109470000000  0.5102860000000 1.0
C      1  0.5213320000000  0.5037790000000  0.5009640000000 1.0
C      1  0.4728890000000  0.4935950000000  0.5468210000000 1.0
C      1  0.4257580000000  0.5448430000000  0.4548880000000 1.0
C      1  0.5890720000000  0.5154800000000  0.5651680000000 1.0
C      1  0.4781000000000  0.5217600000000  0.4629000000000 1.0
C      1  0.5104350000000  0.4360440000000  0.5728630000000 1.0
C      1  0.5295340000000  0.5397710000000  0.5937230000000 1.0
C      1  0.5354110000000  0.5913420000000  0.5408190000000 1.0
C      1  0.4982700000000  0.4612000000000  0.5811800000000 1.0
C      1  0.4445380000000  0.5224040000000  0.5136370000000 1.0
C      1  0.5866240000000  0.4872490000000  0.5655980000000 1.0
C      1  0.4251700000000  0.4936330000000  0.4359240000000 1.0
C      1  0.4636290000000  0.4976260000000  0.4723360000000 1.0
C      1  0.5139770000000  0.4890230000000  0.4491710000000 1.0
C      1  0.4864270000000  0.5716230000000  0.5246800000000 1.0
C      1  0.4933600000000  0.6098350000000  0.5217080000000 1.0
C      1  0.5446730000000  0.4824210000000  0.5344460000000 1.0
C      1  0.5043670000000  0.4107210000000  0.4264770000000 1.0
C      1  0.4354890000000  0.4663750000000  0.4336340000000 1.0
C      1  0.5864290000000  0.4745820000000  0.5022400000000 1.0
C      1  0.6014030000000  0.5266460000000  0.4771050000000 1.0
C      1  0.5752530000000  0.5015830000000  0.5083790000000 1.0
C      1  0.4711330000000  0.4587600000000  0.5878890000000 1.0
C      1  0.4459990000000  0.4421000000000  0.4745060000000 1.0
C      1  0.4657630000000  0.4682540000000  0.4307330000000 1.0
C      1  0.5083120000000  0.4843330000000  0.4184060000000 1.0
C      1  0.4713110000000  0.5142370000000  0.6022150000000 1.0
C      1  0.5624970000000  0.4726910000000  0.5736780000000 1.0
C      1  0.4515650000000  0.5252210000000  0.5842980000000 1.0
C      1  0.5094140000000  0.6021190000000  0.4777770000000 1.0
C      1  0.4238830000000  0.4442250000000  0.5470330000000 1.0
C      1  0.4223530000000  0.4370690000000  0.5188390000000 1.0
C      1  0.5617670000000  0.5434480000000  0.4331460000000 1.0
C      1  0.5542430000000  0.4086710000000  0.5128710000000 1.0
C      1  0.5058010000000  0.5323920000000  0.6050090000000 1.0
C      1  0.4252010000000  0.4762760000000  0.5782440000000 1.0
C      1  0.5297380000000  0.4372130000000  0.5504220000000 1.0
C      1  0.4834330000000  0.5218770000000  0.5442780000000 1.0
C      1  0.5407060000000  0.5230550000000  0.5730390000000 1.0
C      1  0.4335620000000  0.5353740000000  0.5391800000000 1.0
C      1  0.5844140000000  0.4782610000000  0.4717080000000 1.0
C      1  0.4951210000000  0.4589120000000  0.5181230000000 1.0
C      1  0.5234320000000  0.5640410000000  0.4499050000000 1.0
C      1  0.5408650000000  0.4928320000000  0.5823690000000 1.0
C      1  0.4107160000000  0.4687960000000  0.5537020000000 1.0
C      1  0.5731520000000  0.4526790000000  0.5176940000000 1.0
END
