TITL C-951341-1326-47 -5.71966278536885e-06 125000 -1010.5937641318 0 0 161 (C1) n - 1
REM
REM in /home/bkarasulu/work/CARBON/AIRSS/Generating-Clusters/EDIP-Nigel-Params/with-SteepDescent/Only-C1/SD-CG/HFTN-CG
REM
REM
REM
REM
REM
REM ./C.cell (11c1c37f851c82e70ff6c80c92926a4b)
REM
REM compiler GCC version 9.2.1 20190827 (Red Hat 9.2.1-1)
REM options -cpp -mtune=generic -march=x86-64 -g -O0 -fpre-include=/usr/include/finclude/math-vector-fortran.h
REM seed 591424086 1785546602 -1002482730 -2034347514 -1879509971 -2145725822 -721331550 1709092904 -1306018108 -330939051 1089965820 1010693567 -262181896 -1894768331 936302815 1485262700 -147455203 1003280109 1344561570 -1951983577 988467620 -1826329031 1544085620 -745337298 -1005300829 -2076190076 1494912035 32700977 1368023812 -761189984 -892555845 -2099110480 -273835147
REM
CELL 1.54180   50.00000   50.00000   50.00000   90.00000   90.00000   90.00000
LATT -1
SFAC C  
C      1  0.5337740000000  0.6097270000000  0.4395010000000 1.0
C      1  0.4369090000000  0.4801600000000  0.5907900000000 1.0
C      1  0.4588180000000  0.4830030000000  0.5122470000000 1.0
C      1  0.5736460000000  0.4443710000000  0.5377010000000 1.0
C      1  0.5129710000000  0.4140290000000  0.4518520000000 1.0
C      1  0.4401960000000  0.5126400000000  0.4260820000000 1.0
C      1  0.4301110000000  0.5321670000000  0.4823480000000 1.0
C      1  0.6047690000000  0.5101670000000  0.5165360000000 1.0
C      1  0.4687960000000  0.4439470000000  0.5814260000000 1.0
C      1  0.5926470000000  0.5238850000000  0.5644070000000 1.0
C      1  0.4832070000000  0.4431030000000  0.5179150000000 1.0
C      1  0.5872890000000  0.5029830000000  0.5820940000000 1.0
C      1  0.5047810000000  0.5786740000000  0.4155080000000 1.0
C      1  0.5980220000000  0.5248270000000  0.4653140000000 1.0
C      1  0.5001620000000  0.5072150000000  0.3905930000000 1.0
C      1  0.4736740000000  0.5850240000000  0.5437100000000 1.0
C      1  0.4717820000000  0.5166840000000  0.3902110000000 1.0
C      1  0.5847730000000  0.4778660000000  0.5693350000000 1.0
C      1  0.5456720000000  0.5589210000000  0.5505110000000 1.0
C      1  0.4840970000000  0.5277380000000  0.5593570000000 1.0
C      1  0.4309000000000  0.4036730000000  0.4942780000000 1.0
C      1  0.4158420000000  0.5353140000000  0.4560600000000 1.0
C      1  0.4971530000000  0.5602160000000  0.5068560000000 1.0
C      1  0.4897230000000  0.4839310000000  0.6051760000000 1.0
C      1  0.5429300000000  0.4838050000000  0.5943320000000 1.0
C      1  0.5684960000000  0.4428950000000  0.5072880000000 1.0
C      1  0.4490510000000  0.4991200000000  0.4020190000000 1.0
C      1  0.4197290000000  0.4220750000000  0.5116970000000 1.0
C      1  0.4390940000000  0.4693560000000  0.4349690000000 1.0
C      1  0.4629830000000  0.4953870000000  0.5953610000000 1.0
C      1  0.5467590000000  0.4841730000000  0.4176000000000 1.0
C      1  0.5272350000000  0.5279370000000  0.4772610000000 1.0
C      1  0.4247250000000  0.5810860000000  0.4964910000000 1.0
C      1  0.4770800000000  0.4058440000000  0.5222940000000 1.0
C      1  0.4757610000000  0.5340060000000  0.4509800000000 1.0
C      1  0.5207860000000  0.6008320000000  0.4631950000000 1.0
C      1  0.4715030000000  0.5433020000000  0.4033810000000 1.0
C      1  0.5691440000000  0.5247420000000  0.4264530000000 1.0
C      1  0.4616790000000  0.4618420000000  0.5329190000000 1.0
C      1  0.4571820000000  0.5620370000000  0.5507630000000 1.0
C      1  0.5202490000000  0.5737450000000  0.5519410000000 1.0
C      1  0.5748380000000  0.4782290000000  0.4143630000000 1.0
C      1  0.5160100000000  0.4975270000000  0.6007240000000 1.0
C      1  0.5194890000000  0.5280770000000  0.4012840000000 1.0
C      1  0.4452990000000  0.5883010000000  0.4787880000000 1.0
C      1  0.5064290000000  0.5758230000000  0.5774760000000 1.0
C      1  0.4546800000000  0.5381890000000  0.4285880000000 1.0
C      1  0.5190180000000  0.4015030000000  0.4766630000000 1.0
C      1  0.5062390000000  0.4904680000000  0.5245350000000 1.0
C      1  0.4498400000000  0.5082810000000  0.5248910000000 1.0
C      1  0.5981880000000  0.4971760000000  0.4545210000000 1.0
C      1  0.5398700000000  0.5151470000000  0.4223390000000 1.0
C      1  0.5018790000000  0.4335560000000  0.5468540000000 1.0
C      1  0.4367350000000  0.5218460000000  0.5699800000000 1.0
C      1  0.5570900000000  0.5903400000000  0.4966960000000 1.0
C      1  0.4729560000000  0.4488680000000  0.4841290000000 1.0
C      1  0.5692790000000  0.5669540000000  0.4515340000000 1.0
C      1  0.4808120000000  0.4678800000000  0.4192580000000 1.0
C      1  0.5056900000000  0.5324540000000  0.4994900000000 1.0
C      1  0.5227480000000  0.5122150000000  0.4514230000000 1.0
C      1  0.4869620000000  0.5860490000000  0.4385710000000 1.0
C      1  0.5581020000000  0.5492950000000  0.5754540000000 1.0
C      1  0.4214890000000  0.5139570000000  0.5247860000000 1.0
C      1  0.5290290000000  0.4717470000000  0.5205920000000 1.0
C      1  0.5506530000000  0.4400350000000  0.5582610000000 1.0
C      1  0.6006850000000  0.5284170000000  0.4938600000000 1.0
C      1  0.5226890000000  0.4592490000000  0.4651740000000 1.0
C      1  0.4096360000000  0.4501910000000  0.4592490000000 1.0
C      1  0.4602550000000  0.5921040000000  0.4329050000000 1.0
C      1  0.4799950000000  0.5718530000000  0.4861000000000 1.0
C      1  0.5293430000000  0.6041080000000  0.4918500000000 1.0
C      1  0.4780110000000  0.5424420000000  0.5846380000000 1.0
C      1  0.4157300000000  0.5098500000000  0.4966470000000 1.0
C      1  0.4542540000000  0.4021890000000  0.4793950000000 1.0
C      1  0.5036230000000  0.6041660000000  0.5093380000000 1.0
C      1  0.4407050000000  0.4535100000000  0.5794980000000 1.0
C      1  0.4782890000000  0.4223550000000  0.5636410000000 1.0
C      1  0.4365270000000  0.4319510000000  0.5348580000000 1.0
C      1  0.4671660000000  0.4815070000000  0.5590520000000 1.0
C      1  0.5438420000000  0.4619720000000  0.4972890000000 1.0
C      1  0.5331230000000  0.5857900000000  0.4234010000000 1.0
C      1  0.4748610000000  0.3911030000000  0.4975380000000 1.0
C      1  0.6002540000000  0.5303790000000  0.5380930000000 1.0
C      1  0.5722270000000  0.5827500000000  0.4746840000000 1.0
C      1  0.4808450000000  0.5175270000000  0.4947790000000 1.0
C      1  0.4941140000000  0.5101800000000  0.4451410000000 1.0
C      1  0.4407070000000  0.5818740000000  0.4499280000000 1.0
C      1  0.4537410000000  0.4898590000000  0.4615500000000 1.0
C      1  0.4372920000000  0.4417550000000  0.4476200000000 1.0
C      1  0.5596430000000  0.4320890000000  0.4453370000000 1.0
C      1  0.5470240000000  0.5205630000000  0.5183900000000 1.0
C      1  0.4999140000000  0.5495510000000  0.4101450000000 1.0
C      1  0.4995600000000  0.3842630000000  0.4863380000000 1.0
C      1  0.5657840000000  0.5057940000000  0.6022950000000 1.0
C      1  0.4851280000000  0.4212400000000  0.4436780000000 1.0
C      1  0.4130300000000  0.4787920000000  0.5490900000000 1.0
C      1  0.5482790000000  0.4007510000000  0.4813450000000 1.0
C      1  0.5012290000000  0.4797380000000  0.4005730000000 1.0
C      1  0.4491260000000  0.4708890000000  0.4864090000000 1.0
C      1  0.4557050000000  0.5255480000000  0.5955100000000 1.0
C      1  0.4797480000000  0.5849210000000  0.5723510000000 1.0
C      1  0.5103790000000  0.4593140000000  0.5618260000000 1.0
C      1  0.4248310000000  0.4516470000000  0.5546300000000 1.0
C      1  0.4938280000000  0.4654040000000  0.4690030000000 1.0
C      1  0.5822670000000  0.4753570000000  0.4698080000000 1.0
C      1  0.5941000000000  0.4825140000000  0.5183480000000 1.0
C      1  0.5402350000000  0.5670660000000  0.5010350000000 1.0
C      1  0.5157740000000  0.4430530000000  0.5968360000000 1.0
C      1  0.5015700000000  0.5472470000000  0.6020760000000 1.0
C      1  0.5854120000000  0.5499460000000  0.5216110000000 1.0
C      1  0.5120040000000  0.5303370000000  0.5494060000000 1.0
C      1  0.5298350000000  0.4198330000000  0.5484850000000 1.0
C      1  0.3815800000000  0.4867400000000  0.4743490000000 1.0
C      1  0.5420850000000  0.4525940000000  0.5906980000000 1.0
C      1  0.4186430000000  0.5434860000000  0.5285010000000 1.0
C      1  0.5485000000000  0.4911010000000  0.5643490000000 1.0
C      1  0.5868130000000  0.5007690000000  0.4268650000000 1.0
C      1  0.4203360000000  0.4660660000000  0.4921560000000 1.0
C      1  0.5507230000000  0.5150830000000  0.4898330000000 1.0
C      1  0.4532740000000  0.4707800000000  0.4089760000000 1.0
C      1  0.4920190000000  0.5639970000000  0.4595130000000 1.0
C      1  0.5398810000000  0.4063080000000  0.5268830000000 1.0
C      1  0.4321990000000  0.5550660000000  0.4397660000000 1.0
C      1  0.5195670000000  0.4420240000000  0.4167810000000 1.0
C      1  0.4298760000000  0.5548000000000  0.5032780000000 1.0
C      1  0.4899810000000  0.4391970000000  0.4203600000000 1.0
C      1  0.5572510000000  0.4127820000000  0.5062580000000 1.0
C      1  0.5002250000000  0.5807790000000  0.5290050000000 1.0
C      1  0.5370390000000  0.4669160000000  0.5489200000000 1.0
C      1  0.5301420000000  0.4370350000000  0.4443950000000 1.0
C      1  0.4796700000000  0.6010780000000  0.4914780000000 1.0
C      1  0.3936520000000  0.4865200000000  0.5276790000000 1.0
C      1  0.4186020000000  0.4962240000000  0.5727880000000 1.0
C      1  0.4170300000000  0.5066460000000  0.4438720000000 1.0
C      1  0.4814530000000  0.4830490000000  0.4482760000000 1.0
C      1  0.4314260000000  0.5488720000000  0.5546610000000 1.0
C      1  0.5762440000000  0.4535190000000  0.4518920000000 1.0
C      1  0.3896910000000  0.4972160000000  0.4993390000000 1.0
C      1  0.4596680000000  0.5203010000000  0.4737090000000 1.0
C      1  0.5177340000000  0.5184610000000  0.5234780000000 1.0
C      1  0.5639240000000  0.4091430000000  0.4597520000000 1.0
C      1  0.5212750000000  0.5261940000000  0.6071060000000 1.0
C      1  0.5412630000000  0.5642050000000  0.4422880000000 1.0
C      1  0.5549180000000  0.4862550000000  0.4791860000000 1.0
C      1  0.5345400000000  0.5200700000000  0.5676030000000 1.0
C      1  0.5230390000000  0.5702850000000  0.4663260000000 1.0
C      1  0.5364870000000  0.4845780000000  0.4554470000000 1.0
C      1  0.5891070000000  0.4680400000000  0.5430280000000 1.0
C      1  0.5269750000000  0.4672650000000  0.4034800000000 1.0
C      1  0.5510380000000  0.5326550000000  0.6005910000000 1.0
C      1  0.4852830000000  0.4908720000000  0.5040230000000 1.0
C      1  0.4595400000000  0.5103780000000  0.5520430000000 1.0
C      1  0.4955080000000  0.4826730000000  0.5522710000000 1.0
C      1  0.4018780000000  0.4814370000000  0.4551340000000 1.0
C      1  0.4584400000000  0.4126880000000  0.5435050000000 1.0
C      1  0.5771780000000  0.5392170000000  0.4503440000000 1.0
C      1  0.4617580000000  0.4276370000000  0.4633750000000 1.0
C      1  0.4063080000000  0.4418180000000  0.4965230000000 1.0
C      1  0.5552510000000  0.5493680000000  0.5231770000000 1.0
C      1  0.4896050000000  0.4549110000000  0.6000960000000 1.0
C      1  0.5916390000000  0.4635920000000  0.4959370000000 1.0
END
