TITL C-950531-5884-119 -7.96704963823995e-06 125000 -1136.08713590095 0 0 181 (C1) n - 1
REM
REM in /home/bkarasulu/work/CARBON/AIRSS/Generating-Clusters/EDIP-Nigel-Params/with-SteepDescent/Only-C1/SD-CG/HFTN-CG
REM
REM
REM
REM
REM
REM ./C.cell (11c1c37f851c82e70ff6c80c92926a4b)
REM
REM compiler GCC version 9.2.1 20190827 (Red Hat 9.2.1-1)
REM options -cpp -mtune=generic -march=x86-64 -g -O0 -fpre-include=/usr/include/finclude/math-vector-fortran.h
REM seed 1439915792 -1973575957 -721677797 1789316892 -403194412 -1740785794 1092593309 25045804 1280861083 908739086 2081859328 -1009892010 2048889204 834265660 78807707 764288779 613013774 317897221 1447880353 -1861618769 -1010045996 2128178029 -2088174755 609275652 1286570127 1545742967 -921493756 734566600 855191621 -1913418038 1540990891 1954004634 1944299812
REM
CELL 1.54180   50.00000   50.00000   50.00000   90.00000   90.00000   90.00000
LATT -1
SFAC C  
C      1  0.4640030000000  0.5067760000000  0.4365960000000 1.0
C      1  0.4606810000000  0.5120500000000  0.5977980000000 1.0
C      1  0.5680970000000  0.4415830000000  0.5252680000000 1.0
C      1  0.4577440000000  0.4788100000000  0.5541760000000 1.0
C      1  0.4857990000000  0.5523240000000  0.4934510000000 1.0
C      1  0.5319780000000  0.5552470000000  0.5483280000000 1.0
C      1  0.4246140000000  0.4905140000000  0.4251070000000 1.0
C      1  0.4172500000000  0.5387250000000  0.5232480000000 1.0
C      1  0.5368410000000  0.5975410000000  0.4572340000000 1.0
C      1  0.5055010000000  0.5309920000000  0.5912800000000 1.0
C      1  0.6018340000000  0.5086650000000  0.5287850000000 1.0
C      1  0.4823500000000  0.4768500000000  0.4865480000000 1.0
C      1  0.5391430000000  0.5512090000000  0.4373730000000 1.0
C      1  0.4759640000000  0.5363840000000  0.5899240000000 1.0
C      1  0.4117650000000  0.4879650000000  0.4518530000000 1.0
C      1  0.5507460000000  0.5219280000000  0.4290690000000 1.0
C      1  0.5092520000000  0.4892850000000  0.3986120000000 1.0
C      1  0.5633380000000  0.4154790000000  0.4473940000000 1.0
C      1  0.5403120000000  0.5429490000000  0.4807700000000 1.0
C      1  0.6156970000000  0.5184920000000  0.5044850000000 1.0
C      1  0.4676470000000  0.5853970000000  0.5700730000000 1.0
C      1  0.5498040000000  0.4561000000000  0.4593100000000 1.0
C      1  0.4602840000000  0.4124010000000  0.4490750000000 1.0
C      1  0.5599560000000  0.5211440000000  0.5211670000000 1.0
C      1  0.5367220000000  0.4035290000000  0.4432820000000 1.0
C      1  0.4341570000000  0.4313650000000  0.5640900000000 1.0
C      1  0.5012640000000  0.5255040000000  0.5358540000000 1.0
C      1  0.5355110000000  0.4952850000000  0.4408580000000 1.0
C      1  0.5266020000000  0.4584370000000  0.5876260000000 1.0
C      1  0.6036900000000  0.4532350000000  0.4595530000000 1.0
C      1  0.5570790000000  0.4843510000000  0.4713020000000 1.0
C      1  0.5626290000000  0.5650780000000  0.5512840000000 1.0
C      1  0.5875010000000  0.5809360000000  0.4804830000000 1.0
C      1  0.5031870000000  0.5301930000000  0.4218010000000 1.0
C      1  0.4710440000000  0.3869530000000  0.5205870000000 1.0
C      1  0.5058600000000  0.5720740000000  0.5021150000000 1.0
C      1  0.5535980000000  0.4628510000000  0.3910140000000 1.0
C      1  0.5235520000000  0.6159350000000  0.5305810000000 1.0
C      1  0.4192510000000  0.4353870000000  0.4680900000000 1.0
C      1  0.4433200000000  0.5402780000000  0.4163210000000 1.0
C      1  0.5085290000000  0.5023160000000  0.5823580000000 1.0
C      1  0.4379570000000  0.4664100000000  0.4121800000000 1.0
C      1  0.4329460000000  0.4244040000000  0.4447100000000 1.0
C      1  0.4063970000000  0.5133950000000  0.4666660000000 1.0
C      1  0.5789390000000  0.4661020000000  0.5389610000000 1.0
C      1  0.4369800000000  0.5477180000000  0.5619900000000 1.0
C      1  0.5272920000000  0.4744910000000  0.4169270000000 1.0
C      1  0.5669700000000  0.5349900000000  0.4920660000000 1.0
C      1  0.4639030000000  0.5558760000000  0.5130740000000 1.0
C      1  0.4616450000000  0.4535150000000  0.4887590000000 1.0
C      1  0.4930380000000  0.4250190000000  0.5159040000000 1.0
C      1  0.3896150000000  0.5123950000000  0.4893280000000 1.0
C      1  0.4736250000000  0.4867400000000  0.6048800000000 1.0
C      1  0.5499140000000  0.5001510000000  0.6032400000000 1.0
C      1  0.4180000000000  0.5641420000000  0.4530820000000 1.0
C      1  0.5840600000000  0.4868410000000  0.4260140000000 1.0
C      1  0.4419590000000  0.5593570000000  0.4380700000000 1.0
C      1  0.5305140000000  0.3977050000000  0.5319260000000 1.0
C      1  0.4938260000000  0.5249860000000  0.4922640000000 1.0
C      1  0.4869510000000  0.5021640000000  0.5293650000000 1.0
C      1  0.5064800000000  0.5959400000000  0.4588790000000 1.0
C      1  0.5733550000000  0.5983730000000  0.5230210000000 1.0
C      1  0.4077040000000  0.4627770000000  0.4671560000000 1.0
C      1  0.5674710000000  0.4727530000000  0.5650480000000 1.0
C      1  0.5299440000000  0.4766020000000  0.5163960000000 1.0
C      1  0.3957420000000  0.4851770000000  0.5373330000000 1.0
C      1  0.5809120000000  0.4887580000000  0.5203810000000 1.0
C      1  0.5337480000000  0.5678300000000  0.4948280000000 1.0
C      1  0.5647670000000  0.4434310000000  0.4349230000000 1.0
C      1  0.4564200000000  0.5173410000000  0.4626420000000 1.0
C      1  0.5702600000000  0.5788720000000  0.5760000000000 1.0
C      1  0.4646900000000  0.5758510000000  0.4462920000000 1.0
C      1  0.5433300000000  0.5246110000000  0.6158220000000 1.0
C      1  0.5577370000000  0.4290960000000  0.4765100000000 1.0
C      1  0.4785170000000  0.4403060000000  0.5825780000000 1.0
C      1  0.5872310000000  0.5583730000000  0.5004420000000 1.0
C      1  0.5662370000000  0.4876120000000  0.4013880000000 1.0
C      1  0.5905590000000  0.4580790000000  0.4350690000000 1.0
C      1  0.5391890000000  0.4475570000000  0.5196280000000 1.0
C      1  0.4613720000000  0.4616460000000  0.5961780000000 1.0
C      1  0.5787140000000  0.5754030000000  0.4545050000000 1.0
C      1  0.4685990000000  0.5992560000000  0.5411750000000 1.0
C      1  0.4829020000000  0.5502040000000  0.5391780000000 1.0
C      1  0.5170310000000  0.5324390000000  0.6182580000000 1.0
C      1  0.5015270000000  0.4759010000000  0.5257390000000 1.0
C      1  0.5715480000000  0.6020510000000  0.4937210000000 1.0
C      1  0.4244220000000  0.5858550000000  0.4705520000000 1.0
C      1  0.4526790000000  0.5917640000000  0.4677460000000 1.0
C      1  0.5191130000000  0.5194500000000  0.4780630000000 1.0
C      1  0.5244490000000  0.4855310000000  0.5999710000000 1.0
C      1  0.5846770000000  0.4814610000000  0.4909690000000 1.0
C      1  0.4779130000000  0.5275150000000  0.3856650000000 1.0
C      1  0.5781210000000  0.5214210000000  0.5675480000000 1.0
C      1  0.5152660000000  0.3940130000000  0.5556750000000 1.0
C      1  0.4158830000000  0.4537820000000  0.5143520000000 1.0
C      1  0.5798290000000  0.4347530000000  0.4974190000000 1.0
C      1  0.5759440000000  0.5114990000000  0.4423490000000 1.0
C      1  0.4098020000000  0.4250640000000  0.5189110000000 1.0
C      1  0.5235830000000  0.5114820000000  0.3877110000000 1.0
C      1  0.4811100000000  0.4388590000000  0.4093870000000 1.0
C      1  0.5975840000000  0.4552210000000  0.4866720000000 1.0
C      1  0.5062500000000  0.5710420000000  0.5332820000000 1.0
C      1  0.4661880000000  0.4632210000000  0.4018490000000 1.0
C      1  0.5003750000000  0.5988750000000  0.5435970000000 1.0
C      1  0.5105460000000  0.4724960000000  0.4768780000000 1.0
C      1  0.5072370000000  0.4344620000000  0.5883930000000 1.0
C      1  0.4309050000000  0.4420520000000  0.4233540000000 1.0
C      1  0.6134290000000  0.5465050000000  0.5015670000000 1.0
C      1  0.5092250000000  0.4298850000000  0.4480200000000 1.0
C      1  0.5116460000000  0.5563200000000  0.4303430000000 1.0
C      1  0.4292440000000  0.5230900000000  0.5459590000000 1.0
C      1  0.4871800000000  0.4838060000000  0.5690400000000 1.0
C      1  0.4849550000000  0.4431940000000  0.5387970000000 1.0
C      1  0.5217450000000  0.6161300000000  0.5010390000000 1.0
C      1  0.4141890000000  0.4163550000000  0.4900630000000 1.0
C      1  0.3989550000000  0.4667560000000  0.4942370000000 1.0
C      1  0.5208150000000  0.5526890000000  0.5763160000000 1.0
C      1  0.5338460000000  0.4143350000000  0.4870030000000 1.0
C      1  0.6035420000000  0.5033900000000  0.4816090000000 1.0
C      1  0.4659590000000  0.5546790000000  0.5666590000000 1.0
C      1  0.4715020000000  0.5291700000000  0.4155640000000 1.0
C      1  0.4265820000000  0.5173330000000  0.4155570000000 1.0
C      1  0.5045770000000  0.4630770000000  0.5554040000000 1.0
C      1  0.4801360000000  0.4342920000000  0.4393460000000 1.0
C      1  0.5214990000000  0.3986110000000  0.4669500000000 1.0
C      1  0.5678620000000  0.4178460000000  0.5445300000000 1.0
C      1  0.4757950000000  0.4276800000000  0.4919330000000 1.0
C      1  0.3930230000000  0.4569800000000  0.5453700000000 1.0
C      1  0.5831230000000  0.5282840000000  0.5408090000000 1.0
C      1  0.4263630000000  0.5872780000000  0.5192760000000 1.0
C      1  0.4599640000000  0.4063150000000  0.5386220000000 1.0
C      1  0.4172310000000  0.5651860000000  0.5363450000000 1.0
C      1  0.5532210000000  0.5763920000000  0.4430020000000 1.0
C      1  0.4195870000000  0.4910740000000  0.5818090000000 1.0
C      1  0.4383430000000  0.5359030000000  0.5024040000000 1.0
C      1  0.4124030000000  0.5900390000000  0.4952440000000 1.0
C      1  0.5318740000000  0.5284210000000  0.5349450000000 1.0
C      1  0.5094860000000  0.5094170000000  0.4467250000000 1.0
C      1  0.5500950000000  0.6061060000000  0.5401330000000 1.0
C      1  0.5510840000000  0.5142780000000  0.3993620000000 1.0
C      1  0.3938460000000  0.4916630000000  0.5076120000000 1.0
C      1  0.5659240000000  0.4988230000000  0.5782290000000 1.0
C      1  0.5064190000000  0.5338290000000  0.3835570000000 1.0
C      1  0.4626820000000  0.4198560000000  0.5685010000000 1.0
C      1  0.4563490000000  0.5048410000000  0.5350030000000 1.0
C      1  0.5312940000000  0.4905610000000  0.4881300000000 1.0
C      1  0.4088650000000  0.5033020000000  0.5570090000000 1.0
C      1  0.5207300000000  0.4561250000000  0.4552080000000 1.0
C      1  0.4698260000000  0.5035300000000  0.3734490000000 1.0
C      1  0.4387840000000  0.4677740000000  0.5760570000000 1.0
C      1  0.4767130000000  0.3813380000000  0.4938530000000 1.0
C      1  0.5532270000000  0.5989520000000  0.5677560000000 1.0
C      1  0.5537460000000  0.4516430000000  0.5790890000000 1.0
C      1  0.4713110000000  0.4614670000000  0.4527470000000 1.0
C      1  0.5831030000000  0.5201430000000  0.4695080000000 1.0
C      1  0.4495760000000  0.5086460000000  0.5065160000000 1.0
C      1  0.5232140000000  0.4211570000000  0.5139030000000 1.0
C      1  0.4562620000000  0.5865360000000  0.5164580000000 1.0
C      1  0.4823890000000  0.4834610000000  0.3882380000000 1.0
C      1  0.4561000000000  0.4523870000000  0.5394700000000 1.0
C      1  0.5810060000000  0.5706510000000  0.5275880000000 1.0
C      1  0.4628410000000  0.4033680000000  0.4794040000000 1.0
C      1  0.4671360000000  0.6010580000000  0.4917330000000 1.0
C      1  0.5328190000000  0.4460570000000  0.4045330000000 1.0
C      1  0.5069110000000  0.4368250000000  0.3979770000000 1.0
C      1  0.5583510000000  0.3934510000000  0.5339680000000 1.0
C      1  0.4300330000000  0.5323480000000  0.4701520000000 1.0
C      1  0.4853230000000  0.4885880000000  0.4442580000000 1.0
C      1  0.4711570000000  0.5061500000000  0.4863880000000 1.0
C      1  0.5429750000000  0.5966160000000  0.4870170000000 1.0
C      1  0.4355660000000  0.3991210000000  0.4880160000000 1.0
C      1  0.4449510000000  0.4591620000000  0.5132910000000 1.0
C      1  0.4968220000000  0.5958780000000  0.5749290000000 1.0
C      1  0.4309160000000  0.4155440000000  0.5381850000000 1.0
C      1  0.4977840000000  0.5992550000000  0.4885810000000 1.0
C      1  0.3847280000000  0.4316370000000  0.5341560000000 1.0
C      1  0.4939160000000  0.5741430000000  0.4450170000000 1.0
C      1  0.5135690000000  0.5772560000000  0.5866810000000 1.0
C      1  0.5513510000000  0.4250210000000  0.5681960000000 1.0
C      1  0.5236860000000  0.4152350000000  0.5720520000000 1.0
C      1  0.4328330000000  0.5108100000000  0.5966430000000 1.0
END
