TITL C-951343-2256-477 -8.56087920440315e-07 125000 -311.426820688089 0 0 52 (C1) n - 1
REM
REM in /home/bkarasulu/work/CARBON/AIRSS/Generating-Clusters/EDIP-Nigel-Params/with-SteepDescent/Only-C1/SD-CG/HFTN-CG
REM
REM
REM
REM
REM
REM ./C.cell (11c1c37f851c82e70ff6c80c92926a4b)
REM
REM compiler GCC version 9.2.1 20190827 (Red Hat 9.2.1-1)
REM options -cpp -mtune=generic -march=x86-64 -g -O0 -fpre-include=/usr/include/finclude/math-vector-fortran.h
REM seed -998023312 151920077 258713474 -10434948 -1126689934 1306742320 -1959235497 1301405470 328153009 2112589316 696804763 -611732681 -81984470 -232599361 -2052254157 -915326309 -126716204 -871873464 717799219 -1709349383 -1590838827 -25912760 -501738275 69828232 -114730643 -773302574 -2022333676 -1322640840 -298977708 4176014 -1701527371 1032285299 792553189
REM
CELL 1.54180   50.00000   50.00000   50.00000   90.00000   90.00000   90.00000
LATT -1
SFAC C  
C      1  0.4788210000000  0.4460340000000  0.5695340000000 1.0
C      1  0.5428440000000  0.4408450000000  0.4807050000000 1.0
C      1  0.5028800000000  0.5770320000000  0.5177290000000 1.0
C      1  0.4555010000000  0.4624920000000  0.5010710000000 1.0
C      1  0.5107650000000  0.5532540000000  0.5538380000000 1.0
C      1  0.5105510000000  0.5247020000000  0.5578360000000 1.0
C      1  0.4437190000000  0.5152230000000  0.4960040000000 1.0
C      1  0.5050520000000  0.4559550000000  0.5652190000000 1.0
C      1  0.5350910000000  0.5364270000000  0.4860970000000 1.0
C      1  0.4517630000000  0.5395680000000  0.5085450000000 1.0
C      1  0.5066730000000  0.4695710000000  0.4220880000000 1.0
C      1  0.5296470000000  0.5677290000000  0.5246690000000 1.0
C      1  0.4577490000000  0.5000590000000  0.4445810000000 1.0
C      1  0.5261270000000  0.4894470000000  0.4998090000000 1.0
C      1  0.4994600000000  0.5177110000000  0.4222470000000 1.0
C      1  0.5370680000000  0.5017280000000  0.4463010000000 1.0
C      1  0.4554630000000  0.4915900000000  0.5113060000000 1.0
C      1  0.4961760000000  0.5665580000000  0.4932780000000 1.0
C      1  0.4778660000000  0.4824850000000  0.5573130000000 1.0
C      1  0.4730370000000  0.4519320000000  0.4551080000000 1.0
C      1  0.5445720000000  0.5015310000000  0.5421930000000 1.0
C      1  0.4964080000000  0.5207280000000  0.5166820000000 1.0
C      1  0.4857460000000  0.5113880000000  0.5664280000000 1.0
C      1  0.5559650000000  0.4829740000000  0.4543840000000 1.0
C      1  0.4970430000000  0.4366060000000  0.4913030000000 1.0
C      1  0.4730810000000  0.5377600000000  0.5286880000000 1.0
C      1  0.5599670000000  0.5150660000000  0.5231780000000 1.0
C      1  0.4711800000000  0.5116480000000  0.4219530000000 1.0
C      1  0.4616040000000  0.5225450000000  0.5516740000000 1.0
C      1  0.5446630000000  0.5594280000000  0.5018290000000 1.0
C      1  0.5559920000000  0.4588740000000  0.4659900000000 1.0
C      1  0.5050560000000  0.5388790000000  0.4914370000000 1.0
C      1  0.5089670000000  0.5381660000000  0.4427430000000 1.0
C      1  0.5269240000000  0.4437300000000  0.5247740000000 1.0
C      1  0.4468940000000  0.5149610000000  0.4671410000000 1.0
C      1  0.5194490000000  0.4921020000000  0.5295850000000 1.0
C      1  0.4923210000000  0.5320970000000  0.4657650000000 1.0
C      1  0.4618680000000  0.4420220000000  0.5481870000000 1.0
C      1  0.4874290000000  0.5632900000000  0.5387900000000 1.0
C      1  0.4842560000000  0.5043640000000  0.4619730000000 1.0
C      1  0.4876170000000  0.4541090000000  0.4327260000000 1.0
C      1  0.5174310000000  0.4949700000000  0.4260660000000 1.0
C      1  0.4797340000000  0.4575350000000  0.4823890000000 1.0
C      1  0.5133960000000  0.4635540000000  0.5389160000000 1.0
C      1  0.5234120000000  0.4339660000000  0.4992050000000 1.0
C      1  0.4955670000000  0.4843990000000  0.4831330000000 1.0
C      1  0.5456040000000  0.5117050000000  0.4989980000000 1.0
C      1  0.5355660000000  0.5303770000000  0.4548230000000 1.0
C      1  0.4540290000000  0.4452180000000  0.5227440000000 1.0
C      1  0.5357500000000  0.5142650000000  0.5654880000000 1.0
C      1  0.4830780000000  0.4970930000000  0.5058380000000 1.0
C      1  0.4531770000000  0.4943110000000  0.5416980000000 1.0
END
