TITL C-950532-2784-653 -2.61695958108254e-06 125000 -1224.87691246005 0 0 193 (C1) n - 1
REM
REM in /home/bkarasulu/work/CARBON/AIRSS/Generating-Clusters/EDIP-Nigel-Params/with-SteepDescent/Only-C1/SD-CG/HFTN-CG
REM
REM
REM
REM
REM
REM ./C.cell (11c1c37f851c82e70ff6c80c92926a4b)
REM
REM compiler GCC version 9.2.1 20190827 (Red Hat 9.2.1-1)
REM options -cpp -mtune=generic -march=x86-64 -g -O0 -fpre-include=/usr/include/finclude/math-vector-fortran.h
REM seed -1719938192 -1114231458 2015340462 -1258182270 -189331866 -386363294 -2044238552 265801450 -463586461 668918641 -1893796203 -833691070 1362541652 273036235 -883769915 -1253826769 -452025605 443226741 70206987 -1254485083 1862521786 -271336083 -1943543624 2096862201 1355840545 -1255311612 1005288091 -1253631422 -1365429416 -978160720 -1273611446 -1026246230 -435719305
REM
CELL 1.54180   50.00000   50.00000   50.00000   90.00000   90.00000   90.00000
LATT -1
SFAC C  
C      1  0.5819260000000  0.5161160000000  0.5639290000000 1.0
C      1  0.5416660000000  0.4876840000000  0.4589130000000 1.0
C      1  0.4355680000000  0.3984010000000  0.4537660000000 1.0
C      1  0.4983960000000  0.5014750000000  0.6037830000000 1.0
C      1  0.5898900000000  0.4395260000000  0.4908030000000 1.0
C      1  0.4237220000000  0.5334400000000  0.4335070000000 1.0
C      1  0.5799850000000  0.4986630000000  0.5891210000000 1.0
C      1  0.4889350000000  0.3963840000000  0.5476560000000 1.0
C      1  0.5582640000000  0.5769390000000  0.5216290000000 1.0
C      1  0.6054380000000  0.5044730000000  0.5481390000000 1.0
C      1  0.5154760000000  0.5193250000000  0.5144060000000 1.0
C      1  0.5215570000000  0.4792510000000  0.3907160000000 1.0
C      1  0.5615260000000  0.5702590000000  0.4398000000000 1.0
C      1  0.5342740000000  0.3897670000000  0.4843010000000 1.0
C      1  0.4330200000000  0.4783540000000  0.4087390000000 1.0
C      1  0.5890450000000  0.4716460000000  0.5801540000000 1.0
C      1  0.4980730000000  0.5049720000000  0.4709240000000 1.0
C      1  0.5925210000000  0.5416100000000  0.4821830000000 1.0
C      1  0.4898940000000  0.4077030000000  0.4490710000000 1.0
C      1  0.5416260000000  0.5133640000000  0.6171760000000 1.0
C      1  0.5988920000000  0.4766050000000  0.4339880000000 1.0
C      1  0.4406490000000  0.5840200000000  0.4564430000000 1.0
C      1  0.4248850000000  0.4468370000000  0.5478240000000 1.0
C      1  0.5228400000000  0.4114760000000  0.5798960000000 1.0
C      1  0.5566850000000  0.5129400000000  0.5462220000000 1.0
C      1  0.4550620000000  0.4358480000000  0.4274350000000 1.0
C      1  0.4786770000000  0.5124270000000  0.5447370000000 1.0
C      1  0.4229780000000  0.5070660000000  0.5921040000000 1.0
C      1  0.4795680000000  0.5455260000000  0.4041460000000 1.0
C      1  0.5860500000000  0.5793790000000  0.5099290000000 1.0
C      1  0.6098830000000  0.5244710000000  0.4640720000000 1.0
C      1  0.4542830000000  0.4725020000000  0.5812150000000 1.0
C      1  0.6049270000000  0.4756750000000  0.5548630000000 1.0
C      1  0.6208230000000  0.4786700000000  0.4512490000000 1.0
C      1  0.4317580000000  0.5182570000000  0.5290720000000 1.0
C      1  0.5673880000000  0.5345630000000  0.4659460000000 1.0
C      1  0.4886980000000  0.5080480000000  0.5168300000000 1.0
C      1  0.6127720000000  0.4962560000000  0.4713770000000 1.0
C      1  0.4982070000000  0.5647510000000  0.5282280000000 1.0
C      1  0.5246310000000  0.4799250000000  0.5651880000000 1.0
C      1  0.5496900000000  0.4403380000000  0.4735910000000 1.0
C      1  0.5310040000000  0.4245400000000  0.4528160000000 1.0
C      1  0.5725210000000  0.4111800000000  0.4606730000000 1.0
C      1  0.3831940000000  0.4846590000000  0.4843070000000 1.0
C      1  0.5118620000000  0.5282420000000  0.4344700000000 1.0
C      1  0.4742800000000  0.4664760000000  0.3883870000000 1.0
C      1  0.4833780000000  0.4810220000000  0.4228150000000 1.0
C      1  0.4334650000000  0.5339780000000  0.5864130000000 1.0
C      1  0.5144730000000  0.4811240000000  0.4661470000000 1.0
C      1  0.4862690000000  0.4685320000000  0.5461340000000 1.0
C      1  0.4004730000000  0.4350150000000  0.4846260000000 1.0
C      1  0.5246960000000  0.3942070000000  0.4566020000000 1.0
C      1  0.5362100000000  0.5702570000000  0.4243220000000 1.0
C      1  0.4339760000000  0.5413210000000  0.4757740000000 1.0
C      1  0.5153390000000  0.5216190000000  0.6184660000000 1.0
C      1  0.3822650000000  0.4719360000000  0.4566950000000 1.0
C      1  0.5239320000000  0.4547680000000  0.6066440000000 1.0
C      1  0.5629250000000  0.4000440000000  0.4852230000000 1.0
C      1  0.4061060000000  0.4873120000000  0.5462150000000 1.0
C      1  0.4001170000000  0.5108710000000  0.4793750000000 1.0
C      1  0.3936960000000  0.5228170000000  0.5229090000000 1.0
C      1  0.5606840000000  0.5809070000000  0.5524100000000 1.0
C      1  0.5087620000000  0.4296850000000  0.4943830000000 1.0
C      1  0.5463230000000  0.6207460000000  0.5277950000000 1.0
C      1  0.5021960000000  0.4986140000000  0.4042310000000 1.0
C      1  0.4953670000000  0.6171220000000  0.5454730000000 1.0
C      1  0.4521150000000  0.4486410000000  0.4571320000000 1.0
C      1  0.5302610000000  0.5419310000000  0.4137910000000 1.0
C      1  0.5541540000000  0.4938560000000  0.6015920000000 1.0
C      1  0.4824490000000  0.5322160000000  0.4304150000000 1.0
C      1  0.4532550000000  0.5393830000000  0.5208580000000 1.0
C      1  0.4003220000000  0.4619720000000  0.5014340000000 1.0
C      1  0.5094430000000  0.5515020000000  0.4816570000000 1.0
C      1  0.4072660000000  0.5588400000000  0.5533040000000 1.0
C      1  0.5610300000000  0.5260890000000  0.5188480000000 1.0
C      1  0.4515810000000  0.4563770000000  0.4056550000000 1.0
C      1  0.5041530000000  0.4329270000000  0.4632740000000 1.0
C      1  0.4850800000000  0.5766330000000  0.4270620000000 1.0
C      1  0.4719020000000  0.4682380000000  0.4681180000000 1.0
C      1  0.4061560000000  0.4778140000000  0.4159470000000 1.0
C      1  0.5169330000000  0.5275720000000  0.4647050000000 1.0
C      1  0.4268690000000  0.4722650000000  0.4909160000000 1.0
C      1  0.5522700000000  0.5558070000000  0.5704710000000 1.0
C      1  0.4878170000000  0.6080150000000  0.4671140000000 1.0
C      1  0.4066820000000  0.4916120000000  0.5743240000000 1.0
C      1  0.4655620000000  0.5793900000000  0.4964270000000 1.0
C      1  0.5609320000000  0.4666270000000  0.4634130000000 1.0
C      1  0.4404340000000  0.5254470000000  0.4117740000000 1.0
C      1  0.5459210000000  0.5514160000000  0.5163230000000 1.0
C      1  0.5168440000000  0.5481290000000  0.5103540000000 1.0
C      1  0.5679540000000  0.5420560000000  0.4374230000000 1.0
C      1  0.4691910000000  0.5275980000000  0.4997080000000 1.0
C      1  0.5606910000000  0.5783810000000  0.4681040000000 1.0
C      1  0.5223710000000  0.4275040000000  0.6012720000000 1.0
C      1  0.4474500000000  0.4930980000000  0.6009280000000 1.0
C      1  0.4493760000000  0.5764610000000  0.5723820000000 1.0
C      1  0.5164660000000  0.6053920000000  0.5625510000000 1.0
C      1  0.4796020000000  0.6062080000000  0.4952050000000 1.0
C      1  0.4480190000000  0.5822860000000  0.5425010000000 1.0
C      1  0.3960660000000  0.5365080000000  0.4976760000000 1.0
C      1  0.5141620000000  0.5057250000000  0.5771530000000 1.0
C      1  0.6078430000000  0.5101110000000  0.5191670000000 1.0
C      1  0.5438630000000  0.5145210000000  0.4725650000000 1.0
C      1  0.5056540000000  0.4393150000000  0.4152560000000 1.0
C      1  0.4689850000000  0.4977020000000  0.3826360000000 1.0
C      1  0.3921160000000  0.4911500000000  0.4361080000000 1.0
C      1  0.4067410000000  0.4304440000000  0.4345900000000 1.0
C      1  0.5876890000000  0.5014460000000  0.4238800000000 1.0
C      1  0.4236860000000  0.4152840000000  0.4869460000000 1.0
C      1  0.5807760000000  0.5461320000000  0.5708720000000 1.0
C      1  0.5404580000000  0.5976840000000  0.4785830000000 1.0
C      1  0.4368670000000  0.4209010000000  0.5411510000000 1.0
C      1  0.5723230000000  0.4199170000000  0.5052150000000 1.0
C      1  0.5502720000000  0.5250100000000  0.4013350000000 1.0
C      1  0.5416170000000  0.5077610000000  0.5024440000000 1.0
C      1  0.5646530000000  0.4541400000000  0.5750040000000 1.0
C      1  0.4593080000000  0.5379660000000  0.5972350000000 1.0
C      1  0.4904490000000  0.6231190000000  0.5172880000000 1.0
C      1  0.4651040000000  0.4003290000000  0.4644500000000 1.0
C      1  0.4279690000000  0.4624650000000  0.4625140000000 1.0
C      1  0.5265490000000  0.4752110000000  0.5137950000000 1.0
C      1  0.4901980000000  0.3899910000000  0.5173290000000 1.0
C      1  0.4241510000000  0.5602680000000  0.5774270000000 1.0
C      1  0.4684420000000  0.5944860000000  0.4471400000000 1.0
C      1  0.5905030000000  0.4600100000000  0.5349170000000 1.0
C      1  0.5621990000000  0.4546350000000  0.5443440000000 1.0
C      1  0.4698460000000  0.5117140000000  0.6026240000000 1.0
C      1  0.5325050000000  0.4086650000000  0.5312390000000 1.0
C      1  0.4968500000000  0.4626000000000  0.4517970000000 1.0
C      1  0.4771460000000  0.4547730000000  0.5902890000000 1.0
C      1  0.5104720000000  0.5901400000000  0.5852740000000 1.0
C      1  0.4646250000000  0.4868580000000  0.5545910000000 1.0
C      1  0.4869870000000  0.4446510000000  0.5640530000000 1.0
C      1  0.4648820000000  0.4156620000000  0.5536380000000 1.0
C      1  0.4474300000000  0.4676710000000  0.5108100000000 1.0
C      1  0.4686000000000  0.4994800000000  0.4625650000000 1.0
C      1  0.5141180000000  0.4108380000000  0.5535800000000 1.0
C      1  0.5505620000000  0.4310280000000  0.5229940000000 1.0
C      1  0.4799590000000  0.5529430000000  0.4812410000000 1.0
C      1  0.5130300000000  0.5836060000000  0.4360060000000 1.0
C      1  0.4720950000000  0.5607510000000  0.5851560000000 1.0
C      1  0.4670880000000  0.5667440000000  0.5245260000000 1.0
C      1  0.5417350000000  0.4698340000000  0.5878840000000 1.0
C      1  0.4203140000000  0.5587990000000  0.4987550000000 1.0
C      1  0.4518990000000  0.4255200000000  0.4765440000000 1.0
C      1  0.5910840000000  0.5333110000000  0.5118540000000 1.0
C      1  0.4832410000000  0.4360910000000  0.5053570000000 1.0
C      1  0.4666570000000  0.5053120000000  0.4326110000000 1.0
C      1  0.4977960000000  0.4690790000000  0.6076810000000 1.0
C      1  0.4691470000000  0.4116680000000  0.5135910000000 1.0
C      1  0.4014350000000  0.5312500000000  0.5484500000000 1.0
C      1  0.4407060000000  0.4862370000000  0.5346630000000 1.0
C      1  0.5165380000000  0.4020420000000  0.5064780000000 1.0
C      1  0.4311020000000  0.4078340000000  0.5152700000000 1.0
C      1  0.4700070000000  0.5507940000000  0.4514740000000 1.0
C      1  0.4947570000000  0.4778210000000  0.5177920000000 1.0
C      1  0.4489830000000  0.5156240000000  0.4810790000000 1.0
C      1  0.5477860000000  0.4763750000000  0.4045630000000 1.0
C      1  0.4372260000000  0.5839270000000  0.4863480000000 1.0
C      1  0.5155880000000  0.5986570000000  0.4610650000000 1.0
C      1  0.5102230000000  0.5484170000000  0.6112950000000 1.0
C      1  0.5327890000000  0.4336470000000  0.4247250000000 1.0
C      1  0.4254980000000  0.5007800000000  0.4910770000000 1.0
C      1  0.5339030000000  0.4463670000000  0.5017240000000 1.0
C      1  0.5954680000000  0.5644730000000  0.5540370000000 1.0
C      1  0.4039970000000  0.4612330000000  0.5329720000000 1.0
C      1  0.6108990000000  0.4882420000000  0.4994790000000 1.0
C      1  0.5904280000000  0.4335580000000  0.4605000000000 1.0
C      1  0.4885380000000  0.5220000000000  0.3874880000000 1.0
C      1  0.4025680000000  0.4485210000000  0.4572960000000 1.0
C      1  0.5948070000000  0.5274740000000  0.4372020000000 1.0
C      1  0.6004450000000  0.5591790000000  0.5259690000000 1.0
C      1  0.5391330000000  0.5979490000000  0.5104330000000 1.0
C      1  0.5027860000000  0.4560820000000  0.3919970000000 1.0
C      1  0.4995100000000  0.5239570000000  0.5599560000000 1.0
C      1  0.4425450000000  0.5021650000000  0.3958780000000 1.0
C      1  0.5634400000000  0.5008380000000  0.4073060000000 1.0
C      1  0.4827140000000  0.4228000000000  0.4242850000000 1.0
C      1  0.4310710000000  0.4166990000000  0.4306910000000 1.0
C      1  0.4216590000000  0.5723790000000  0.5315360000000 1.0
C      1  0.4310670000000  0.4568840000000  0.5734720000000 1.0
C      1  0.5862620000000  0.5717070000000  0.4817050000000 1.0
C      1  0.5108710000000  0.5911420000000  0.5215790000000 1.0
C      1  0.5428520000000  0.4803960000000  0.5410730000000 1.0
C      1  0.4744340000000  0.4630940000000  0.4996360000000 1.0
C      1  0.4055540000000  0.5141690000000  0.4487690000000 1.0
C      1  0.5442980000000  0.6075020000000  0.5535360000000 1.0
C      1  0.5990580000000  0.4624350000000  0.5071830000000 1.0
C      1  0.5782410000000  0.4560910000000  0.4411080000000 1.0
C      1  0.5559480000000  0.4514130000000  0.4182980000000 1.0
C      1  0.4396190000000  0.5537150000000  0.4506890000000 1.0
C      1  0.5371860000000  0.5318100000000  0.5599750000000 1.0
C      1  0.4971370000000  0.5687490000000  0.5969130000000 1.0
END
