TITL C-950536-5891-684 -7.71722563355609e-07 125000 -737.908588009167 0 0 118 (C1) n - 1
REM
REM in /home/bkarasulu/work/CARBON/AIRSS/Generating-Clusters/EDIP-Nigel-Params/with-SteepDescent/Only-C1/SD-CG/HFTN-CG
REM
REM
REM
REM
REM
REM ./C.cell (11c1c37f851c82e70ff6c80c92926a4b)
REM
REM compiler GCC version 9.2.1 20190827 (Red Hat 9.2.1-1)
REM options -cpp -mtune=generic -march=x86-64 -g -O0 -fpre-include=/usr/include/finclude/math-vector-fortran.h
REM seed 1887111588 380331743 1824461872 2022940016 664276389 1394273352 -1773022316 -930075977 1183481126 823257457 -616535693 1778302067 -1492168722 1093999711 -465598725 -911786599 1298765622 645113141 1691661227 -1757404062 1071703132 -500631880 777737949 -1489245983 809377985 202049373 2079931852 994934703 1000860593 -1893633523 342417674 -1170042789 1726752811
REM
CELL 1.54180   50.00000   50.00000   50.00000   90.00000   90.00000   90.00000
LATT -1
SFAC C  
C      1  0.5069030000000  0.5534110000000  0.4611340000000 1.0
C      1  0.5460380000000  0.4768750000000  0.4216790000000 1.0
C      1  0.5145880000000  0.4413440000000  0.4297880000000 1.0
C      1  0.4967020000000  0.5135950000000  0.5723960000000 1.0
C      1  0.4997450000000  0.4635590000000  0.4756490000000 1.0
C      1  0.5148970000000  0.4145040000000  0.4766200000000 1.0
C      1  0.5353170000000  0.5413910000000  0.5046910000000 1.0
C      1  0.5012800000000  0.4944040000000  0.5474240000000 1.0
C      1  0.4701960000000  0.5723470000000  0.5251460000000 1.0
C      1  0.4674020000000  0.4329990000000  0.5493000000000 1.0
C      1  0.4467710000000  0.4503150000000  0.4435100000000 1.0
C      1  0.5181740000000  0.5820570000000  0.5441750000000 1.0
C      1  0.5812830000000  0.5456410000000  0.5172660000000 1.0
C      1  0.5053040000000  0.4169840000000  0.4442690000000 1.0
C      1  0.4805130000000  0.4277180000000  0.5734520000000 1.0
C      1  0.5890620000000  0.5041770000000  0.4737190000000 1.0
C      1  0.5426080000000  0.5650640000000  0.5446300000000 1.0
C      1  0.5238000000000  0.4849030000000  0.5971820000000 1.0
C      1  0.5090820000000  0.5898520000000  0.4973120000000 1.0
C      1  0.4918310000000  0.4600430000000  0.4246960000000 1.0
C      1  0.4854780000000  0.4937490000000  0.4969240000000 1.0
C      1  0.5380450000000  0.5582020000000  0.4163980000000 1.0
C      1  0.4752290000000  0.4162670000000  0.4394130000000 1.0
C      1  0.4805480000000  0.5086350000000  0.4077700000000 1.0
C      1  0.5485780000000  0.5740910000000  0.4385710000000 1.0
C      1  0.4444110000000  0.5046450000000  0.5690920000000 1.0
C      1  0.4579700000000  0.4086680000000  0.4605340000000 1.0
C      1  0.5785870000000  0.4639490000000  0.4958120000000 1.0
C      1  0.5643540000000  0.5078650000000  0.5788910000000 1.0
C      1  0.5377130000000  0.5825500000000  0.4911790000000 1.0
C      1  0.4911460000000  0.4330000000000  0.4761470000000 1.0
C      1  0.5011410000000  0.4676810000000  0.5884260000000 1.0
C      1  0.4274750000000  0.4448140000000  0.5117020000000 1.0
C      1  0.4901410000000  0.5919090000000  0.4753690000000 1.0
C      1  0.4875630000000  0.4763330000000  0.4502590000000 1.0
C      1  0.4580140000000  0.4748340000000  0.4857430000000 1.0
C      1  0.5348220000000  0.5642600000000  0.4661160000000 1.0
C      1  0.5339440000000  0.4219870000000  0.5442900000000 1.0
C      1  0.5663180000000  0.4921400000000  0.4581040000000 1.0
C      1  0.4819290000000  0.5164210000000  0.4753360000000 1.0
C      1  0.5868170000000  0.5295890000000  0.5399690000000 1.0
C      1  0.5009330000000  0.5726410000000  0.5211140000000 1.0
C      1  0.5266170000000  0.4317220000000  0.5693710000000 1.0
C      1  0.5399790000000  0.4526310000000  0.4351700000000 1.0
C      1  0.4420100000000  0.4984730000000  0.4400500000000 1.0
C      1  0.5302270000000  0.5018000000000  0.4857110000000 1.0
C      1  0.4901450000000  0.5604200000000  0.4371780000000 1.0
C      1  0.4268490000000  0.5124030000000  0.5461410000000 1.0
C      1  0.5442940000000  0.5104370000000  0.5360370000000 1.0
C      1  0.4963530000000  0.4573480000000  0.5194580000000 1.0
C      1  0.4665730000000  0.5236780000000  0.5770580000000 1.0
C      1  0.5049530000000  0.5384280000000  0.5594390000000 1.0
C      1  0.5067270000000  0.5432050000000  0.5106860000000 1.0
C      1  0.4745490000000  0.4755490000000  0.5917110000000 1.0
C      1  0.4673280000000  0.4408600000000  0.4247430000000 1.0
C      1  0.5756880000000  0.5216260000000  0.4983550000000 1.0
C      1  0.5567250000000  0.4430430000000  0.4554960000000 1.0
C      1  0.4516590000000  0.5191310000000  0.4712010000000 1.0
C      1  0.4576760000000  0.4753910000000  0.4543740000000 1.0
C      1  0.5263680000000  0.4896020000000  0.4052100000000 1.0
C      1  0.5705010000000  0.4884040000000  0.4294340000000 1.0
C      1  0.4924820000000  0.5153900000000  0.5233430000000 1.0
C      1  0.4134000000000  0.5042100000000  0.4521300000000 1.0
C      1  0.4110170000000  0.4857470000000  0.4755000000000 1.0
C      1  0.5535710000000  0.5622210000000  0.5161460000000 1.0
C      1  0.5711400000000  0.4516240000000  0.5212870000000 1.0
C      1  0.4570890000000  0.5516890000000  0.5437830000000 1.0
C      1  0.4951670000000  0.5050790000000  0.4494800000000 1.0
C      1  0.4686450000000  0.5249960000000  0.5381940000000 1.0
C      1  0.5284050000000  0.4728860000000  0.4871140000000 1.0
C      1  0.5340530000000  0.5373070000000  0.5552460000000 1.0
C      1  0.5298940000000  0.4842650000000  0.5408420000000 1.0
C      1  0.4487660000000  0.4447150000000  0.4922060000000 1.0
C      1  0.5431890000000  0.4398360000000  0.5199620000000 1.0
C      1  0.4529190000000  0.5638230000000  0.4466480000000 1.0
C      1  0.5574590000000  0.4657350000000  0.4739440000000 1.0
C      1  0.5228170000000  0.5104450000000  0.4371340000000 1.0
C      1  0.5428070000000  0.5280620000000  0.5830280000000 1.0
C      1  0.5039630000000  0.5860680000000  0.5681770000000 1.0
C      1  0.4937630000000  0.5608680000000  0.5745620000000 1.0
C      1  0.4533470000000  0.5066490000000  0.4148900000000 1.0
C      1  0.5270800000000  0.4100280000000  0.5021110000000 1.0
C      1  0.5038960000000  0.4396820000000  0.5828990000000 1.0
C      1  0.5465710000000  0.5156940000000  0.5061400000000 1.0
C      1  0.5205990000000  0.5347600000000  0.4184200000000 1.0
C      1  0.5432350000000  0.5118300000000  0.4607460000000 1.0
C      1  0.4182420000000  0.4915170000000  0.5271190000000 1.0
C      1  0.5252350000000  0.4642760000000  0.5166130000000 1.0
C      1  0.4010990000000  0.5285980000000  0.4939540000000 1.0
C      1  0.5515110000000  0.4811600000000  0.5856900000000 1.0
C      1  0.4934500000000  0.5351300000000  0.4083310000000 1.0
C      1  0.4092150000000  0.5318810000000  0.4642290000000 1.0
C      1  0.5746200000000  0.4686300000000  0.5446120000000 1.0
C      1  0.4423440000000  0.4315010000000  0.4656230000000 1.0
C      1  0.5182360000000  0.5134200000000  0.5940020000000 1.0
C      1  0.5677450000000  0.5504610000000  0.4399940000000 1.0
C      1  0.4756500000000  0.5836560000000  0.4512650000000 1.0
C      1  0.4524490000000  0.4766930000000  0.5743010000000 1.0
C      1  0.4371080000000  0.5463980000000  0.4660350000000 1.0
C      1  0.4865600000000  0.4300730000000  0.5247910000000 1.0
C      1  0.4908510000000  0.5443030000000  0.4844080000000 1.0
C      1  0.4720090000000  0.4265930000000  0.4989890000000 1.0
C      1  0.4279280000000  0.5415110000000  0.5378570000000 1.0
C      1  0.4564510000000  0.4619570000000  0.5481730000000 1.0
C      1  0.4008800000000  0.4992160000000  0.5018350000000 1.0
C      1  0.5114660000000  0.4111520000000  0.5271450000000 1.0
C      1  0.5715670000000  0.5064160000000  0.5489830000000 1.0
C      1  0.5490450000000  0.4682080000000  0.5591890000000 1.0
C      1  0.4644990000000  0.5553680000000  0.5734600000000 1.0
C      1  0.5550040000000  0.5394980000000  0.4649880000000 1.0
C      1  0.4376940000000  0.4967560000000  0.4886030000000 1.0
C      1  0.4205500000000  0.5445750000000  0.5094100000000 1.0
C      1  0.4367040000000  0.5604710000000  0.4915200000000 1.0
C      1  0.4318380000000  0.4652470000000  0.5301820000000 1.0
C      1  0.4810620000000  0.4745440000000  0.5362380000000 1.0
C      1  0.5944060000000  0.4879390000000  0.4972030000000 1.0
C      1  0.4978370000000  0.4836220000000  0.4054040000000 1.0
C      1  0.4635980000000  0.5660600000000  0.4979010000000 1.0
END
