TITL C-951346-9544-757 -7.88151886910241 125000 -89.2949418339108 0 0 17 (C1) n - 1
REM
REM in /home/bkarasulu/work/CARBON/AIRSS/Generating-Clusters/EDIP-Nigel-Params/with-SteepDescent/Only-C1/SD-CG/HFTN-CG
REM
REM
REM
REM
REM
REM ./C.cell (11c1c37f851c82e70ff6c80c92926a4b)
REM
REM compiler GCC version 9.2.1 20190827 (Red Hat 9.2.1-1)
REM options -cpp -mtune=generic -march=x86-64 -g -O0 -fpre-include=/usr/include/finclude/math-vector-fortran.h
REM seed 1820459222 -372498490 2060364409 951942396 -593216523 824171296 1561980397 1633375634 -1041108351 348474728 1974186461 305342556 1328561927 2106653938 -584854378 -1787440902 -685719143 -1828295433 -883133430 2120652853 442357078 1363022513 86032894 -1077209609 195206660 -1349618722 -887284668 1681303789 1860349597 1394675358 -520150783 -228919316 -2143841928
REM
CELL 1.54180   50.00000   50.00000   50.00000   90.00000   90.00000   90.00000
LATT -1
SFAC C  
C      1  0.4848460000000  0.5125340000000  0.5280670000000 1.0
C      1  0.4865770000000  0.4757060000000  0.4954830000000 1.0
C      1  0.5007500000000  0.4366970000000  0.4524230000000 1.0
C      1  0.4594410000000  0.5407180000000  0.5009200000000 1.0
C      1  0.4937600000000  0.4505160000000  0.4884770000000 1.0
C      1  0.5122010000000  0.4552920000000  0.4078240000000 1.0
C      1  0.4619330000000  0.5170000000000  0.4874110000000 1.0
C      1  0.5411470000000  0.5765860000000  0.5560860000000 1.0
C      1  0.5168330000000  0.4434120000000  0.4755020000000 1.0
C      1  0.4769380000000  0.4999840000000  0.5037470000000 1.0
C      1  0.4953070000000  0.5492910000000  0.5349830000000 1.0
C      1  0.5138140000000  0.5360320000000  0.5524800000000 1.0
C      1  0.5376430000000  0.5510400000000  0.5630030000000 1.0
C      1  0.5178820000000  0.4343910000000  0.4259200000000 1.0
C      1  0.4972300000000  0.4596020000000  0.4313920000000 1.0
C      1  0.4707680000000  0.5376160000000  0.5265350000000 1.0
C      1  0.5329280000000  0.5235820000000  0.5697490000000 1.0
END
