TITL C-951347-9520-364 -1.14218079713796e-07 125000 -272.419874926927 0 0 45 (C1) n - 1
REM
REM in /home/bkarasulu/work/CARBON/AIRSS/Generating-Clusters/EDIP-Nigel-Params/with-SteepDescent/Only-C1/SD-CG/HFTN-CG
REM
REM
REM
REM
REM
REM ./C.cell (11c1c37f851c82e70ff6c80c92926a4b)
REM
REM compiler GCC version 9.2.1 20190827 (Red Hat 9.2.1-1)
REM options -cpp -mtune=generic -march=x86-64 -g -O0 -fpre-include=/usr/include/finclude/math-vector-fortran.h
REM seed -1981874413 1943401145 -1466602835 1704392460 933460183 246169526 1349284121 -1820734685 -2010706805 387299380 530947322 -1615559752 -647388338 777004124 -952182491 216565170 134484903 -1245904421 -1167704380 1964824876 872201165 -1020829881 -595447237 -1599565274 1629635365 -1456529399 -1026287937 -1054955139 -1710647156 1766488292 473292643 466043744 -328385616
REM
CELL 1.54180   50.00000   50.00000   50.00000   90.00000   90.00000   90.00000
LATT -1
SFAC C  
C      1  0.5549860000000  0.4761800000000  0.4633550000000 1.0
C      1  0.5325750000000  0.4606420000000  0.5425430000000 1.0
C      1  0.5524870000000  0.5232570000000  0.5088210000000 1.0
C      1  0.5001980000000  0.4886780000000  0.5124550000000 1.0
C      1  0.5580140000000  0.4991100000000  0.5266130000000 1.0
C      1  0.5190180000000  0.5585070000000  0.5032540000000 1.0
C      1  0.5287010000000  0.5014340000000  0.5654550000000 1.0
C      1  0.5499460000000  0.4586350000000  0.4960850000000 1.0
C      1  0.4619270000000  0.4826430000000  0.5537170000000 1.0
C      1  0.5548820000000  0.5037070000000  0.5545110000000 1.0
C      1  0.4595180000000  0.5313530000000  0.5356510000000 1.0
C      1  0.4754390000000  0.4441430000000  0.4768750000000 1.0
C      1  0.5398380000000  0.5213720000000  0.4820480000000 1.0
C      1  0.4975090000000  0.5398370000000  0.4622690000000 1.0
C      1  0.5397730000000  0.5472500000000  0.5220870000000 1.0
C      1  0.4736650000000  0.5024850000000  0.4373690000000 1.0
C      1  0.4901400000000  0.5616590000000  0.5136450000000 1.0
C      1  0.5321640000000  0.4576690000000  0.4558370000000 1.0
C      1  0.4993850000000  0.5131490000000  0.5279180000000 1.0
C      1  0.5466190000000  0.5046950000000  0.4588080000000 1.0
C      1  0.4994830000000  0.4555680000000  0.4916230000000 1.0
C      1  0.4551210000000  0.5289130000000  0.5064340000000 1.0
C      1  0.5271250000000  0.4449830000000  0.4823450000000 1.0
C      1  0.4844740000000  0.4743120000000  0.4369570000000 1.0
C      1  0.5001070000000  0.4849570000000  0.4833710000000 1.0
C      1  0.4978630000000  0.5205400000000  0.4406220000000 1.0
C      1  0.4843560000000  0.5469620000000  0.5391970000000 1.0
C      1  0.4659910000000  0.4546560000000  0.4500850000000 1.0
C      1  0.4484890000000  0.5035410000000  0.4925850000000 1.0
C      1  0.4414940000000  0.4574840000000  0.4868440000000 1.0
C      1  0.5313800000000  0.5450590000000  0.5488720000000 1.0
C      1  0.4416220000000  0.4785210000000  0.5061510000000 1.0
C      1  0.4563800000000  0.5097730000000  0.5531260000000 1.0
C      1  0.5123340000000  0.5237260000000  0.5535450000000 1.0
C      1  0.5222100000000  0.5019810000000  0.4407210000000 1.0
C      1  0.5095270000000  0.4778520000000  0.4535180000000 1.0
C      1  0.4420940000000  0.4697970000000  0.4600230000000 1.0
C      1  0.4883200000000  0.4749350000000  0.5592890000000 1.0
C      1  0.4492980000000  0.4714430000000  0.5318840000000 1.0
C      1  0.4694520000000  0.5520860000000  0.4942390000000 1.0
C      1  0.5165680000000  0.4748530000000  0.5611870000000 1.0
C      1  0.4480150000000  0.4989660000000  0.4633290000000 1.0
C      1  0.5449450000000  0.4732690000000  0.5204220000000 1.0
C      1  0.5217430000000  0.5437780000000  0.4777010000000 1.0
C      1  0.4748270000000  0.5556380000000  0.4666120000000 1.0
END
