TITL C-951335-1172-266 5.63508245999779e-07 125000 -1228.46713297677 0 0 195 (C1) n - 1
REM
REM in /home/bkarasulu/work/CARBON/AIRSS/Generating-Clusters/EDIP-Nigel-Params/with-SteepDescent/Only-C1/SD-CG/HFTN-CG
REM
REM
REM
REM
REM
REM ./C.cell (11c1c37f851c82e70ff6c80c92926a4b)
REM
REM compiler GCC version 9.2.1 20190827 (Red Hat 9.2.1-1)
REM options -cpp -mtune=generic -march=x86-64 -g -O0 -fpre-include=/usr/include/finclude/math-vector-fortran.h
REM seed -338522685 895905520 1617357686 73798187 1959344640 385675327 203461293 -932413795 -408848515 -1812894251 546440622 -523725515 1841519961 560419307 -2011984209 468075466 794019148 722794051 -662564370 267405540 1646648543 -32062323 -1926070732 -2075245267 1551031128 -1318387213 -1945693313 1717607815 574848460 1928850717 1014352748 -265714212 -707885733
REM
CELL 1.54180   50.00000   50.00000   50.00000   90.00000   90.00000   90.00000
LATT -1
SFAC C  
C      1  0.4095080000000  0.5479200000000  0.5371520000000 1.0
C      1  0.5665050000000  0.4064990000000  0.4484500000000 1.0
C      1  0.5543390000000  0.3916000000000  0.5205550000000 1.0
C      1  0.5599450000000  0.4447010000000  0.4694170000000 1.0
C      1  0.4873080000000  0.5366220000000  0.3860400000000 1.0
C      1  0.4722580000000  0.4696700000000  0.4424790000000 1.0
C      1  0.5075310000000  0.5920520000000  0.5061550000000 1.0
C      1  0.4072810000000  0.4349520000000  0.5089560000000 1.0
C      1  0.5829840000000  0.4522800000000  0.4327780000000 1.0
C      1  0.5876460000000  0.5663010000000  0.5367190000000 1.0
C      1  0.4804190000000  0.5804480000000  0.5188640000000 1.0
C      1  0.4237200000000  0.5855550000000  0.4672150000000 1.0
C      1  0.4217880000000  0.4190110000000  0.4876100000000 1.0
C      1  0.6115410000000  0.5072760000000  0.5213520000000 1.0
C      1  0.4565170000000  0.4410360000000  0.5902020000000 1.0
C      1  0.4189040000000  0.4340300000000  0.5381750000000 1.0
C      1  0.4419930000000  0.4913270000000  0.4194980000000 1.0
C      1  0.5202080000000  0.4087530000000  0.4179540000000 1.0
C      1  0.5560710000000  0.5145470000000  0.4001100000000 1.0
C      1  0.3891990000000  0.5399040000000  0.4981120000000 1.0
C      1  0.4730240000000  0.5867590000000  0.5614890000000 1.0
C      1  0.5940160000000  0.5445160000000  0.5555050000000 1.0
C      1  0.5045790000000  0.5205190000000  0.5640890000000 1.0
C      1  0.5253220000000  0.4544170000000  0.4991570000000 1.0
C      1  0.5865170000000  0.5315100000000  0.4385190000000 1.0
C      1  0.5131170000000  0.5664440000000  0.4894830000000 1.0
C      1  0.4550810000000  0.5648980000000  0.4310120000000 1.0
C      1  0.4300090000000  0.6025270000000  0.5163190000000 1.0
C      1  0.5289720000000  0.4323400000000  0.5480360000000 1.0
C      1  0.5673230000000  0.4931370000000  0.4633390000000 1.0
C      1  0.5617540000000  0.4155330000000  0.4752860000000 1.0
C      1  0.5946600000000  0.4654230000000  0.5432850000000 1.0
C      1  0.4587370000000  0.5016060000000  0.5422300000000 1.0
C      1  0.4227940000000  0.4516750000000  0.4453390000000 1.0
C      1  0.4860530000000  0.5597250000000  0.4768950000000 1.0
C      1  0.5736010000000  0.4800950000000  0.4902750000000 1.0
C      1  0.5962980000000  0.4505780000000  0.4577700000000 1.0
C      1  0.4370870000000  0.6087650000000  0.4593200000000 1.0
C      1  0.4444620000000  0.5796070000000  0.5605460000000 1.0
C      1  0.4514240000000  0.5336730000000  0.5827740000000 1.0
C      1  0.4730670000000  0.4913390000000  0.5871740000000 1.0
C      1  0.5159020000000  0.5448690000000  0.5126860000000 1.0
C      1  0.4871900000000  0.5702120000000  0.4340050000000 1.0
C      1  0.5232440000000  0.5613170000000  0.4065690000000 1.0
C      1  0.6049230000000  0.5158130000000  0.4932640000000 1.0
C      1  0.4721320000000  0.5243960000000  0.4072780000000 1.0
C      1  0.5555110000000  0.5982470000000  0.5227280000000 1.0
C      1  0.6124720000000  0.4692040000000  0.4733970000000 1.0
C      1  0.5414160000000  0.4298980000000  0.4124920000000 1.0
C      1  0.4555060000000  0.4468580000000  0.4108740000000 1.0
C      1  0.5757450000000  0.4423390000000  0.5319910000000 1.0
C      1  0.4321330000000  0.5580880000000  0.5780670000000 1.0
C      1  0.5267110000000  0.3879290000000  0.5401880000000 1.0
C      1  0.5884760000000  0.4809200000000  0.4219160000000 1.0
C      1  0.4335190000000  0.4713380000000  0.5137730000000 1.0
C      1  0.4823850000000  0.5298750000000  0.4781510000000 1.0
C      1  0.4806560000000  0.4020320000000  0.4410360000000 1.0
C      1  0.5144710000000  0.4891930000000  0.4605290000000 1.0
C      1  0.4337480000000  0.5208090000000  0.4327380000000 1.0
C      1  0.5486690000000  0.5801120000000  0.4464850000000 1.0
C      1  0.5002190000000  0.5589480000000  0.5943590000000 1.0
C      1  0.4920540000000  0.4173870000000  0.4198200000000 1.0
C      1  0.5974910000000  0.5440970000000  0.4879350000000 1.0
C      1  0.4306720000000  0.4616570000000  0.5436720000000 1.0
C      1  0.4816740000000  0.6087950000000  0.5457160000000 1.0
C      1  0.4699010000000  0.5274380000000  0.5054170000000 1.0
C      1  0.4880860000000  0.5468720000000  0.5228720000000 1.0
C      1  0.5415170000000  0.4050120000000  0.4965960000000 1.0
C      1  0.5504140000000  0.5291190000000  0.5464230000000 1.0
C      1  0.4850920000000  0.4071640000000  0.5637770000000 1.0
C      1  0.5052460000000  0.4750130000000  0.6131430000000 1.0
C      1  0.5725250000000  0.5847990000000  0.4923930000000 1.0
C      1  0.5388640000000  0.4768480000000  0.5839600000000 1.0
C      1  0.5496860000000  0.5636260000000  0.4202950000000 1.0
C      1  0.5322650000000  0.5618150000000  0.4653260000000 1.0
C      1  0.4542250000000  0.6132260000000  0.5054600000000 1.0
C      1  0.4290890000000  0.5965790000000  0.5439410000000 1.0
C      1  0.4951990000000  0.6374890000000  0.5081760000000 1.0
C      1  0.5207350000000  0.4592300000000  0.5945530000000 1.0
C      1  0.5276630000000  0.3832420000000  0.4850230000000 1.0
C      1  0.5727850000000  0.4904810000000  0.3980240000000 1.0
C      1  0.5225500000000  0.5178010000000  0.5028720000000 1.0
C      1  0.5877500000000  0.5644790000000  0.5069410000000 1.0
C      1  0.4456710000000  0.5438910000000  0.5043210000000 1.0
C      1  0.6090660000000  0.5241530000000  0.5435240000000 1.0
C      1  0.4180830000000  0.4752120000000  0.4599420000000 1.0
C      1  0.5680020000000  0.5357000000000  0.5692710000000 1.0
C      1  0.4391820000000  0.4134000000000  0.5464060000000 1.0
C      1  0.4654980000000  0.5184690000000  0.4555540000000 1.0
C      1  0.5737580000000  0.5781750000000  0.4628490000000 1.0
C      1  0.5248670000000  0.3842140000000  0.4319270000000 1.0
C      1  0.4057350000000  0.4638840000000  0.5004580000000 1.0
C      1  0.4532370000000  0.4030280000000  0.4525750000000 1.0
C      1  0.4748280000000  0.6240970000000  0.5224920000000 1.0
C      1  0.4781720000000  0.4672990000000  0.6042590000000 1.0
C      1  0.4823580000000  0.4436600000000  0.4158170000000 1.0
C      1  0.5266380000000  0.5455680000000  0.5999270000000 1.0
C      1  0.4749020000000  0.4457100000000  0.5189870000000 1.0
C      1  0.5752710000000  0.4878770000000  0.5574970000000 1.0
C      1  0.4349860000000  0.3949280000000  0.4978600000000 1.0
C      1  0.5717150000000  0.5089010000000  0.5821970000000 1.0
C      1  0.4000820000000  0.5659440000000  0.5094740000000 1.0
C      1  0.4865350000000  0.5409130000000  0.5518310000000 1.0
C      1  0.4232010000000  0.5808480000000  0.4972480000000 1.0
C      1  0.4361690000000  0.4911770000000  0.4746820000000 1.0
C      1  0.4766020000000  0.4837120000000  0.5569300000000 1.0
C      1  0.4045460000000  0.5267890000000  0.4748920000000 1.0
C      1  0.4860950000000  0.6137010000000  0.4672050000000 1.0
C      1  0.4648440000000  0.4533030000000  0.5468440000000 1.0
C      1  0.5020270000000  0.4154490000000  0.5841890000000 1.0
C      1  0.4536310000000  0.4522550000000  0.5010440000000 1.0
C      1  0.5305050000000  0.4551250000000  0.4245760000000 1.0
C      1  0.5803930000000  0.5482460000000  0.4635340000000 1.0
C      1  0.4783790000000  0.5390400000000  0.5991580000000 1.0
C      1  0.4060950000000  0.5481330000000  0.5673620000000 1.0
C      1  0.4496500000000  0.3967350000000  0.5237550000000 1.0
C      1  0.5078300000000  0.5138930000000  0.4779820000000 1.0
C      1  0.5715720000000  0.4125150000000  0.5379020000000 1.0
C      1  0.4631100000000  0.4973470000000  0.3997010000000 1.0
C      1  0.4385970000000  0.4294300000000  0.4616660000000 1.0
C      1  0.5478380000000  0.5800760000000  0.5691750000000 1.0
C      1  0.4346520000000  0.4580010000000  0.5867130000000 1.0
C      1  0.4953090000000  0.5670140000000  0.5656660000000 1.0
C      1  0.4839570000000  0.4839570000000  0.4993380000000 1.0
C      1  0.5492130000000  0.4789390000000  0.4250430000000 1.0
C      1  0.5563130000000  0.5016960000000  0.5349800000000 1.0
C      1  0.4616370000000  0.4265480000000  0.5634580000000 1.0
C      1  0.4466140000000  0.5045510000000  0.5925230000000 1.0
C      1  0.4389200000000  0.5451990000000  0.5332100000000 1.0
C      1  0.5678960000000  0.4259560000000  0.4268220000000 1.0
C      1  0.5136270000000  0.4388670000000  0.5745610000000 1.0
C      1  0.5205540000000  0.5102520000000  0.6101670000000 1.0
C      1  0.4943860000000  0.5142480000000  0.5913620000000 1.0
C      1  0.4348720000000  0.4625580000000  0.4207460000000 1.0
C      1  0.4808490000000  0.3881900000000  0.4910620000000 1.0
C      1  0.3889320000000  0.4953020000000  0.5269440000000 1.0
C      1  0.5402110000000  0.5248880000000  0.4432260000000 1.0
C      1  0.6068150000000  0.4636730000000  0.5005080000000 1.0
C      1  0.5605040000000  0.5344180000000  0.4230670000000 1.0
C      1  0.3941310000000  0.5241470000000  0.5236210000000 1.0
C      1  0.6110860000000  0.4984390000000  0.4679440000000 1.0
C      1  0.5421720000000  0.4956430000000  0.4488430000000 1.0
C      1  0.6124870000000  0.4780880000000  0.5241590000000 1.0
C      1  0.5247970000000  0.5744460000000  0.5503550000000 1.0
C      1  0.4283100000000  0.5160740000000  0.4870570000000 1.0
C      1  0.3988450000000  0.4811170000000  0.5495800000000 1.0
C      1  0.4150160000000  0.5397460000000  0.4492870000000 1.0
C      1  0.4489710000000  0.5404950000000  0.4158740000000 1.0
C      1  0.5574430000000  0.4673940000000  0.5667030000000 1.0
C      1  0.5700150000000  0.5053390000000  0.5074160000000 1.0
C      1  0.4777310000000  0.3862480000000  0.5210560000000 1.0
C      1  0.5030050000000  0.3760110000000  0.4756090000000 1.0
C      1  0.4035580000000  0.4946520000000  0.5741110000000 1.0
C      1  0.4957490000000  0.5965140000000  0.4457860000000 1.0
C      1  0.5043270000000  0.4960310000000  0.5502730000000 1.0
C      1  0.5446960000000  0.4080510000000  0.5546280000000 1.0
C      1  0.4913380000000  0.4237210000000  0.5041160000000 1.0
C      1  0.4595910000000  0.4978450000000  0.5120620000000 1.0
C      1  0.5471100000000  0.4995700000000  0.5978960000000 1.0
C      1  0.5692220000000  0.5872990000000  0.5468690000000 1.0
C      1  0.4291960000000  0.4848430000000  0.5815810000000 1.0
C      1  0.4339190000000  0.5624420000000  0.4526260000000 1.0
C      1  0.5069690000000  0.5436340000000  0.4435640000000 1.0
C      1  0.5025240000000  0.5811230000000  0.4108540000000 1.0
C      1  0.4968900000000  0.4905320000000  0.4356470000000 1.0
C      1  0.4851860000000  0.4808670000000  0.3925530000000 1.0
C      1  0.5508770000000  0.4511690000000  0.5449860000000 1.0
C      1  0.4577230000000  0.5300640000000  0.5525790000000 1.0
C      1  0.5045110000000  0.6177240000000  0.4901670000000 1.0
C      1  0.5492640000000  0.5207630000000  0.4930050000000 1.0
C      1  0.4542930000000  0.3863180000000  0.4772500000000 1.0
C      1  0.5084990000000  0.4739400000000  0.5123290000000 1.0
C      1  0.5210060000000  0.4269910000000  0.5124730000000 1.0
C      1  0.3996530000000  0.5223380000000  0.5758980000000 1.0
C      1  0.5004520000000  0.3813280000000  0.4468830000000 1.0
C      1  0.4620000000000  0.4472330000000  0.4720940000000 1.0
C      1  0.5101610000000  0.4840760000000  0.4079000000000 1.0
C      1  0.5518440000000  0.5379600000000  0.4688700000000 1.0
C      1  0.5522000000000  0.5558430000000  0.5867430000000 1.0
C      1  0.5133820000000  0.5360140000000  0.3954940000000 1.0
C      1  0.4980170000000  0.3974720000000  0.5390950000000 1.0
C      1  0.4614890000000  0.5711900000000  0.4945810000000 1.0
C      1  0.5330710000000  0.5500770000000  0.5354800000000 1.0
C      1  0.5330970000000  0.4468440000000  0.4537280000000 1.0
C      1  0.5902440000000  0.5020380000000  0.4463030000000 1.0
C      1  0.5224770000000  0.4950760000000  0.5261050000000 1.0
C      1  0.5549900000000  0.4576980000000  0.4959630000000 1.0
C      1  0.4642470000000  0.4902640000000  0.4673240000000 1.0
C      1  0.4585990000000  0.6112040000000  0.4768600000000 1.0
C      1  0.5124060000000  0.4558630000000  0.4718970000000 1.0
C      1  0.4894980000000  0.4353900000000  0.4754160000000 1.0
C      1  0.4868520000000  0.5195100000000  0.4340270000000 1.0
C      1  0.3820900000000  0.4786970000000  0.5058050000000 1.0
C      1  0.5268260000000  0.5100050000000  0.3971440000000 1.0
C      1  0.5269420000000  0.5954090000000  0.5286220000000 1.0
END
