TITL C-951338-5626-15 6.11896165113938e-07 125000 -350.282722789437 0 0 57 (C1) n - 1
REM
REM in /home/bkarasulu/work/CARBON/AIRSS/Generating-Clusters/EDIP-Nigel-Params/with-SteepDescent/Only-C1/SD-CG/HFTN-CG
REM
REM
REM
REM
REM
REM ./C.cell (11c1c37f851c82e70ff6c80c92926a4b)
REM
REM compiler GCC version 9.2.1 20190827 (Red Hat 9.2.1-1)
REM options -cpp -mtune=generic -march=x86-64 -g -O0 -fpre-include=/usr/include/finclude/math-vector-fortran.h
REM seed -1397155392 -1103012751 -881457985 1848950471 539076356 1899320135 2104444122 -213802924 1192231299 -547731831 -672759795 345137145 938458442 1471757309 1577666237 -1417802137 -970316945 -236854611 -716205629 -985689162 1725286387 -833212384 -1765880400 -721861678 -1672386767 787680007 -419095674 -2104702175 -211558377 -824839066 987213066 1475317915 -1838044124
REM
CELL 1.54180   50.00000   50.00000   50.00000   90.00000   90.00000   90.00000
LATT -1
SFAC C  
C      1  0.4638470000000  0.5582340000000  0.5172570000000 1.0
C      1  0.5109950000000  0.5622700000000  0.4421940000000 1.0
C      1  0.4721730000000  0.5647760000000  0.5430690000000 1.0
C      1  0.4611490000000  0.4400320000000  0.4856140000000 1.0
C      1  0.4745170000000  0.4791290000000  0.5746280000000 1.0
C      1  0.4654420000000  0.4861020000000  0.4549200000000 1.0
C      1  0.5066710000000  0.4408180000000  0.4495860000000 1.0
C      1  0.5449060000000  0.4466390000000  0.5311690000000 1.0
C      1  0.4831460000000  0.5559850000000  0.4449260000000 1.0
C      1  0.5443790000000  0.4536540000000  0.4808500000000 1.0
C      1  0.4491450000000  0.4625300000000  0.4967910000000 1.0
C      1  0.4668090000000  0.5026410000000  0.5610010000000 1.0
C      1  0.5365050000000  0.5294070000000  0.5425670000000 1.0
C      1  0.4389770000000  0.5164980000000  0.5213200000000 1.0
C      1  0.4556990000000  0.5136730000000  0.4458200000000 1.0
C      1  0.4589360000000  0.4716130000000  0.5235000000000 1.0
C      1  0.5323230000000  0.5646440000000  0.4868570000000 1.0
C      1  0.5067730000000  0.4312620000000  0.5005810000000 1.0
C      1  0.5492920000000  0.4659570000000  0.5522200000000 1.0
C      1  0.5179370000000  0.5529720000000  0.5349210000000 1.0
C      1  0.4766200000000  0.5287780000000  0.4312360000000 1.0
C      1  0.5026870000000  0.4653610000000  0.5389090000000 1.0
C      1  0.5435210000000  0.5250490000000  0.4551690000000 1.0
C      1  0.5113770000000  0.5629780000000  0.5064470000000 1.0
C      1  0.4464040000000  0.4946820000000  0.5393570000000 1.0
C      1  0.5386020000000  0.4932030000000  0.4530360000000 1.0
C      1  0.5246220000000  0.4800900000000  0.5522130000000 1.0
C      1  0.4874120000000  0.4823220000000  0.5169820000000 1.0
C      1  0.4827200000000  0.5656960000000  0.4959970000000 1.0
C      1  0.5615090000000  0.5014680000000  0.5115260000000 1.0
C      1  0.5616470000000  0.5210290000000  0.5317620000000 1.0
C      1  0.4747910000000  0.5484310000000  0.4721750000000 1.0
C      1  0.5221160000000  0.5363220000000  0.4378770000000 1.0
C      1  0.4888420000000  0.4474260000000  0.4826110000000 1.0
C      1  0.4495450000000  0.5315740000000  0.4695280000000 1.0
C      1  0.4934090000000  0.5488140000000  0.5515130000000 1.0
C      1  0.4949710000000  0.4675190000000  0.4438390000000 1.0
C      1  0.4964370000000  0.5100780000000  0.4751320000000 1.0
C      1  0.5754060000000  0.4769360000000  0.5117170000000 1.0
C      1  0.4487280000000  0.4848270000000  0.4790650000000 1.0
C      1  0.5011920000000  0.5152820000000  0.4442570000000 1.0
C      1  0.5165880000000  0.5200410000000  0.4970290000000 1.0
C      1  0.4817690000000  0.4571960000000  0.5587450000000 1.0
C      1  0.4643060000000  0.5286610000000  0.5102720000000 1.0
C      1  0.4953080000000  0.4782360000000  0.4866140000000 1.0
C      1  0.4606710000000  0.4486880000000  0.5420620000000 1.0
C      1  0.4914430000000  0.5183820000000  0.5496450000000 1.0
C      1  0.5195610000000  0.5088880000000  0.5559980000000 1.0
C      1  0.5610730000000  0.4524400000000  0.5065210000000 1.0
C      1  0.5300860000000  0.4796640000000  0.4791880000000 1.0
C      1  0.5348850000000  0.4972290000000  0.5019030000000 1.0
C      1  0.5380310000000  0.5370840000000  0.4827460000000 1.0
C      1  0.5159560000000  0.4417480000000  0.5262200000000 1.0
C      1  0.5276690000000  0.4324930000000  0.4688790000000 1.0
C      1  0.5134720000000  0.4886940000000  0.4351050000000 1.0
C      1  0.4894050000000  0.5131930000000  0.5199470000000 1.0
C      1  0.4375980000000  0.5106570000000  0.4889880000000 1.0
END
