TITL C-951344-124-371 2.50780589516151e-06 125000 -372.417280587482 0 0 61 (C1) n - 1
REM
REM in /home/bkarasulu/work/CARBON/AIRSS/Generating-Clusters/EDIP-Nigel-Params/with-SteepDescent/Only-C1/SD-CG/HFTN-CG
REM
REM
REM
REM
REM
REM ./C.cell (11c1c37f851c82e70ff6c80c92926a4b)
REM
REM compiler GCC version 9.2.1 20190827 (Red Hat 9.2.1-1)
REM options -cpp -mtune=generic -march=x86-64 -g -O0 -fpre-include=/usr/include/finclude/math-vector-fortran.h
REM seed -528457521 -597641371 874515522 -1858071207 753335708 -1920574520 1300819468 -112394841 509312858 1850020776 -1018312636 1215328980 -1532108471 1979364801 1797492052 97556560 -1610314217 483297599 -161104003 1197747729 495317977 -1157802190 2044292600 2053976167 -13453660 -831923466 746996585 -1905968912 21576651 -376366984 1874915118 -1771764562 -2011703320
REM
CELL 1.54180   50.00000   50.00000   50.00000   90.00000   90.00000   90.00000
LATT -1
SFAC C  
C      1  0.5084870000000  0.5422780000000  0.4667140000000 1.0
C      1  0.4932500000000  0.4697500000000  0.5166950000000 1.0
C      1  0.5278840000000  0.5113900000000  0.5059670000000 1.0
C      1  0.5032040000000  0.5518070000000  0.5651780000000 1.0
C      1  0.4595880000000  0.5602400000000  0.5148260000000 1.0
C      1  0.5098560000000  0.4239270000000  0.4816500000000 1.0
C      1  0.4611500000000  0.4740530000000  0.5463980000000 1.0
C      1  0.4817020000000  0.4930670000000  0.4270200000000 1.0
C      1  0.4448650000000  0.5178560000000  0.5351460000000 1.0
C      1  0.4872110000000  0.5604350000000  0.4617920000000 1.0
C      1  0.5568730000000  0.4906870000000  0.4493410000000 1.0
C      1  0.4568760000000  0.5156010000000  0.4621010000000 1.0
C      1  0.5539110000000  0.5370110000000  0.4704950000000 1.0
C      1  0.5563480000000  0.5229180000000  0.4966690000000 1.0
C      1  0.5329160000000  0.5574120000000  0.4756880000000 1.0
C      1  0.5087410000000  0.5717950000000  0.5176460000000 1.0
C      1  0.4426240000000  0.4660420000000  0.4753700000000 1.0
C      1  0.4529510000000  0.5043590000000  0.5087310000000 1.0
C      1  0.5225170000000  0.4226970000000  0.5060100000000 1.0
C      1  0.5699630000000  0.4805380000000  0.4753780000000 1.0
C      1  0.4431470000000  0.5499450000000  0.4944020000000 1.0
C      1  0.5450250000000  0.5187960000000  0.4488180000000 1.0
C      1  0.5087910000000  0.4757450000000  0.5605520000000 1.0
C      1  0.4393540000000  0.4773970000000  0.5026450000000 1.0
C      1  0.4989070000000  0.5151230000000  0.4250920000000 1.0
C      1  0.5189560000000  0.4834560000000  0.4489030000000 1.0
C      1  0.5151160000000  0.4365860000000  0.4565450000000 1.0
C      1  0.5455920000000  0.4717130000000  0.5145960000000 1.0
C      1  0.5171480000000  0.5271070000000  0.4427310000000 1.0
C      1  0.4967750000000  0.4605290000000  0.4882800000000 1.0
C      1  0.5004600000000  0.4701880000000  0.4274630000000 1.0
C      1  0.5329430000000  0.5687150000000  0.5025140000000 1.0
C      1  0.5689310000000  0.4859390000000  0.5226220000000 1.0
C      1  0.4910910000000  0.4463040000000  0.4421010000000 1.0
C      1  0.4636830000000  0.4377970000000  0.5161060000000 1.0
C      1  0.5341890000000  0.5361490000000  0.5231690000000 1.0
C      1  0.4523830000000  0.4997870000000  0.5577120000000 1.0
C      1  0.4579290000000  0.4461630000000  0.4600260000000 1.0
C      1  0.4618980000000  0.5417060000000  0.5375810000000 1.0
C      1  0.4975310000000  0.4873350000000  0.4709090000000 1.0
C      1  0.4745710000000  0.5425090000000  0.5647710000000 1.0
C      1  0.5199680000000  0.5274700000000  0.5640820000000 1.0
C      1  0.5438920000000  0.5302690000000  0.5496810000000 1.0
C      1  0.5091130000000  0.5707200000000  0.5454130000000 1.0
C      1  0.5165000000000  0.4342650000000  0.5304890000000 1.0
C      1  0.4715720000000  0.4926320000000  0.4550160000000 1.0
C      1  0.5358790000000  0.4588880000000  0.4582860000000 1.0
C      1  0.4830160000000  0.5737770000000  0.5040150000000 1.0
C      1  0.5214160000000  0.4643000000000  0.5324120000000 1.0
C      1  0.4462670000000  0.4595530000000  0.5252260000000 1.0
C      1  0.5754860000000  0.4996900000000  0.4981460000000 1.0
C      1  0.4718830000000  0.4430900000000  0.4871180000000 1.0
C      1  0.5493420000000  0.4619300000000  0.4867070000000 1.0
C      1  0.4833950000000  0.4995370000000  0.5113120000000 1.0
C      1  0.5018910000000  0.5044560000000  0.5628320000000 1.0
C      1  0.4833800000000  0.4592910000000  0.5584560000000 1.0
C      1  0.4864260000000  0.4372530000000  0.5375410000000 1.0
C      1  0.4751040000000  0.5131950000000  0.5725720000000 1.0
C      1  0.4465790000000  0.5231970000000  0.4866540000000 1.0
C      1  0.4812970000000  0.5817940000000  0.4771110000000 1.0
C      1  0.5022560000000  0.5118460000000  0.4905780000000 1.0
END
