TITL C-951340-9809-546 -7.73875976725958e-07 125000 -1136.83824214285 0 0 182 (C1) n - 1
REM
REM in /home/bkarasulu/work/CARBON/AIRSS/Generating-Clusters/EDIP-Nigel-Params/with-SteepDescent/Only-C1/SD-CG/HFTN-CG
REM
REM
REM
REM
REM
REM ./C.cell (11c1c37f851c82e70ff6c80c92926a4b)
REM
REM compiler GCC version 9.2.1 20190827 (Red Hat 9.2.1-1)
REM options -cpp -mtune=generic -march=x86-64 -g -O0 -fpre-include=/usr/include/finclude/math-vector-fortran.h
REM seed -1625664782 305874343 1215561796 -2001439020 1468435177 616953820 -707228723 -718214916 2072058156 1201146260 -1425161834 467911774 -1831322592 -819831874 -1584024394 -1243434378 1399129017 1659708073 -481575722 696086042 563449112 -1859002956 426381164 1427019119 1479583905 -127219586 -2128905265 1276463587 1489622970 1154715487 462691083 -1747534105 433372104
REM
CELL 1.54180   50.00000   50.00000   50.00000   90.00000   90.00000   90.00000
LATT -1
SFAC C  
C      1  0.5221130000000  0.4524720000000  0.4021180000000 1.0
C      1  0.4947740000000  0.5264240000000  0.3894710000000 1.0
C      1  0.4521970000000  0.5830670000000  0.4636410000000 1.0
C      1  0.4153390000000  0.5711030000000  0.4675360000000 1.0
C      1  0.4995310000000  0.4381970000000  0.5016600000000 1.0
C      1  0.4482150000000  0.4816330000000  0.5231800000000 1.0
C      1  0.5900760000000  0.4958700000000  0.5466800000000 1.0
C      1  0.4792530000000  0.3879490000000  0.4393240000000 1.0
C      1  0.5326390000000  0.4669810000000  0.5598580000000 1.0
C      1  0.4604650000000  0.5492680000000  0.5044260000000 1.0
C      1  0.4693160000000  0.3957780000000  0.5413560000000 1.0
C      1  0.4512510000000  0.5893610000000  0.5366490000000 1.0
C      1  0.5442210000000  0.5125430000000  0.4294110000000 1.0
C      1  0.4256270000000  0.4649860000000  0.4591750000000 1.0
C      1  0.4315000000000  0.4771080000000  0.5824680000000 1.0
C      1  0.4960820000000  0.4905000000000  0.6065110000000 1.0
C      1  0.4241960000000  0.4200720000000  0.5033670000000 1.0
C      1  0.4866060000000  0.4547140000000  0.5238040000000 1.0
C      1  0.5393930000000  0.5024830000000  0.4741770000000 1.0
C      1  0.5673590000000  0.4983260000000  0.5878470000000 1.0
C      1  0.4768020000000  0.6002830000000  0.4711460000000 1.0
C      1  0.5342940000000  0.4646170000000  0.4433430000000 1.0
C      1  0.4791100000000  0.4782140000000  0.5625210000000 1.0
C      1  0.4817930000000  0.5512380000000  0.4015470000000 1.0
C      1  0.5223810000000  0.6001760000000  0.5103270000000 1.0
C      1  0.4780220000000  0.5164900000000  0.4463090000000 1.0
C      1  0.5369250000000  0.5572760000000  0.4646810000000 1.0
C      1  0.5411720000000  0.5011340000000  0.5047490000000 1.0
C      1  0.4846540000000  0.5434950000000  0.4581360000000 1.0
C      1  0.3981660000000  0.4500570000000  0.5217670000000 1.0
C      1  0.4623480000000  0.4256910000000  0.4812730000000 1.0
C      1  0.3914470000000  0.4993290000000  0.4639420000000 1.0
C      1  0.5088910000000  0.4646770000000  0.4629660000000 1.0
C      1  0.5724710000000  0.4630470000000  0.4117210000000 1.0
C      1  0.5271180000000  0.5303880000000  0.5410840000000 1.0
C      1  0.5587800000000  0.4284240000000  0.4491220000000 1.0
C      1  0.4012790000000  0.5658390000000  0.4942730000000 1.0
C      1  0.4072180000000  0.5295100000000  0.5452460000000 1.0
C      1  0.4550460000000  0.4535380000000  0.5230650000000 1.0
C      1  0.4643060000000  0.5224240000000  0.4205980000000 1.0
C      1  0.4531630000000  0.5235990000000  0.5631760000000 1.0
C      1  0.4862480000000  0.5846350000000  0.5700700000000 1.0
C      1  0.5875470000000  0.4454710000000  0.5531260000000 1.0
C      1  0.4881560000000  0.4414630000000  0.5950350000000 1.0
C      1  0.5054970000000  0.4880020000000  0.5521330000000 1.0
C      1  0.4230990000000  0.5353100000000  0.4290830000000 1.0
C      1  0.5173850000000  0.4029430000000  0.5557450000000 1.0
C      1  0.5586570000000  0.5811640000000  0.5697730000000 1.0
C      1  0.5083420000000  0.4959150000000  0.3971070000000 1.0
C      1  0.5327820000000  0.4603610000000  0.6038180000000 1.0
C      1  0.4678230000000  0.4743460000000  0.4195100000000 1.0
C      1  0.5110930000000  0.4345890000000  0.4206910000000 1.0
C      1  0.3958140000000  0.5371240000000  0.4960530000000 1.0
C      1  0.5995670000000  0.4705930000000  0.5534930000000 1.0
C      1  0.4380110000000  0.5082930000000  0.4817210000000 1.0
C      1  0.4355190000000  0.4419600000000  0.4145240000000 1.0
C      1  0.4819900000000  0.5131250000000  0.6153720000000 1.0
C      1  0.4016310000000  0.4703540000000  0.5446800000000 1.0
C      1  0.4790850000000  0.4703400000000  0.5920550000000 1.0
C      1  0.5816320000000  0.4775730000000  0.4513040000000 1.0
C      1  0.5117820000000  0.5926290000000  0.4317660000000 1.0
C      1  0.4491690000000  0.5493150000000  0.4228220000000 1.0
C      1  0.4616170000000  0.4485950000000  0.4063890000000 1.0
C      1  0.5523630000000  0.5287140000000  0.4642300000000 1.0
C      1  0.5073620000000  0.3886860000000  0.5077440000000 1.0
C      1  0.4108320000000  0.5452770000000  0.4529790000000 1.0
C      1  0.5376680000000  0.5513300000000  0.4038780000000 1.0
C      1  0.5720380000000  0.4481470000000  0.5875770000000 1.0
C      1  0.4521670000000  0.4762130000000  0.6031030000000 1.0
C      1  0.5721460000000  0.6105630000000  0.4873070000000 1.0
C      1  0.4155640000000  0.5014210000000  0.5852660000000 1.0
C      1  0.4396930000000  0.4383090000000  0.5460690000000 1.0
C      1  0.5513600000000  0.6066850000000  0.4689230000000 1.0
C      1  0.4800440000000  0.5835290000000  0.5400890000000 1.0
C      1  0.4460990000000  0.4204510000000  0.4537900000000 1.0
C      1  0.5037690000000  0.5026950000000  0.4395540000000 1.0
C      1  0.5543640000000  0.5811780000000  0.4532880000000 1.0
C      1  0.4614950000000  0.4991140000000  0.4639520000000 1.0
C      1  0.5011310000000  0.4816260000000  0.5234560000000 1.0
C      1  0.5293640000000  0.3988060000000  0.4903410000000 1.0
C      1  0.5848280000000  0.4541510000000  0.5031910000000 1.0
C      1  0.4944000000000  0.6015860000000  0.5199670000000 1.0
C      1  0.5709000000000  0.4427710000000  0.5282310000000 1.0
C      1  0.5417190000000  0.5923570000000  0.4280050000000 1.0
C      1  0.5125030000000  0.4419030000000  0.6078830000000 1.0
C      1  0.5933870000000  0.5428130000000  0.4909560000000 1.0
C      1  0.5373060000000  0.4960400000000  0.4050320000000 1.0
C      1  0.4101350000000  0.5740440000000  0.5196970000000 1.0
C      1  0.4531870000000  0.3907610000000  0.5192180000000 1.0
C      1  0.5630140000000  0.4135450000000  0.5252720000000 1.0
C      1  0.4982370000000  0.3929530000000  0.5360270000000 1.0
C      1  0.4035610000000  0.4566890000000  0.4900000000000 1.0
C      1  0.4017780000000  0.5056420000000  0.5602440000000 1.0
C      1  0.4984150000000  0.4770490000000  0.4208230000000 1.0
C      1  0.4224200000000  0.4577040000000  0.5625370000000 1.0
C      1  0.5304890000000  0.4205790000000  0.4414500000000 1.0
C      1  0.5737000000000  0.5378600000000  0.5605200000000 1.0
C      1  0.5537970000000  0.4112560000000  0.4975700000000 1.0
C      1  0.4159550000000  0.4272300000000  0.5294860000000 1.0
C      1  0.6010680000000  0.5694570000000  0.4859780000000 1.0
C      1  0.4824130000000  0.5544860000000  0.5310200000000 1.0
C      1  0.5872760000000  0.4888140000000  0.4223990000000 1.0
C      1  0.5198710000000  0.5209070000000  0.5151700000000 1.0
C      1  0.5124160000000  0.5515570000000  0.4457210000000 1.0
C      1  0.5884090000000  0.4832020000000  0.4986040000000 1.0
C      1  0.4442330000000  0.5744500000000  0.4931070000000 1.0
C      1  0.5414250000000  0.4555360000000  0.5313300000000 1.0
C      1  0.4748840000000  0.5060680000000  0.3814280000000 1.0
C      1  0.4305410000000  0.4830040000000  0.4983660000000 1.0
C      1  0.5835100000000  0.5261350000000  0.4674690000000 1.0
C      1  0.5772430000000  0.5006570000000  0.5191520000000 1.0
C      1  0.4609560000000  0.4178440000000  0.5589100000000 1.0
C      1  0.5069070000000  0.5182180000000  0.5577120000000 1.0
C      1  0.5782890000000  0.5634870000000  0.4302040000000 1.0
C      1  0.4728890000000  0.4162850000000  0.4397940000000 1.0
C      1  0.4562000000000  0.4940750000000  0.5498000000000 1.0
C      1  0.4578480000000  0.4721470000000  0.4510450000000 1.0
C      1  0.4428450000000  0.5251980000000  0.5066170000000 1.0
C      1  0.4967570000000  0.3865210000000  0.4609730000000 1.0
C      1  0.5528920000000  0.4806050000000  0.4589010000000 1.0
C      1  0.5077960000000  0.5466220000000  0.5050320000000 1.0
C      1  0.4282850000000  0.4401090000000  0.4417450000000 1.0
C      1  0.5190690000000  0.4553380000000  0.4885340000000 1.0
C      1  0.5112340000000  0.4946970000000  0.4664450000000 1.0
C      1  0.4093380000000  0.4861880000000  0.4444890000000 1.0
C      1  0.5132370000000  0.5586130000000  0.5949240000000 1.0
C      1  0.4888970000000  0.4253530000000  0.5693100000000 1.0
C      1  0.5777930000000  0.4436120000000  0.4330870000000 1.0
C      1  0.5629730000000  0.4722060000000  0.5722760000000 1.0
C      1  0.5212070000000  0.4012500000000  0.4622840000000 1.0
C      1  0.5126200000000  0.5933650000000  0.5776230000000 1.0
C      1  0.5366420000000  0.5406030000000  0.5930490000000 1.0
C      1  0.4744550000000  0.6088410000000  0.4995100000000 1.0
C      1  0.5333790000000  0.5888480000000  0.5587490000000 1.0
C      1  0.4997140000000  0.5712140000000  0.4149600000000 1.0
C      1  0.4865700000000  0.3812960000000  0.4879340000000 1.0
C      1  0.4614600000000  0.3954350000000  0.4927630000000 1.0
C      1  0.4049640000000  0.4931270000000  0.5136990000000 1.0
C      1  0.4484290000000  0.5997770000000  0.5095030000000 1.0
C      1  0.5041760000000  0.5974320000000  0.4609090000000 1.0
C      1  0.4076750000000  0.5231380000000  0.4719910000000 1.0
C      1  0.5274290000000  0.4742810000000  0.5107150000000 1.0
C      1  0.5450480000000  0.4030840000000  0.5459240000000 1.0
C      1  0.5561300000000  0.5714210000000  0.4107710000000 1.0
C      1  0.4437350000000  0.4408200000000  0.4980900000000 1.0
C      1  0.4786970000000  0.4495970000000  0.4595750000000 1.0
C      1  0.5600780000000  0.5538630000000  0.5813680000000 1.0
C      1  0.4841930000000  0.5425240000000  0.4877270000000 1.0
C      1  0.5235690000000  0.5344770000000  0.4219850000000 1.0
C      1  0.5426060000000  0.6000580000000  0.5331730000000 1.0
C      1  0.4547170000000  0.5049600000000  0.6125760000000 1.0
C      1  0.3873160000000  0.4832070000000  0.4888270000000 1.0
C      1  0.5787690000000  0.5843360000000  0.4952860000000 1.0
C      1  0.5739060000000  0.5159040000000  0.4200520000000 1.0
C      1  0.5418640000000  0.5106620000000  0.5967130000000 1.0
C      1  0.4823660000000  0.5371930000000  0.5587960000000 1.0
C      1  0.5427280000000  0.4687470000000  0.4139720000000 1.0
C      1  0.4871980000000  0.5573440000000  0.5811750000000 1.0
C      1  0.4121900000000  0.5230750000000  0.5167000000000 1.0
C      1  0.5736880000000  0.5436060000000  0.5143830000000 1.0
C      1  0.5870730000000  0.5361930000000  0.4375480000000 1.0
C      1  0.5922430000000  0.4962860000000  0.4720980000000 1.0
C      1  0.5295130000000  0.5658750000000  0.4934310000000 1.0
C      1  0.5857520000000  0.5557110000000  0.5396800000000 1.0
C      1  0.5216470000000  0.4277670000000  0.5231160000000 1.0
C      1  0.5694670000000  0.4225550000000  0.4759150000000 1.0
C      1  0.4322910000000  0.5676440000000  0.5356980000000 1.0
C      1  0.4624100000000  0.5606100000000  0.4475980000000 1.0
C      1  0.5245390000000  0.6072030000000  0.4799980000000 1.0
C      1  0.4388500000000  0.5199500000000  0.5919830000000 1.0
C      1  0.4822250000000  0.4287290000000  0.4151390000000 1.0
C      1  0.4221070000000  0.5067100000000  0.4290210000000 1.0
C      1  0.5572000000000  0.5675490000000  0.5075420000000 1.0
C      1  0.5748670000000  0.5827400000000  0.5450650000000 1.0
C      1  0.5247270000000  0.4884110000000  0.6058880000000 1.0
C      1  0.4577630000000  0.4982880000000  0.4037800000000 1.0
C      1  0.5926550000000  0.4360620000000  0.4834300000000 1.0
C      1  0.4315110000000  0.5435300000000  0.5524340000000 1.0
C      1  0.5581570000000  0.4509970000000  0.6111830000000 1.0
C      1  0.5867590000000  0.5133570000000  0.5706820000000 1.0
C      1  0.5028990000000  0.4436190000000  0.5491990000000 1.0
C      1  0.5551540000000  0.5232810000000  0.5416700000000 1.0
END
