TITL C-950536-5891-266 -4.69163160764344e-06 125000 -618.493095678246 0 0 101 (C1) n - 1
REM
REM in /home/bkarasulu/work/CARBON/AIRSS/Generating-Clusters/EDIP-Nigel-Params/with-SteepDescent/Only-C1/SD-CG/HFTN-CG
REM
REM
REM
REM
REM
REM ./C.cell (11c1c37f851c82e70ff6c80c92926a4b)
REM
REM compiler GCC version 9.2.1 20190827 (Red Hat 9.2.1-1)
REM options -cpp -mtune=generic -march=x86-64 -g -O0 -fpre-include=/usr/include/finclude/math-vector-fortran.h
REM seed 505938340 1617396470 1020553437 948059916 -1978505698 -742316602 2095079523 1923611803 -1441868137 873177801 1141513229 -1289520153 1921133752 2076444653 882081547 1074608781 2025757727 -1493528030 511694880 733501001 -681078097 2083278895 -13352009 874365839 218433610 1456253969 -550654851 887364146 561058658 952023064 352877177 591501271 -1798811605
REM
CELL 1.54180   50.00000   50.00000   50.00000   90.00000   90.00000   90.00000
LATT -1
SFAC C  
C      1  0.5309160000000  0.4873340000000  0.4207450000000 1.0
C      1  0.5474190000000  0.4712720000000  0.4387010000000 1.0
C      1  0.4774650000000  0.4185510000000  0.5057420000000 1.0
C      1  0.5567570000000  0.5472400000000  0.5407070000000 1.0
C      1  0.4747140000000  0.4969190000000  0.5150980000000 1.0
C      1  0.5525800000000  0.5786190000000  0.4598660000000 1.0
C      1  0.4874670000000  0.4673900000000  0.5177010000000 1.0
C      1  0.4560920000000  0.5343700000000  0.5749500000000 1.0
C      1  0.4918200000000  0.5104890000000  0.4944470000000 1.0
C      1  0.4463630000000  0.5337710000000  0.4453930000000 1.0
C      1  0.4823700000000  0.5376640000000  0.5633400000000 1.0
C      1  0.4564950000000  0.4526740000000  0.4792180000000 1.0
C      1  0.4848320000000  0.5800830000000  0.4875980000000 1.0
C      1  0.4504270000000  0.4615380000000  0.5725910000000 1.0
C      1  0.5348950000000  0.5367070000000  0.4849570000000 1.0
C      1  0.5018070000000  0.5191040000000  0.4510010000000 1.0
C      1  0.5412460000000  0.4304840000000  0.4697260000000 1.0
C      1  0.5018130000000  0.5253090000000  0.4076180000000 1.0
C      1  0.5627810000000  0.5234740000000  0.4780130000000 1.0
C      1  0.4458070000000  0.5114780000000  0.4275970000000 1.0
C      1  0.5793080000000  0.5336400000000  0.5270760000000 1.0
C      1  0.4708290000000  0.5499620000000  0.4447470000000 1.0
C      1  0.4742780000000  0.4366520000000  0.4610650000000 1.0
C      1  0.4183670000000  0.4672880000000  0.4555960000000 1.0
C      1  0.4348980000000  0.4821620000000  0.5557710000000 1.0
C      1  0.5713530000000  0.4685540000000  0.5201010000000 1.0
C      1  0.5803110000000  0.5346530000000  0.4985730000000 1.0
C      1  0.4445820000000  0.4770280000000  0.4426830000000 1.0
C      1  0.4858480000000  0.5457670000000  0.4204280000000 1.0
C      1  0.5487690000000  0.5358770000000  0.4314180000000 1.0
C      1  0.4873430000000  0.4984830000000  0.4063160000000 1.0
C      1  0.4108070000000  0.4867240000000  0.4784090000000 1.0
C      1  0.5170830000000  0.5480960000000  0.4628930000000 1.0
C      1  0.4795830000000  0.4971660000000  0.5944900000000 1.0
C      1  0.5659620000000  0.4356710000000  0.4850270000000 1.0
C      1  0.5043890000000  0.4750110000000  0.4145260000000 1.0
C      1  0.4911110000000  0.4187190000000  0.4791380000000 1.0
C      1  0.5273300000000  0.5860940000000  0.5340490000000 1.0
C      1  0.5331050000000  0.5283950000000  0.5505600000000 1.0
C      1  0.5116820000000  0.4426590000000  0.4339300000000 1.0
C      1  0.4454490000000  0.4462160000000  0.5272990000000 1.0
C      1  0.4200490000000  0.5598800000000  0.5061670000000 1.0
C      1  0.4852860000000  0.4497540000000  0.4373070000000 1.0
C      1  0.5705130000000  0.4829370000000  0.4530440000000 1.0
C      1  0.5477960000000  0.4888750000000  0.5621580000000 1.0
C      1  0.5169230000000  0.4625730000000  0.5037200000000 1.0
C      1  0.5292000000000  0.4773430000000  0.5296090000000 1.0
C      1  0.4737300000000  0.4694750000000  0.5888960000000 1.0
C      1  0.5842180000000  0.5040080000000  0.4383340000000 1.0
C      1  0.5696750000000  0.4878910000000  0.5425110000000 1.0
C      1  0.4811990000000  0.5747700000000  0.5176770000000 1.0
C      1  0.5059170000000  0.5061590000000  0.5834540000000 1.0
C      1  0.4823430000000  0.5304630000000  0.5345180000000 1.0
C      1  0.5349230000000  0.4479230000000  0.5529610000000 1.0
C      1  0.4655430000000  0.5500220000000  0.5193290000000 1.0
C      1  0.5625230000000  0.4940850000000  0.4802820000000 1.0
C      1  0.4363220000000  0.5280680000000  0.4721470000000 1.0
C      1  0.5712350000000  0.5269640000000  0.4486820000000 1.0
C      1  0.4373430000000  0.5000400000000  0.4832520000000 1.0
C      1  0.4557450000000  0.5130110000000  0.5925040000000 1.0
C      1  0.4288710000000  0.5204640000000  0.5293370000000 1.0
C      1  0.5193020000000  0.4220040000000  0.4880850000000 1.0
C      1  0.4650390000000  0.5654450000000  0.4707130000000 1.0
C      1  0.5227110000000  0.4821170000000  0.5771650000000 1.0
C      1  0.5018280000000  0.5764250000000  0.5395270000000 1.0
C      1  0.5110070000000  0.5756260000000  0.4757290000000 1.0
C      1  0.5490800000000  0.5635150000000  0.4945590000000 1.0
C      1  0.4590230000000  0.4414540000000  0.5530830000000 1.0
C      1  0.4955450000000  0.4169730000000  0.5292140000000 1.0
C      1  0.5106390000000  0.4975210000000  0.5405070000000 1.0
C      1  0.4113310000000  0.4638570000000  0.4990420000000 1.0
C      1  0.4588120000000  0.5013600000000  0.5557950000000 1.0
C      1  0.4970430000000  0.5632270000000  0.5653840000000 1.0
C      1  0.5340350000000  0.5934070000000  0.4763020000000 1.0
C      1  0.5171580000000  0.5213910000000  0.5034780000000 1.0
C      1  0.5149600000000  0.4728750000000  0.4750540000000 1.0
C      1  0.4437080000000  0.5519290000000  0.4874500000000 1.0
C      1  0.4431660000000  0.4981230000000  0.5134870000000 1.0
C      1  0.4266770000000  0.4462030000000  0.4774070000000 1.0
C      1  0.5184910000000  0.5337510000000  0.5770380000000 1.0
C      1  0.5828880000000  0.4786330000000  0.4951500000000 1.0
C      1  0.5526480000000  0.4471260000000  0.5093630000000 1.0
C      1  0.4073700000000  0.5342510000000  0.5140160000000 1.0
C      1  0.4288910000000  0.4710480000000  0.5254760000000 1.0
C      1  0.5862950000000  0.5099570000000  0.5399580000000 1.0
C      1  0.5095150000000  0.4482310000000  0.5671250000000 1.0
C      1  0.5120220000000  0.5350210000000  0.5280680000000 1.0
C      1  0.4596360000000  0.4822820000000  0.4692400000000 1.0
C      1  0.4732860000000  0.5013690000000  0.4315960000000 1.0
C      1  0.5438960000000  0.4294580000000  0.5316750000000 1.0
C      1  0.5849510000000  0.4562040000000  0.4753000000000 1.0
C      1  0.4933220000000  0.4943960000000  0.4701870000000 1.0
C      1  0.5246690000000  0.5159710000000  0.4272720000000 1.0
C      1  0.4665640000000  0.4463620000000  0.5075080000000 1.0
C      1  0.5370130000000  0.5595400000000  0.4435890000000 1.0
C      1  0.5224780000000  0.4151490000000  0.5170060000000 1.0
C      1  0.4379630000000  0.5509570000000  0.5313060000000 1.0
C      1  0.5292020000000  0.4541700000000  0.4544430000000 1.0
C      1  0.5480730000000  0.5700480000000  0.5240910000000 1.0
C      1  0.4883850000000  0.4374370000000  0.5498000000000 1.0
C      1  0.4855720000000  0.4811920000000  0.5538210000000 1.0
END
