TITL C-951342-2639-547 -2.34015561324812e-06 125000 -1070.60136731939 0 0 171 (C1) n - 1
REM
REM in /home/bkarasulu/work/CARBON/AIRSS/Generating-Clusters/EDIP-Nigel-Params/with-SteepDescent/Only-C1/SD-CG/HFTN-CG
REM
REM
REM
REM
REM
REM ./C.cell (11c1c37f851c82e70ff6c80c92926a4b)
REM
REM compiler GCC version 9.2.1 20190827 (Red Hat 9.2.1-1)
REM options -cpp -mtune=generic -march=x86-64 -g -O0 -fpre-include=/usr/include/finclude/math-vector-fortran.h
REM seed -583651526 367188375 1723865055 580231908 -138652226 330596275 -1879820590 210627796 1395281236 27444326 939565997 1457887296 1773691859 -505838897 -807438635 198982721 1162386209 -1293298590 1769820040 1295080849 -1734730047 -2146685987 -938586939 -587704470 6879608 -987438778 1623012959 -1072906705 -208172031 -1358593816 -1990613760 1606723592 1674855845
REM
CELL 1.54180   50.00000   50.00000   50.00000   90.00000   90.00000   90.00000
LATT -1
SFAC C  
C      1  0.5188030000000  0.5459650000000  0.5429010000000 1.0
C      1  0.4559580000000  0.5056010000000  0.5684260000000 1.0
C      1  0.4886660000000  0.5171530000000  0.4818790000000 1.0
C      1  0.4582960000000  0.4827660000000  0.4650190000000 1.0
C      1  0.4649240000000  0.4667210000000  0.5104930000000 1.0
C      1  0.5857860000000  0.5094310000000  0.4977650000000 1.0
C      1  0.5498080000000  0.4427010000000  0.5487760000000 1.0
C      1  0.5633940000000  0.4732230000000  0.4137160000000 1.0
C      1  0.5398160000000  0.4017600000000  0.4972430000000 1.0
C      1  0.4036150000000  0.4351120000000  0.4893440000000 1.0
C      1  0.4403210000000  0.5127200000000  0.4273100000000 1.0
C      1  0.4908020000000  0.6151970000000  0.5196280000000 1.0
C      1  0.4190270000000  0.5323310000000  0.4606800000000 1.0
C      1  0.4635150000000  0.5546570000000  0.4516360000000 1.0
C      1  0.5192880000000  0.5895770000000  0.5554860000000 1.0
C      1  0.3798030000000  0.5156220000000  0.4907030000000 1.0
C      1  0.5317510000000  0.5898910000000  0.4397470000000 1.0
C      1  0.5207610000000  0.5335490000000  0.5157610000000 1.0
C      1  0.4443350000000  0.5618350000000  0.5448960000000 1.0
C      1  0.5697520000000  0.5244460000000  0.4220780000000 1.0
C      1  0.5489270000000  0.5269630000000  0.5922210000000 1.0
C      1  0.4470420000000  0.5360810000000  0.4707070000000 1.0
C      1  0.4872310000000  0.4782020000000  0.3843750000000 1.0
C      1  0.5704210000000  0.5437330000000  0.4763690000000 1.0
C      1  0.5088210000000  0.5208180000000  0.6139430000000 1.0
C      1  0.4727410000000  0.5582060000000  0.5085800000000 1.0
C      1  0.4978820000000  0.4269780000000  0.5469560000000 1.0
C      1  0.3987100000000  0.4953110000000  0.4486930000000 1.0
C      1  0.4936980000000  0.5774310000000  0.5612240000000 1.0
C      1  0.4733670000000  0.4415920000000  0.5867160000000 1.0
C      1  0.4567760000000  0.5099840000000  0.6169790000000 1.0
C      1  0.4965430000000  0.4598520000000  0.5960860000000 1.0
C      1  0.4303980000000  0.4719750000000  0.4681280000000 1.0
C      1  0.4595440000000  0.5360280000000  0.3918380000000 1.0
C      1  0.3910540000000  0.4943720000000  0.4760130000000 1.0
C      1  0.5231350000000  0.4409270000000  0.4268470000000 1.0
C      1  0.4580190000000  0.4533660000000  0.5617430000000 1.0
C      1  0.4806270000000  0.5195540000000  0.6047980000000 1.0
C      1  0.4193910000000  0.5676990000000  0.4447310000000 1.0
C      1  0.5746290000000  0.5434550000000  0.5287080000000 1.0
C      1  0.4965480000000  0.4355080000000  0.4153170000000 1.0
C      1  0.5162220000000  0.4237480000000  0.5924910000000 1.0
C      1  0.4523310000000  0.4078680000000  0.5376750000000 1.0
C      1  0.5171980000000  0.4516220000000  0.4542170000000 1.0
C      1  0.4736310000000  0.4786950000000  0.4385480000000 1.0
C      1  0.4199230000000  0.5559430000000  0.5083340000000 1.0
C      1  0.4975000000000  0.4303930000000  0.4964840000000 1.0
C      1  0.5859030000000  0.4792590000000  0.5349580000000 1.0
C      1  0.5948960000000  0.4476100000000  0.4438130000000 1.0
C      1  0.4028650000000  0.4579800000000  0.5075010000000 1.0
C      1  0.5626460000000  0.4802540000000  0.5805290000000 1.0
C      1  0.5086280000000  0.5301880000000  0.5679170000000 1.0
C      1  0.5092350000000  0.4024500000000  0.5046700000000 1.0
C      1  0.5720610000000  0.5793090000000  0.5023720000000 1.0
C      1  0.4139970000000  0.4404380000000  0.5399240000000 1.0
C      1  0.5222020000000  0.5010860000000  0.4383960000000 1.0
C      1  0.4961030000000  0.4811290000000  0.5763350000000 1.0
C      1  0.4291120000000  0.5368040000000  0.5855680000000 1.0
C      1  0.5366090000000  0.4458740000000  0.4774710000000 1.0
C      1  0.4439870000000  0.5622600000000  0.4300650000000 1.0
C      1  0.4199450000000  0.4871150000000  0.5448880000000 1.0
C      1  0.4956000000000  0.4331720000000  0.4657000000000 1.0
C      1  0.5092520000000  0.5618550000000  0.4760620000000 1.0
C      1  0.4793970000000  0.5229190000000  0.5350720000000 1.0
C      1  0.4476350000000  0.5786590000000  0.5696480000000 1.0
C      1  0.4374400000000  0.5115790000000  0.5458320000000 1.0
C      1  0.5735650000000  0.4522550000000  0.5336740000000 1.0
C      1  0.4043160000000  0.5396620000000  0.5278890000000 1.0
C      1  0.5044920000000  0.4806500000000  0.4511340000000 1.0
C      1  0.4756130000000  0.4672040000000  0.4836420000000 1.0
C      1  0.6202610000000  0.5259110000000  0.4924650000000 1.0
C      1  0.4273350000000  0.4412730000000  0.4458310000000 1.0
C      1  0.4241210000000  0.5377520000000  0.5529820000000 1.0
C      1  0.5196270000000  0.4490530000000  0.5041520000000 1.0
C      1  0.5943480000000  0.4291360000000  0.4647090000000 1.0
C      1  0.4759180000000  0.4183170000000  0.4351590000000 1.0
C      1  0.5655930000000  0.5362420000000  0.5710670000000 1.0
C      1  0.4938310000000  0.4517820000000  0.3924090000000 1.0
C      1  0.5616000000000  0.4104860000000  0.5167670000000 1.0
C      1  0.6080140000000  0.4689150000000  0.4918370000000 1.0
C      1  0.5987920000000  0.4401890000000  0.4920170000000 1.0
C      1  0.4275200000000  0.4227370000000  0.4976260000000 1.0
C      1  0.4811040000000  0.4789730000000  0.5305990000000 1.0
C      1  0.5830290000000  0.4929350000000  0.4550300000000 1.0
C      1  0.4267500000000  0.4178060000000  0.5264820000000 1.0
C      1  0.5385140000000  0.5688500000000  0.5454700000000 1.0
C      1  0.5840830000000  0.4913950000000  0.5621740000000 1.0
C      1  0.5534600000000  0.5359930000000  0.5050040000000 1.0
C      1  0.5195770000000  0.5947790000000  0.4856050000000 1.0
C      1  0.5015930000000  0.5872990000000  0.4358180000000 1.0
C      1  0.4870100000000  0.5300830000000  0.3921140000000 1.0
C      1  0.4968230000000  0.5756880000000  0.4107810000000 1.0
C      1  0.5695040000000  0.5020520000000  0.5217920000000 1.0
C      1  0.4544040000000  0.4590400000000  0.4112730000000 1.0
C      1  0.4283820000000  0.4603520000000  0.5546510000000 1.0
C      1  0.4710180000000  0.5952780000000  0.5617070000000 1.0
C      1  0.5164760000000  0.6083640000000  0.5323690000000 1.0
C      1  0.6023810000000  0.5482220000000  0.4860640000000 1.0
C      1  0.4930930000000  0.4212800000000  0.5764440000000 1.0
C      1  0.6197970000000  0.5097530000000  0.5161170000000 1.0
C      1  0.4533760000000  0.5173680000000  0.5211700000000 1.0
C      1  0.4752640000000  0.5533290000000  0.5384780000000 1.0
C      1  0.4623910000000  0.5113650000000  0.4726780000000 1.0
C      1  0.5513110000000  0.4122040000000  0.5444420000000 1.0
C      1  0.4967720000000  0.4036140000000  0.4543500000000 1.0
C      1  0.4671100000000  0.3959770000000  0.4921770000000 1.0
C      1  0.4987630000000  0.5023210000000  0.5222760000000 1.0
C      1  0.4612100000000  0.4821530000000  0.3959180000000 1.0
C      1  0.5476890000000  0.5624760000000  0.4450250000000 1.0
C      1  0.4688850000000  0.4326580000000  0.5388860000000 1.0
C      1  0.5451130000000  0.4170880000000  0.4726030000000 1.0
C      1  0.4607410000000  0.5864320000000  0.5054210000000 1.0
C      1  0.4661150000000  0.5010990000000  0.4181620000000 1.0
C      1  0.5223280000000  0.5394380000000  0.5943050000000 1.0
C      1  0.5678320000000  0.5182180000000  0.4517080000000 1.0
C      1  0.5402170000000  0.4985830000000  0.5903460000000 1.0
C      1  0.5716510000000  0.4131560000000  0.4643830000000 1.0
C      1  0.5482930000000  0.5776340000000  0.5185090000000 1.0
C      1  0.5421680000000  0.4546260000000  0.4112070000000 1.0
C      1  0.5414950000000  0.6002070000000  0.4659750000000 1.0
C      1  0.4895510000000  0.3864350000000  0.4771250000000 1.0
C      1  0.5046460000000  0.4927600000000  0.4805360000000 1.0
C      1  0.5666520000000  0.5828010000000  0.4727950000000 1.0
C      1  0.5240240000000  0.4865420000000  0.5376150000000 1.0
C      1  0.5323780000000  0.5017320000000  0.4872370000000 1.0
C      1  0.5570200000000  0.5014380000000  0.4056900000000 1.0
C      1  0.4751150000000  0.5326130000000  0.5779450000000 1.0
C      1  0.4939920000000  0.6113620000000  0.4894050000000 1.0
C      1  0.4720530000000  0.5962080000000  0.4778250000000 1.0
C      1  0.4725340000000  0.4799310000000  0.5591410000000 1.0
C      1  0.5867150000000  0.4860050000000  0.4816600000000 1.0
C      1  0.5249030000000  0.4963270000000  0.6158600000000 1.0
C      1  0.4333200000000  0.5791900000000  0.5206230000000 1.0
C      1  0.4195640000000  0.4905430000000  0.4296500000000 1.0
C      1  0.3962780000000  0.4894070000000  0.5292900000000 1.0
C      1  0.6126420000000  0.4812240000000  0.5194010000000 1.0
C      1  0.4631750000000  0.3894410000000  0.5191960000000 1.0
C      1  0.3997280000000  0.5492590000000  0.4498660000000 1.0
C      1  0.5045440000000  0.5507470000000  0.4012890000000 1.0
C      1  0.5223130000000  0.4531600000000  0.5359180000000 1.0
C      1  0.5804760000000  0.4706480000000  0.4373370000000 1.0
C      1  0.5183760000000  0.4991740000000  0.5678430000000 1.0
C      1  0.5275600000000  0.5076430000000  0.4092690000000 1.0
C      1  0.4473730000000  0.4124220000000  0.4793440000000 1.0
C      1  0.5535640000000  0.5489540000000  0.4185880000000 1.0
C      1  0.4388740000000  0.5092420000000  0.5945920000000 1.0
C      1  0.5291470000000  0.5455590000000  0.4600340000000 1.0
C      1  0.5067570000000  0.4012430000000  0.5347720000000 1.0
C      1  0.5289980000000  0.5372510000000  0.4081050000000 1.0
C      1  0.5375770000000  0.5161650000000  0.4596070000000 1.0
C      1  0.5332620000000  0.5994000000000  0.5107660000000 1.0
C      1  0.3933770000000  0.5147660000000  0.5155840000000 1.0
C      1  0.4855260000000  0.5750550000000  0.4596130000000 1.0
C      1  0.5301410000000  0.3941850000000  0.5480940000000 1.0
C      1  0.5762710000000  0.4357320000000  0.5107520000000 1.0
C      1  0.4677710000000  0.4371880000000  0.5082640000000 1.0
C      1  0.4471670000000  0.5414030000000  0.5019060000000 1.0
C      1  0.4393860000000  0.5383980000000  0.4116950000000 1.0
C      1  0.5016680000000  0.5037110000000  0.3919740000000 1.0
C      1  0.4977740000000  0.5427900000000  0.4958570000000 1.0
C      1  0.5420690000000  0.4954170000000  0.5148270000000 1.0
C      1  0.4530970000000  0.5551480000000  0.5879070000000 1.0
C      1  0.5926960000000  0.5606130000000  0.5111470000000 1.0
C      1  0.5625780000000  0.5621600000000  0.5605680000000 1.0
C      1  0.4671440000000  0.6080710000000  0.5353900000000 1.0
C      1  0.4493710000000  0.4231020000000  0.4518950000000 1.0
C      1  0.5526700000000  0.4527290000000  0.5772400000000 1.0
C      1  0.4298920000000  0.4618660000000  0.4254110000000 1.0
C      1  0.5320800000000  0.4462710000000  0.5962930000000 1.0
C      1  0.4122760000000  0.4801700000000  0.4892310000000 1.0
C      1  0.5850250000000  0.5202430000000  0.5582280000000 1.0
END
