TITL C-951337-3020-558 2.25843476188107e-05 125000 -158.09401245765 0 0 27 (C1) n - 1
REM
REM in /home/bkarasulu/work/CARBON/AIRSS/Generating-Clusters/EDIP-Nigel-Params/with-SteepDescent/Only-C1/SD-CG/HFTN-CG
REM
REM
REM
REM
REM
REM ./C.cell (11c1c37f851c82e70ff6c80c92926a4b)
REM
REM compiler GCC version 9.2.1 20190827 (Red Hat 9.2.1-1)
REM options -cpp -mtune=generic -march=x86-64 -g -O0 -fpre-include=/usr/include/finclude/math-vector-fortran.h
REM seed 1998711953 -318450924 -1393517301 2130436652 -984960232 1767182400 -978824896 2006630167 627766945 189219520 -559053502 -292124273 1936121050 -540536244 -124700648 -650980577 -1483547315 -1118579010 2040496063 -2118220937 -1984546581 -92565439 330102771 -1252413264 -1722725808 -1997279380 488143792 -1206251611 -1584653890 127816261 1048939921 1787558985 10270681
REM
CELL 1.54180   50.00000   50.00000   50.00000   90.00000   90.00000   90.00000
LATT -1
SFAC C  
C      1  0.4545220000000  0.4626820000000  0.5244320000000 1.0
C      1  0.5166420000000  0.4488960000000  0.5125870000000 1.0
C      1  0.4511430000000  0.5086230000000  0.5223600000000 1.0
C      1  0.5094960000000  0.5230570000000  0.4742270000000 1.0
C      1  0.5388460000000  0.4670140000000  0.5141340000000 1.0
C      1  0.5007700000000  0.4962310000000  0.5141640000000 1.0
C      1  0.5128500000000  0.4913910000000  0.5405500000000 1.0
C      1  0.5384830000000  0.4848060000000  0.4891630000000 1.0
C      1  0.5395120000000  0.4821610000000  0.5385240000000 1.0
C      1  0.5012600000000  0.5114140000000  0.5590020000000 1.0
C      1  0.4832520000000  0.5002830000000  0.5776370000000 1.0
C      1  0.5078820000000  0.5317510000000  0.4258540000000 1.0
C      1  0.4953700000000  0.5457450000000  0.4818650000000 1.0
C      1  0.4701560000000  0.4568580000000  0.5029870000000 1.0
C      1  0.5257360000000  0.4905570000000  0.4438320000000 1.0
C      1  0.4820120000000  0.5430710000000  0.5058690000000 1.0
C      1  0.5218110000000  0.5401970000000  0.4026200000000 1.0
C      1  0.4506210000000  0.4860590000000  0.5386170000000 1.0
C      1  0.4874880000000  0.5312560000000  0.5427780000000 1.0
C      1  0.4784740000000  0.5176440000000  0.5191970000000 1.0
C      1  0.5212570000000  0.5084040000000  0.4963910000000 1.0
C      1  0.5126850000000  0.5590190000000  0.4196420000000 1.0
C      1  0.4968630000000  0.4666060000000  0.4744800000000 1.0
C      1  0.5237460000000  0.4725710000000  0.4655330000000 1.0
C      1  0.4630960000000  0.4889380000000  0.5633940000000 1.0
C      1  0.4959850000000  0.4670590000000  0.5023330000000 1.0
C      1  0.5200430000000  0.5177080000000  0.4478300000000 1.0
END
