TITL C-950528-5794-51 -1.3921995946388e-06 125000 -1252.42687955241 0 0 199 (C1) n - 1
REM
REM in /home/bkarasulu/work/CARBON/AIRSS/Generating-Clusters/EDIP-Nigel-Params/with-SteepDescent/Only-C1/SD-CG/HFTN-CG
REM
REM
REM
REM
REM
REM ./C.cell (11c1c37f851c82e70ff6c80c92926a4b)
REM
REM compiler GCC version 9.2.1 20190827 (Red Hat 9.2.1-1)
REM options -cpp -mtune=generic -march=x86-64 -g -O0 -fpre-include=/usr/include/finclude/math-vector-fortran.h
REM seed 1363271943 -1666539166 1629864886 1351688220 1238013347 1111954431 -1054396429 -1150723291 233211980 241002853 -949613701 -286181406 1843187293 1852617601 447165808 1855535084 -1425985829 1617274049 -1257844655 1294574215 -1598309910 -789986261 -57525569 -1799411863 656349122 1353365497 157400315 -253928107 561206593 -1265651439 137529765 1536731296 -1660040686
REM
CELL 1.54180   50.00000   50.00000   50.00000   90.00000   90.00000   90.00000
LATT -1
SFAC C  
C      1  0.4345490000000  0.5948540000000  0.4600720000000 1.0
C      1  0.6011060000000  0.5759300000000  0.4945650000000 1.0
C      1  0.5299980000000  0.5312230000000  0.4554750000000 1.0
C      1  0.4167840000000  0.4890460000000  0.4462140000000 1.0
C      1  0.5418820000000  0.4349530000000  0.5954360000000 1.0
C      1  0.4043580000000  0.4402930000000  0.5003480000000 1.0
C      1  0.4319080000000  0.5678660000000  0.5831330000000 1.0
C      1  0.4562470000000  0.4164240000000  0.5681800000000 1.0
C      1  0.5841140000000  0.5552840000000  0.4846200000000 1.0
C      1  0.5678260000000  0.4502460000000  0.5388800000000 1.0
C      1  0.4713000000000  0.4707090000000  0.5782830000000 1.0
C      1  0.4440280000000  0.5253370000000  0.4665050000000 1.0
C      1  0.5266320000000  0.3839180000000  0.5156910000000 1.0
C      1  0.5722200000000  0.4852560000000  0.4233680000000 1.0
C      1  0.4903120000000  0.4608330000000  0.5562210000000 1.0
C      1  0.4308760000000  0.4204100000000  0.4348630000000 1.0
C      1  0.5448640000000  0.5860840000000  0.5395480000000 1.0
C      1  0.4569260000000  0.5577880000000  0.5913510000000 1.0
C      1  0.5471790000000  0.5647290000000  0.6028940000000 1.0
C      1  0.5411550000000  0.5172420000000  0.5462260000000 1.0
C      1  0.4461690000000  0.4025890000000  0.4808730000000 1.0
C      1  0.5716190000000  0.4704700000000  0.5799910000000 1.0
C      1  0.5459640000000  0.4593810000000  0.5125220000000 1.0
C      1  0.4311420000000  0.5222530000000  0.5788670000000 1.0
C      1  0.5112400000000  0.4598960000000  0.4407970000000 1.0
C      1  0.4757800000000  0.6022390000000  0.4746520000000 1.0
C      1  0.5183860000000  0.4214930000000  0.5168860000000 1.0
C      1  0.5713360000000  0.4268100000000  0.5587100000000 1.0
C      1  0.4807900000000  0.5149330000000  0.6009080000000 1.0
C      1  0.4827110000000  0.4479990000000  0.4765610000000 1.0
C      1  0.4870950000000  0.4197850000000  0.4827100000000 1.0
C      1  0.5970550000000  0.4836740000000  0.5564740000000 1.0
C      1  0.5456520000000  0.4859320000000  0.4402350000000 1.0
C      1  0.5306080000000  0.6184150000000  0.5012180000000 1.0
C      1  0.4775750000000  0.4564790000000  0.5056720000000 1.0
C      1  0.4320010000000  0.4516410000000  0.5869570000000 1.0
C      1  0.5139070000000  0.5092720000000  0.5536490000000 1.0
C      1  0.5861400000000  0.4391450000000  0.4910910000000 1.0
C      1  0.4930210000000  0.5329830000000  0.5557890000000 1.0
C      1  0.4586120000000  0.4493280000000  0.5974590000000 1.0
C      1  0.5164080000000  0.4450300000000  0.5902770000000 1.0
C      1  0.4783450000000  0.4043230000000  0.4379900000000 1.0
C      1  0.5193310000000  0.5460370000000  0.5134110000000 1.0
C      1  0.4596810000000  0.5137380000000  0.4442730000000 1.0
C      1  0.5008590000000  0.5669660000000  0.4744250000000 1.0
C      1  0.5663720000000  0.5416650000000  0.4292220000000 1.0
C      1  0.4802970000000  0.4106440000000  0.5541050000000 1.0
C      1  0.5025200000000  0.4184210000000  0.4281260000000 1.0
C      1  0.4199100000000  0.4226570000000  0.5186420000000 1.0
C      1  0.5007450000000  0.4366490000000  0.4048460000000 1.0
C      1  0.5281060000000  0.3917540000000  0.4631760000000 1.0
C      1  0.4404820000000  0.4657320000000  0.4168260000000 1.0
C      1  0.6003470000000  0.5143940000000  0.5564120000000 1.0
C      1  0.5609110000000  0.4188290000000  0.4953450000000 1.0
C      1  0.4012140000000  0.5350530000000  0.5254190000000 1.0
C      1  0.5338140000000  0.4915050000000  0.6091140000000 1.0
C      1  0.5950650000000  0.4615830000000  0.5348210000000 1.0
C      1  0.4236090000000  0.5035890000000  0.4716500000000 1.0
C      1  0.5561510000000  0.4036830000000  0.4702020000000 1.0
C      1  0.5433790000000  0.4886970000000  0.4730630000000 1.0
C      1  0.4922340000000  0.5078990000000  0.3936330000000 1.0
C      1  0.5060720000000  0.6199270000000  0.5145080000000 1.0
C      1  0.5676060000000  0.4402760000000  0.5856550000000 1.0
C      1  0.5522460000000  0.4858740000000  0.3801780000000 1.0
C      1  0.4501040000000  0.4631870000000  0.5390670000000 1.0
C      1  0.5579030000000  0.5592800000000  0.5392660000000 1.0
C      1  0.4611760000000  0.5034540000000  0.3940280000000 1.0
C      1  0.4961980000000  0.5858180000000  0.5788590000000 1.0
C      1  0.4305450000000  0.4215710000000  0.4641880000000 1.0
C      1  0.4211860000000  0.5467570000000  0.5677810000000 1.0
C      1  0.5005870000000  0.5558310000000  0.5335120000000 1.0
C      1  0.4133320000000  0.4989590000000  0.5795680000000 1.0
C      1  0.5536900000000  0.3967640000000  0.5223180000000 1.0
C      1  0.5832440000000  0.5255020000000  0.4457510000000 1.0
C      1  0.5443280000000  0.5372400000000  0.5251220000000 1.0
C      1  0.6026380000000  0.5029750000000  0.5087670000000 1.0
C      1  0.5004710000000  0.5069180000000  0.4227800000000 1.0
C      1  0.4412660000000  0.5455470000000  0.4155320000000 1.0
C      1  0.5567400000000  0.6030030000000  0.5126990000000 1.0
C      1  0.4392580000000  0.4790400000000  0.4869990000000 1.0
C      1  0.5867530000000  0.5598460000000  0.5359980000000 1.0
C      1  0.6104670000000  0.5105070000000  0.4806960000000 1.0
C      1  0.4857180000000  0.4607840000000  0.3936110000000 1.0
C      1  0.4903090000000  0.4791900000000  0.4331540000000 1.0
C      1  0.3997980000000  0.5408430000000  0.4965390000000 1.0
C      1  0.5484360000000  0.4114160000000  0.5485580000000 1.0
C      1  0.5713860000000  0.5189420000000  0.5986180000000 1.0
C      1  0.4802750000000  0.4972330000000  0.5271090000000 1.0
C      1  0.5033740000000  0.4345400000000  0.5629440000000 1.0
C      1  0.5314540000000  0.4567420000000  0.4182530000000 1.0
C      1  0.5994150000000  0.5322660000000  0.5331220000000 1.0
C      1  0.4176700000000  0.4463270000000  0.4246140000000 1.0
C      1  0.4302720000000  0.4976250000000  0.5307380000000 1.0
C      1  0.4560900000000  0.4574160000000  0.4617730000000 1.0
C      1  0.4653510000000  0.4221810000000  0.5943930000000 1.0
C      1  0.5129600000000  0.4740260000000  0.5982430000000 1.0
C      1  0.5927680000000  0.5001740000000  0.4377350000000 1.0
C      1  0.4882490000000  0.4946870000000  0.4800140000000 1.0
C      1  0.4967190000000  0.3800010000000  0.5111200000000 1.0
C      1  0.4175050000000  0.5029720000000  0.4215240000000 1.0
C      1  0.4233080000000  0.4769760000000  0.5917620000000 1.0
C      1  0.4720510000000  0.4871980000000  0.4550980000000 1.0
C      1  0.4162670000000  0.5625930000000  0.4861010000000 1.0
C      1  0.4009670000000  0.5048060000000  0.5319960000000 1.0
C      1  0.4305030000000  0.4723780000000  0.5156710000000 1.0
C      1  0.4130030000000  0.4321640000000  0.5462160000000 1.0
C      1  0.5626270000000  0.5938240000000  0.4823700000000 1.0
C      1  0.5511190000000  0.5977470000000  0.5662430000000 1.0
C      1  0.4728680000000  0.5614860000000  0.5222700000000 1.0
C      1  0.3856620000000  0.4883110000000  0.5117710000000 1.0
C      1  0.5040300000000  0.4815390000000  0.3835040000000 1.0
C      1  0.5719330000000  0.4997890000000  0.5117170000000 1.0
C      1  0.4154680000000  0.4444680000000  0.4732480000000 1.0
C      1  0.4868040000000  0.4868900000000  0.5964300000000 1.0
C      1  0.5125230000000  0.4538110000000  0.4705950000000 1.0
C      1  0.5039580000000  0.5857780000000  0.4348090000000 1.0
C      1  0.4706940000000  0.5538250000000  0.4160550000000 1.0
C      1  0.4389000000000  0.6040960000000  0.4878080000000 1.0
C      1  0.3768480000000  0.4987720000000  0.4874660000000 1.0
C      1  0.4705830000000  0.4849430000000  0.5019620000000 1.0
C      1  0.5782320000000  0.4388290000000  0.4409150000000 1.0
C      1  0.5478950000000  0.5357410000000  0.6020530000000 1.0
C      1  0.5005550000000  0.5278710000000  0.6152400000000 1.0
C      1  0.5353990000000  0.4362920000000  0.4964590000000 1.0
C      1  0.5143770000000  0.5833320000000  0.5383650000000 1.0
C      1  0.4840390000000  0.5305270000000  0.4357310000000 1.0
C      1  0.3881150000000  0.4595490000000  0.5171460000000 1.0
C      1  0.5038630000000  0.6032130000000  0.4603320000000 1.0
C      1  0.5007690000000  0.5390700000000  0.4606160000000 1.0
C      1  0.4890200000000  0.5233630000000  0.4825200000000 1.0
C      1  0.5918650000000  0.5249080000000  0.5807560000000 1.0
C      1  0.5630610000000  0.4762410000000  0.4941280000000 1.0
C      1  0.4255140000000  0.5838460000000  0.5033530000000 1.0
C      1  0.4743470000000  0.4007640000000  0.5251170000000 1.0
C      1  0.5206010000000  0.4752840000000  0.5147450000000 1.0
C      1  0.4758130000000  0.5801970000000  0.4291320000000 1.0
C      1  0.3971710000000  0.5166620000000  0.4799270000000 1.0
C      1  0.4740080000000  0.3977300000000  0.4691980000000 1.0
C      1  0.5552590000000  0.4216070000000  0.4454230000000 1.0
C      1  0.5249670000000  0.5665710000000  0.4255130000000 1.0
C      1  0.5581770000000  0.5242950000000  0.5017720000000 1.0
C      1  0.5307120000000  0.5114010000000  0.4314690000000 1.0
C      1  0.4728710000000  0.5663260000000  0.4903620000000 1.0
C      1  0.4676840000000  0.5169720000000  0.5446640000000 1.0
C      1  0.5798310000000  0.4573010000000  0.4196750000000 1.0
C      1  0.4628100000000  0.4515680000000  0.4301140000000 1.0
C      1  0.3955840000000  0.4914550000000  0.5579150000000 1.0
C      1  0.5157400000000  0.4800740000000  0.4845160000000 1.0
C      1  0.4894480000000  0.4237490000000  0.5127980000000 1.0
C      1  0.5650420000000  0.5017790000000  0.3988770000000 1.0
C      1  0.4446960000000  0.4062970000000  0.5104760000000 1.0
C      1  0.4574640000000  0.4737690000000  0.3932070000000 1.0
C      1  0.5959680000000  0.4425710000000  0.4636740000000 1.0
C      1  0.5249190000000  0.5824320000000  0.5896650000000 1.0
C      1  0.4237720000000  0.5566920000000  0.4345700000000 1.0
C      1  0.5976350000000  0.5349160000000  0.4685840000000 1.0
C      1  0.5540720000000  0.5654160000000  0.4770950000000 1.0
C      1  0.4788200000000  0.6183010000000  0.5156610000000 1.0
C      1  0.4168900000000  0.5714030000000  0.4578750000000 1.0
C      1  0.4762010000000  0.5648480000000  0.5697540000000 1.0
C      1  0.5018250000000  0.5366160000000  0.3874980000000 1.0
C      1  0.5549700000000  0.4719000000000  0.5544080000000 1.0
C      1  0.5033340000000  0.4839180000000  0.5388670000000 1.0
C      1  0.4073680000000  0.4606390000000  0.4491180000000 1.0
C      1  0.4987760000000  0.6028340000000  0.5549590000000 1.0
C      1  0.4809050000000  0.5546890000000  0.3889860000000 1.0
C      1  0.5462320000000  0.5567080000000  0.4456450000000 1.0
C      1  0.5259410000000  0.4298530000000  0.5437890000000 1.0
C      1  0.5278040000000  0.4073150000000  0.4369600000000 1.0
C      1  0.5619460000000  0.4909310000000  0.6003130000000 1.0
C      1  0.5408170000000  0.5167160000000  0.4793390000000 1.0
C      1  0.5483560000000  0.5256760000000  0.4105140000000 1.0
C      1  0.5874240000000  0.5840200000000  0.5176010000000 1.0
C      1  0.6151850000000  0.4628620000000  0.4610850000000 1.0
C      1  0.5528680000000  0.6113400000000  0.4622590000000 1.0
C      1  0.5252490000000  0.5642100000000  0.4916530000000 1.0
C      1  0.4249400000000  0.5487870000000  0.5381130000000 1.0
C      1  0.4305620000000  0.5779110000000  0.5319050000000 1.0
C      1  0.4911530000000  0.3753890000000  0.4819670000000 1.0
C      1  0.5275800000000  0.6181480000000  0.4720610000000 1.0
C      1  0.4510850000000  0.4885200000000  0.5596150000000 1.0
C      1  0.5259610000000  0.5463610000000  0.4022290000000 1.0
C      1  0.4549280000000  0.5286030000000  0.5958970000000 1.0
C      1  0.5271510000000  0.5197300000000  0.6138730000000 1.0
C      1  0.4583940000000  0.4213740000000  0.4242980000000 1.0
C      1  0.5144220000000  0.3676560000000  0.4677550000000 1.0
C      1  0.4614340000000  0.5873570000000  0.4533860000000 1.0
C      1  0.3946640000000  0.4560190000000  0.5454990000000 1.0
C      1  0.5631150000000  0.4974650000000  0.5420280000000 1.0
C      1  0.6059700000000  0.4892880000000  0.4606710000000 1.0
C      1  0.5982630000000  0.4642680000000  0.5062300000000 1.0
C      1  0.4382610000000  0.4402460000000  0.5589630000000 1.0
C      1  0.4601210000000  0.5805370000000  0.5427240000000 1.0
C      1  0.4436130000000  0.5153190000000  0.4172880000000 1.0
C      1  0.5302460000000  0.4750130000000  0.3939070000000 1.0
C      1  0.4521830000000  0.5356040000000  0.5261720000000 1.0
C      1  0.4624060000000  0.5347710000000  0.4886160000000 1.0
C      1  0.5639510000000  0.5816210000000  0.5860480000000 1.0
C      1  0.4728630000000  0.6076040000000  0.5410720000000 1.0
END
