TITL C-951348-1603-379 8.96637850642321e-07 125000 -1157.46118857298 0 0 185 (C1) n - 1
REM
REM in /home/bkarasulu/work/CARBON/AIRSS/Generating-Clusters/EDIP-Nigel-Params/with-SteepDescent/Only-C1/SD-CG/HFTN-CG
REM
REM
REM
REM
REM
REM ./C.cell (11c1c37f851c82e70ff6c80c92926a4b)
REM
REM compiler GCC version 9.2.1 20190827 (Red Hat 9.2.1-1)
REM options -cpp -mtune=generic -march=x86-64 -g -O0 -fpre-include=/usr/include/finclude/math-vector-fortran.h
REM seed -1431646086 2035210910 -446162305 -755946353 -41299365 1138886074 -281001512 -1409404671 466981371 -1754137258 -2009961652 1725625648 -1609570297 1266248063 -1274871272 1844812417 -1779023500 1349810962 583334041 -1913013624 -1341225238 1029002405 1403901254 1062361455 1613986716 -326058730 -1077810269 -1338653595 1792350027 728907238 1033005494 1549056720 104653051
REM
CELL 1.54180   50.00000   50.00000   50.00000   90.00000   90.00000   90.00000
LATT -1
SFAC C  
C      1  0.4362110000000  0.5518590000000  0.5852510000000 1.0
C      1  0.4670630000000  0.4911910000000  0.4766360000000 1.0
C      1  0.4972590000000  0.4908890000000  0.5296380000000 1.0
C      1  0.3897940000000  0.4483080000000  0.4845160000000 1.0
C      1  0.4988510000000  0.5806850000000  0.4052790000000 1.0
C      1  0.4966260000000  0.6012070000000  0.5279100000000 1.0
C      1  0.5014860000000  0.5541810000000  0.4455990000000 1.0
C      1  0.4225500000000  0.4945030000000  0.4320530000000 1.0
C      1  0.5079710000000  0.5335170000000  0.5529960000000 1.0
C      1  0.4466730000000  0.4471140000000  0.5866920000000 1.0
C      1  0.5424330000000  0.6086880000000  0.4901380000000 1.0
C      1  0.4163260000000  0.5175260000000  0.5576780000000 1.0
C      1  0.5425650000000  0.5558230000000  0.4181550000000 1.0
C      1  0.5686610000000  0.5067150000000  0.5868900000000 1.0
C      1  0.5560100000000  0.4526460000000  0.4206000000000 1.0
C      1  0.5684280000000  0.5643810000000  0.4119820000000 1.0
C      1  0.5296830000000  0.5658280000000  0.4448470000000 1.0
C      1  0.4498830000000  0.4684550000000  0.5188930000000 1.0
C      1  0.4329680000000  0.5105110000000  0.5049960000000 1.0
C      1  0.4830390000000  0.4786590000000  0.4050070000000 1.0
C      1  0.5761350000000  0.5236640000000  0.4868560000000 1.0
C      1  0.4372680000000  0.4391040000000  0.4161560000000 1.0
C      1  0.4909410000000  0.5339050000000  0.4982940000000 1.0
C      1  0.4658750000000  0.4174560000000  0.5491720000000 1.0
C      1  0.4632160000000  0.4734580000000  0.4518790000000 1.0
C      1  0.4289500000000  0.4256820000000  0.5086980000000 1.0
C      1  0.6099760000000  0.4777530000000  0.4797780000000 1.0
C      1  0.4589970000000  0.5088990000000  0.5510000000000 1.0
C      1  0.3991690000000  0.5036260000000  0.5367670000000 1.0
C      1  0.4397360000000  0.5642320000000  0.5397820000000 1.0
C      1  0.5959180000000  0.5131210000000  0.5354620000000 1.0
C      1  0.4186070000000  0.4445420000000  0.4369750000000 1.0
C      1  0.5623360000000  0.4047070000000  0.5273670000000 1.0
C      1  0.5783290000000  0.4820450000000  0.5738800000000 1.0
C      1  0.5476610000000  0.4302590000000  0.4393650000000 1.0
C      1  0.4036410000000  0.5139640000000  0.5076940000000 1.0
C      1  0.4959740000000  0.5776890000000  0.4870950000000 1.0
C      1  0.4848410000000  0.4889580000000  0.4350810000000 1.0
C      1  0.4997190000000  0.5387150000000  0.6164420000000 1.0
C      1  0.5404700000000  0.5863170000000  0.5622850000000 1.0
C      1  0.4834660000000  0.5534780000000  0.5220650000000 1.0
C      1  0.4646380000000  0.4345440000000  0.4220890000000 1.0
C      1  0.5797360000000  0.4229080000000  0.5395100000000 1.0
C      1  0.5358740000000  0.4031060000000  0.5184200000000 1.0
C      1  0.4789880000000  0.5076380000000  0.5090370000000 1.0
C      1  0.4297690000000  0.4836350000000  0.4057500000000 1.0
C      1  0.5770480000000  0.5284280000000  0.5724860000000 1.0
C      1  0.5311780000000  0.5969500000000  0.4411200000000 1.0
C      1  0.5099940000000  0.5203970000000  0.3916470000000 1.0
C      1  0.4885270000000  0.4971370000000  0.5937300000000 1.0
C      1  0.4374270000000  0.4145130000000  0.5383020000000 1.0
C      1  0.5799800000000  0.5703380000000  0.4366490000000 1.0
C      1  0.4965510000000  0.5260950000000  0.4360450000000 1.0
C      1  0.5106230000000  0.5558320000000  0.5976730000000 1.0
C      1  0.5634290000000  0.4656990000000  0.4661520000000 1.0
C      1  0.5228250000000  0.4166900000000  0.4298860000000 1.0
C      1  0.5082320000000  0.3833500000000  0.4721490000000 1.0
C      1  0.4474300000000  0.5630040000000  0.4804100000000 1.0
C      1  0.4544640000000  0.5468240000000  0.5210640000000 1.0
C      1  0.5422670000000  0.4544050000000  0.6016240000000 1.0
C      1  0.3956590000000  0.5048270000000  0.4342220000000 1.0
C      1  0.4221530000000  0.5472740000000  0.5592680000000 1.0
C      1  0.5261500000000  0.5441170000000  0.5226510000000 1.0
C      1  0.5084090000000  0.4762730000000  0.4776890000000 1.0
C      1  0.4247670000000  0.4701430000000  0.4515220000000 1.0
C      1  0.5346860000000  0.4532200000000  0.4000850000000 1.0
C      1  0.4847980000000  0.4473280000000  0.4050150000000 1.0
C      1  0.6044430000000  0.5513940000000  0.5051870000000 1.0
C      1  0.4543820000000  0.5181770000000  0.5230850000000 1.0
C      1  0.3982120000000  0.4738570000000  0.5363980000000 1.0
C      1  0.3966850000000  0.5430230000000  0.4986150000000 1.0
C      1  0.5290480000000  0.4765700000000  0.3858940000000 1.0
C      1  0.4050200000000  0.5678760000000  0.5087350000000 1.0
C      1  0.5286470000000  0.4936560000000  0.4923460000000 1.0
C      1  0.5056390000000  0.4914180000000  0.3881510000000 1.0
C      1  0.4566980000000  0.4778430000000  0.5473420000000 1.0
C      1  0.4692290000000  0.4427480000000  0.4506070000000 1.0
C      1  0.6004930000000  0.5573710000000  0.4780590000000 1.0
C      1  0.5449810000000  0.4925670000000  0.5419860000000 1.0
C      1  0.4831200000000  0.4210840000000  0.4939260000000 1.0
C      1  0.5634960000000  0.4567320000000  0.5800800000000 1.0
C      1  0.5938570000000  0.5185050000000  0.4486510000000 1.0
C      1  0.4213000000000  0.5059860000000  0.5850440000000 1.0
C      1  0.5904910000000  0.5484000000000  0.4533770000000 1.0
C      1  0.5376660000000  0.5279790000000  0.4095970000000 1.0
C      1  0.4659760000000  0.5597250000000  0.5772760000000 1.0
C      1  0.4445570000000  0.5184390000000  0.4350220000000 1.0
C      1  0.5207610000000  0.4338550000000  0.5984040000000 1.0
C      1  0.4862700000000  0.5311100000000  0.4079000000000 1.0
C      1  0.5353190000000  0.4756470000000  0.6184820000000 1.0
C      1  0.4600510000000  0.5164170000000  0.4093110000000 1.0
C      1  0.4500800000000  0.4959040000000  0.5980810000000 1.0
C      1  0.4763610000000  0.5380670000000  0.5573390000000 1.0
C      1  0.5425950000000  0.5651260000000  0.4764690000000 1.0
C      1  0.4902100000000  0.3803310000000  0.5197830000000 1.0
C      1  0.4103920000000  0.4561070000000  0.5562800000000 1.0
C      1  0.5494840000000  0.5377070000000  0.4854090000000 1.0
C      1  0.4790810000000  0.5604190000000  0.4033050000000 1.0
C      1  0.4625600000000  0.5172800000000  0.4604850000000 1.0
C      1  0.5093670000000  0.4576810000000  0.5608490000000 1.0
C      1  0.4347580000000  0.5472110000000  0.4289080000000 1.0
C      1  0.4498910000000  0.5855280000000  0.5002150000000 1.0
C      1  0.5781090000000  0.5011730000000  0.4288950000000 1.0
C      1  0.5092250000000  0.4781210000000  0.4487970000000 1.0
C      1  0.4072850000000  0.4705760000000  0.4789740000000 1.0
C      1  0.5542760000000  0.5476020000000  0.5370790000000 1.0
C      1  0.5376360000000  0.3754020000000  0.4798050000000 1.0
C      1  0.4898380000000  0.4614470000000  0.5363490000000 1.0
C      1  0.5464520000000  0.5591690000000  0.5636160000000 1.0
C      1  0.5911180000000  0.4569510000000  0.4725450000000 1.0
C      1  0.5327270000000  0.4920740000000  0.4413160000000 1.0
C      1  0.4756150000000  0.5709240000000  0.4484310000000 1.0
C      1  0.5271350000000  0.5971970000000  0.5155840000000 1.0
C      1  0.5577800000000  0.4676010000000  0.5374980000000 1.0
C      1  0.5267640000000  0.4334900000000  0.5548360000000 1.0
C      1  0.5835420000000  0.4699430000000  0.5263330000000 1.0
C      1  0.5241520000000  0.5233850000000  0.4896260000000 1.0
C      1  0.5704370000000  0.4346370000000  0.5637400000000 1.0
C      1  0.4875170000000  0.5925060000000  0.5542000000000 1.0
C      1  0.5305410000000  0.4169130000000  0.5779060000000 1.0
C      1  0.4846950000000  0.5998560000000  0.4462470000000 1.0
C      1  0.4950720000000  0.4470250000000  0.5857690000000 1.0
C      1  0.4429750000000  0.4854780000000  0.4947820000000 1.0
C      1  0.5390460000000  0.5102840000000  0.5877250000000 1.0
C      1  0.5245560000000  0.4915780000000  0.5205590000000 1.0
C      1  0.5614970000000  0.5889240000000  0.4776250000000 1.0
C      1  0.5279300000000  0.4896400000000  0.5668040000000 1.0
C      1  0.4851620000000  0.4690880000000  0.6028200000000 1.0
C      1  0.3938630000000  0.5406520000000  0.4693730000000 1.0
C      1  0.5248540000000  0.5181000000000  0.4333940000000 1.0
C      1  0.4309500000000  0.5709030000000  0.4580900000000 1.0
C      1  0.5265270000000  0.5410770000000  0.5767810000000 1.0
C      1  0.5257030000000  0.3780160000000  0.5071000000000 1.0
C      1  0.5302480000000  0.5027830000000  0.6149990000000 1.0
C      1  0.4059450000000  0.5592200000000  0.4511440000000 1.0
C      1  0.4870550000000  0.3913300000000  0.4934050000000 1.0
C      1  0.6086900000000  0.5065090000000  0.4731470000000 1.0
C      1  0.5008910000000  0.4389880000000  0.5151130000000 1.0
C      1  0.5811270000000  0.4890530000000  0.5014620000000 1.0
C      1  0.5477880000000  0.5944220000000  0.5366770000000 1.0
C      1  0.5594470000000  0.4780980000000  0.4381840000000 1.0
C      1  0.4486660000000  0.4287680000000  0.4660500000000 1.0
C      1  0.5054240000000  0.6006870000000  0.4244070000000 1.0
C      1  0.5022880000000  0.5029460000000  0.5578550000000 1.0
C      1  0.4905820000000  0.4012380000000  0.5406330000000 1.0
C      1  0.4225500000000  0.4559240000000  0.5140560000000 1.0
C      1  0.4172060000000  0.4292360000000  0.5514660000000 1.0
C      1  0.4563600000000  0.4671080000000  0.6066040000000 1.0
C      1  0.4267140000000  0.5818830000000  0.5198790000000 1.0
C      1  0.5676370000000  0.5206070000000  0.5450940000000 1.0
C      1  0.5024090000000  0.5111680000000  0.6158020000000 1.0
C      1  0.4558330000000  0.4906160000000  0.3965760000000 1.0
C      1  0.5146640000000  0.4185420000000  0.5326570000000 1.0
C      1  0.4970570000000  0.6035680000000  0.4725080000000 1.0
C      1  0.5969000000000  0.4854230000000  0.5481950000000 1.0
C      1  0.5927880000000  0.4414630000000  0.5201580000000 1.0
C      1  0.4304020000000  0.5289070000000  0.6016140000000 1.0
C      1  0.5224500000000  0.5700230000000  0.5001920000000 1.0
C      1  0.4698310000000  0.4316970000000  0.5754690000000 1.0
C      1  0.4348450000000  0.4676410000000  0.5679130000000 1.0
C      1  0.5605950000000  0.4213720000000  0.4863500000000 1.0
C      1  0.4796450000000  0.5820290000000  0.5109620000000 1.0
C      1  0.4585060000000  0.5661900000000  0.4238450000000 1.0
C      1  0.4212830000000  0.4246010000000  0.4589230000000 1.0
C      1  0.4541060000000  0.4258670000000  0.4931580000000 1.0
C      1  0.5245190000000  0.6116620000000  0.4667830000000 1.0
C      1  0.4710000000000  0.5430080000000  0.4746140000000 1.0
C      1  0.6078230000000  0.5223630000000  0.5091400000000 1.0
C      1  0.4605950000000  0.5799830000000  0.5563590000000 1.0
C      1  0.5124470000000  0.4380350000000  0.4111970000000 1.0
C      1  0.5879240000000  0.4333920000000  0.4912060000000 1.0
C      1  0.5579350000000  0.3946040000000  0.4776130000000 1.0
C      1  0.3933270000000  0.4963550000000  0.4844050000000 1.0
C      1  0.5562520000000  0.4845310000000  0.4866050000000 1.0
C      1  0.3917320000000  0.5132460000000  0.4608030000000 1.0
C      1  0.5725130000000  0.5861210000000  0.5273410000000 1.0
C      1  0.5870530000000  0.5630080000000  0.5248510000000 1.0
C      1  0.4909790000000  0.5742120000000  0.5877320000000 1.0
C      1  0.5459620000000  0.4405970000000  0.4682730000000 1.0
C      1  0.4942650000000  0.4308910000000  0.4667140000000 1.0
C      1  0.5680060000000  0.5935000000000  0.4495750000000 1.0
C      1  0.5635050000000  0.5143280000000  0.4084060000000 1.0
C      1  0.5059920000000  0.4075830000000  0.4529330000000 1.0
C      1  0.4067870000000  0.4263670000000  0.4852550000000 1.0
C      1  0.5160540000000  0.4479040000000  0.4804560000000 1.0
END
