TITL C-950533-5798-259 -8.62785663825549e-07 125000 -157.259510478678 0 0 27 (C1) n - 1
REM
REM in /home/bkarasulu/work/CARBON/AIRSS/Generating-Clusters/EDIP-Nigel-Params/with-SteepDescent/Only-C1/SD-CG/HFTN-CG
REM
REM
REM
REM
REM
REM ./C.cell (11c1c37f851c82e70ff6c80c92926a4b)
REM
REM compiler GCC version 9.2.1 20190827 (Red Hat 9.2.1-1)
REM options -cpp -mtune=generic -march=x86-64 -g -O0 -fpre-include=/usr/include/finclude/math-vector-fortran.h
REM seed -1417918794 441855843 1199065419 -1296611848 -125830337 -2068155552 -942103787 401029203 -170805041 -307624997 2141186548 -939199510 1771900264 -1603720844 -1679099247 -1955085074 659873059 1107855675 -490040384 296763456 817603018 -18525906 -418964340 331083256 1358376427 601885142 2050660121 1719902115 795797261 -1803023072 976964329 -1401300180 -1747705130
REM
CELL 1.54180   50.00000   50.00000   50.00000   90.00000   90.00000   90.00000
LATT -1
SFAC C  
C      1  0.5116290000000  0.4638050000000  0.5360320000000 1.0
C      1  0.4923020000000  0.4727630000000  0.4403880000000 1.0
C      1  0.5685090000000  0.5180150000000  0.5252050000000 1.0
C      1  0.4882360000000  0.5034040000000  0.5170880000000 1.0
C      1  0.5296510000000  0.5297010000000  0.4628650000000 1.0
C      1  0.4644050000000  0.4720890000000  0.4381910000000 1.0
C      1  0.4471730000000  0.5093300000000  0.5015420000000 1.0
C      1  0.5000910000000  0.4748140000000  0.5576610000000 1.0
C      1  0.4540400000000  0.4877850000000  0.4575240000000 1.0
C      1  0.5197450000000  0.5214880000000  0.5282260000000 1.0
C      1  0.4885960000000  0.5396550000000  0.4962720000000 1.0
C      1  0.4683050000000  0.4999830000000  0.5395710000000 1.0
C      1  0.5001830000000  0.5402440000000  0.5211110000000 1.0
C      1  0.4270670000000  0.4930560000000  0.5111390000000 1.0
C      1  0.5053270000000  0.4641290000000  0.4887800000000 1.0
C      1  0.5049900000000  0.5193080000000  0.4557590000000 1.0
C      1  0.4607280000000  0.5064380000000  0.4768620000000 1.0
C      1  0.5031830000000  0.4982960000000  0.4376920000000 1.0
C      1  0.5023390000000  0.4765430000000  0.5131400000000 1.0
C      1  0.4801000000000  0.4918710000000  0.5635500000000 1.0
C      1  0.5430770000000  0.5183020000000  0.5115910000000 1.0
C      1  0.4852960000000  0.5206300000000  0.4764680000000 1.0
C      1  0.5423400000000  0.5303770000000  0.4865130000000 1.0
C      1  0.5906010000000  0.5016260000000  0.5182470000000 1.0
C      1  0.4420070000000  0.4898370000000  0.5342520000000 1.0
C      1  0.5779580000000  0.4968690000000  0.5415940000000 1.0
C      1  0.5021230000000  0.4596400000000  0.4627380000000 1.0
END
