TITL C-950536-5891-583 6.219661758769e-07 125000 -96.7719917251587 0 0 18 (C1) n - 1
REM
REM in /home/bkarasulu/work/CARBON/AIRSS/Generating-Clusters/EDIP-Nigel-Params/with-SteepDescent/Only-C1/SD-CG/HFTN-CG
REM
REM
REM
REM
REM
REM ./C.cell (11c1c37f851c82e70ff6c80c92926a4b)
REM
REM compiler GCC version 9.2.1 20190827 (Red Hat 9.2.1-1)
REM options -cpp -mtune=generic -march=x86-64 -g -O0 -fpre-include=/usr/include/finclude/math-vector-fortran.h
REM seed 1930947767 767729460 -451272055 1201859653 -1603223829 -1510698588 1555821756 270787795 423443070 148595065 1713993087 -981450175 -553638318 -476467588 730047263 -136209826 1156852069 937447619 -743669474 159622953 -1910310050 -843812783 1208234614 -1891786439 -2109278544 -1456371363 351745159 -209068694 1445779192 -2004295618 -214912992 1107703773 -830142507
REM
CELL 1.54180   50.00000   50.00000   50.00000   90.00000   90.00000   90.00000
LATT -1
SFAC C  
C      1  0.4671450000000  0.4902470000000  0.5455540000000 1.0
C      1  0.5114740000000  0.4763260000000  0.4892520000000 1.0
C      1  0.5195480000000  0.4811560000000  0.4634900000000 1.0
C      1  0.5252010000000  0.4877210000000  0.4385330000000 1.0
C      1  0.5170710000000  0.5027420000000  0.5295840000000 1.0
C      1  0.4940870000000  0.5211640000000  0.4906190000000 1.0
C      1  0.4875390000000  0.5020380000000  0.5606970000000 1.0
C      1  0.4888490000000  0.5439160000000  0.4781450000000 1.0
C      1  0.5056180000000  0.5198950000000  0.5492630000000 1.0
C      1  0.5317260000000  0.4931440000000  0.4144110000000 1.0
C      1  0.4838480000000  0.5664610000000  0.4653830000000 1.0
C      1  0.4776080000000  0.4585300000000  0.5260320000000 1.0
C      1  0.5180020000000  0.4525280000000  0.5023180000000 1.0
C      1  0.5167080000000  0.4773180000000  0.5427960000000 1.0
C      1  0.5063830000000  0.4549730000000  0.5280230000000 1.0
C      1  0.4718940000000  0.4859100000000  0.5168090000000 1.0
C      1  0.4788400000000  0.5884090000000  0.4532550000000 1.0
C      1  0.4984610000000  0.4975220000000  0.5058370000000 1.0
END
