TITL C-950529-3362-169 3.38703197301046e-06 125000 -963.310439886291 0 0 156 (C1) n - 1
REM
REM in /home/bkarasulu/work/CARBON/AIRSS/Generating-Clusters/EDIP-Nigel-Params/with-SteepDescent/Only-C1/SD-CG/HFTN-CG
REM
REM
REM
REM
REM
REM ./C.cell (11c1c37f851c82e70ff6c80c92926a4b)
REM
REM compiler GCC version 9.2.1 20190827 (Red Hat 9.2.1-1)
REM options -cpp -mtune=generic -march=x86-64 -g -O0 -fpre-include=/usr/include/finclude/math-vector-fortran.h
REM seed 1122118168 -1327707368 -410733859 425445629 1965706747 -1553670021 1902860528 -208996601 1651683333 -1148737505 1214920106 -488323163 -58515678 -1206213109 -258254451 -1899985321 -1518157506 2139439942 -73585602 1549461630 1416754732 473419140 -973909320 1124169993 -1691947917 -2036970689 -1535750655 -1710309482 -253730350 -1827730577 -1426814241 1345130170 -614486042
REM
CELL 1.54180   50.00000   50.00000   50.00000   90.00000   90.00000   90.00000
LATT -1
SFAC C  
C      1  0.4828980000000  0.5356370000000  0.5454470000000 1.0
C      1  0.5848940000000  0.5329700000000  0.5727730000000 1.0
C      1  0.5489580000000  0.4798390000000  0.5158530000000 1.0
C      1  0.5207820000000  0.5174860000000  0.4967550000000 1.0
C      1  0.4013290000000  0.4670620000000  0.4825350000000 1.0
C      1  0.4990790000000  0.5283310000000  0.4568640000000 1.0
C      1  0.4537270000000  0.4596540000000  0.5504950000000 1.0
C      1  0.4693530000000  0.5099510000000  0.5594480000000 1.0
C      1  0.5331090000000  0.4936080000000  0.6020880000000 1.0
C      1  0.4011380000000  0.4888520000000  0.5347160000000 1.0
C      1  0.4052280000000  0.4768850000000  0.5597180000000 1.0
C      1  0.5269120000000  0.5077380000000  0.5542020000000 1.0
C      1  0.4684340000000  0.4988590000000  0.6082260000000 1.0
C      1  0.4114060000000  0.4311850000000  0.4944730000000 1.0
C      1  0.4455020000000  0.4665680000000  0.5787430000000 1.0
C      1  0.5575120000000  0.4443120000000  0.5789380000000 1.0
C      1  0.4158040000000  0.5277180000000  0.5083750000000 1.0
C      1  0.5716700000000  0.4069390000000  0.5213900000000 1.0
C      1  0.4485150000000  0.5071080000000  0.3920320000000 1.0
C      1  0.5563540000000  0.4050220000000  0.4983020000000 1.0
C      1  0.4268350000000  0.4891200000000  0.5741590000000 1.0
C      1  0.5929750000000  0.4661220000000  0.4679510000000 1.0
C      1  0.4924020000000  0.4448920000000  0.5544520000000 1.0
C      1  0.4743810000000  0.5206030000000  0.5895200000000 1.0
C      1  0.5440450000000  0.5540890000000  0.5917770000000 1.0
C      1  0.4396010000000  0.5191340000000  0.4891850000000 1.0
C      1  0.4929270000000  0.4639850000000  0.5791350000000 1.0
C      1  0.4985190000000  0.4492070000000  0.5163250000000 1.0
C      1  0.5543280000000  0.4482050000000  0.4377060000000 1.0
C      1  0.4078710000000  0.5495910000000  0.4690690000000 1.0
C      1  0.4272120000000  0.4523140000000  0.4789700000000 1.0
C      1  0.4486850000000  0.5935860000000  0.4903910000000 1.0
C      1  0.5803300000000  0.5595660000000  0.5270010000000 1.0
C      1  0.5523070000000  0.5397150000000  0.4502340000000 1.0
C      1  0.4824490000000  0.4012640000000  0.5235420000000 1.0
C      1  0.4728680000000  0.5449600000000  0.5139250000000 1.0
C      1  0.5101090000000  0.5283720000000  0.4042170000000 1.0
C      1  0.4695290000000  0.4746250000000  0.5933110000000 1.0
C      1  0.5020320000000  0.5340960000000  0.5931570000000 1.0
C      1  0.5473940000000  0.4855230000000  0.5518360000000 1.0
C      1  0.5932470000000  0.5108660000000  0.5302350000000 1.0
C      1  0.5820850000000  0.4586780000000  0.5702290000000 1.0
C      1  0.5636150000000  0.4322580000000  0.5327470000000 1.0
C      1  0.4273460000000  0.4706010000000  0.4150080000000 1.0
C      1  0.5591560000000  0.5704360000000  0.4862100000000 1.0
C      1  0.5525380000000  0.4977560000000  0.4626270000000 1.0
C      1  0.4747690000000  0.4083360000000  0.4284190000000 1.0
C      1  0.4621500000000  0.5749760000000  0.5472480000000 1.0
C      1  0.4763280000000  0.5199230000000  0.4399490000000 1.0
C      1  0.5316590000000  0.4927120000000  0.4169620000000 1.0
C      1  0.5538790000000  0.4243540000000  0.4529470000000 1.0
C      1  0.5688380000000  0.4216450000000  0.4768700000000 1.0
C      1  0.5186110000000  0.4247580000000  0.4158930000000 1.0
C      1  0.4011540000000  0.4799500000000  0.4569220000000 1.0
C      1  0.5026910000000  0.4101220000000  0.4335800000000 1.0
C      1  0.5243610000000  0.4695680000000  0.4012290000000 1.0
C      1  0.4985290000000  0.4780000000000  0.5096540000000 1.0
C      1  0.5723710000000  0.5502850000000  0.4698050000000 1.0
C      1  0.5727670000000  0.5814290000000  0.5090290000000 1.0
C      1  0.5465560000000  0.4255040000000  0.5567230000000 1.0
C      1  0.4903900000000  0.6076960000000  0.4848130000000 1.0
C      1  0.5610660000000  0.4886140000000  0.4891030000000 1.0
C      1  0.6009540000000  0.4883240000000  0.5142490000000 1.0
C      1  0.5161400000000  0.4258590000000  0.5494800000000 1.0
C      1  0.4799920000000  0.3947260000000  0.4938860000000 1.0
C      1  0.4496230000000  0.5347870000000  0.4425980000000 1.0
C      1  0.5897430000000  0.4407690000000  0.4805160000000 1.0
C      1  0.4710570000000  0.6047010000000  0.5070620000000 1.0
C      1  0.4342180000000  0.5078550000000  0.4382280000000 1.0
C      1  0.5186540000000  0.5570520000000  0.5788910000000 1.0
C      1  0.4310310000000  0.5391790000000  0.5621860000000 1.0
C      1  0.4962000000000  0.5133110000000  0.4812980000000 1.0
C      1  0.5227680000000  0.4411290000000  0.4679890000000 1.0
C      1  0.4010540000000  0.5524190000000  0.4977800000000 1.0
C      1  0.4985630000000  0.5522870000000  0.4195050000000 1.0
C      1  0.5253840000000  0.4087070000000  0.5029680000000 1.0
C      1  0.4112380000000  0.5069760000000  0.4572300000000 1.0
C      1  0.4278510000000  0.4624120000000  0.5321360000000 1.0
C      1  0.4640070000000  0.4870250000000  0.4448800000000 1.0
C      1  0.4748340000000  0.5680960000000  0.4281820000000 1.0
C      1  0.5204830000000  0.5836590000000  0.5609420000000 1.0
C      1  0.5323070000000  0.4857810000000  0.4462480000000 1.0
C      1  0.4272080000000  0.5003240000000  0.4097660000000 1.0
C      1  0.4760500000000  0.5585430000000  0.5665620000000 1.0
C      1  0.5532710000000  0.6002620000000  0.5231080000000 1.0
C      1  0.4194400000000  0.4632940000000  0.4421000000000 1.0
C      1  0.5903780000000  0.4925660000000  0.4864270000000 1.0
C      1  0.4886970000000  0.4667350000000  0.4375070000000 1.0
C      1  0.4547530000000  0.5455110000000  0.5854200000000 1.0
C      1  0.5883850000000  0.5298600000000  0.4846870000000 1.0
C      1  0.4257590000000  0.5645740000000  0.5144150000000 1.0
C      1  0.4988960000000  0.4987730000000  0.3978890000000 1.0
C      1  0.5182440000000  0.5166210000000  0.6077680000000 1.0
C      1  0.4486710000000  0.5638050000000  0.4954250000000 1.0
C      1  0.5191290000000  0.4715370000000  0.5882100000000 1.0
C      1  0.5473010000000  0.4500900000000  0.5136700000000 1.0
C      1  0.5543860000000  0.5079800000000  0.4038290000000 1.0
C      1  0.4919300000000  0.5780740000000  0.4750720000000 1.0
C      1  0.4021990000000  0.5339310000000  0.5574780000000 1.0
C      1  0.4746830000000  0.6194350000000  0.4634760000000 1.0
C      1  0.5127640000000  0.5308000000000  0.5436070000000 1.0
C      1  0.4665560000000  0.4792390000000  0.4741470000000 1.0
C      1  0.5768490000000  0.4655020000000  0.4438550000000 1.0
C      1  0.4679470000000  0.4462360000000  0.4299640000000 1.0
C      1  0.4159400000000  0.4359690000000  0.5249430000000 1.0
C      1  0.4640520000000  0.4254020000000  0.5308470000000 1.0
C      1  0.5243580000000  0.5462790000000  0.4630030000000 1.0
C      1  0.4541440000000  0.5990410000000  0.4613810000000 1.0
C      1  0.5357580000000  0.4465540000000  0.4144090000000 1.0
C      1  0.5111110000000  0.5830100000000  0.5308010000000 1.0
C      1  0.4325080000000  0.4074810000000  0.4954260000000 1.0
C      1  0.4401740000000  0.5109620000000  0.5579430000000 1.0
C      1  0.4574720000000  0.4085650000000  0.4793320000000 1.0
C      1  0.4949460000000  0.4831100000000  0.4796190000000 1.0
C      1  0.5616870000000  0.5479060000000  0.5711540000000 1.0
C      1  0.4379230000000  0.5436440000000  0.4709580000000 1.0
C      1  0.4959450000000  0.5577370000000  0.4977550000000 1.0
C      1  0.3936430000000  0.5288770000000  0.4566170000000 1.0
C      1  0.4725070000000  0.4833590000000  0.5452180000000 1.0
C      1  0.4711380000000  0.4895570000000  0.5170960000000 1.0
C      1  0.4806880000000  0.5862130000000  0.5276920000000 1.0
C      1  0.5277740000000  0.5525570000000  0.5301010000000 1.0
C      1  0.4395900000000  0.5581850000000  0.5402780000000 1.0
C      1  0.5289440000000  0.6004380000000  0.5050850000000 1.0
C      1  0.5753890000000  0.5082370000000  0.4483800000000 1.0
C      1  0.5880200000000  0.5342250000000  0.5139220000000 1.0
C      1  0.5110770000000  0.4684570000000  0.4578890000000 1.0
C      1  0.5538660000000  0.5486980000000  0.4213840000000 1.0
C      1  0.4709680000000  0.4410620000000  0.5060840000000 1.0
C      1  0.5907280000000  0.5093130000000  0.5594030000000 1.0
C      1  0.4553740000000  0.4636170000000  0.4085430000000 1.0
C      1  0.4569810000000  0.4146420000000  0.4501000000000 1.0
C      1  0.5724480000000  0.4879980000000  0.5699960000000 1.0
C      1  0.6020470000000  0.4635430000000  0.5262500000000 1.0
C      1  0.5065030000000  0.3986180000000  0.4815350000000 1.0
C      1  0.4363240000000  0.4137860000000  0.5258670000000 1.0
C      1  0.4692200000000  0.4898590000000  0.4008190000000 1.0
C      1  0.4517680000000  0.4630550000000  0.4956520000000 1.0
C      1  0.5233750000000  0.4386560000000  0.5001060000000 1.0
C      1  0.5563760000000  0.5605830000000  0.5454670000000 1.0
C      1  0.5495190000000  0.5896060000000  0.5517830000000 1.0
C      1  0.4676850000000  0.5728370000000  0.4560730000000 1.0
C      1  0.5380490000000  0.5887840000000  0.4780830000000 1.0
C      1  0.5121940000000  0.5768520000000  0.4296440000000 1.0
C      1  0.5876220000000  0.4472640000000  0.5434320000000 1.0
C      1  0.5394230000000  0.5329640000000  0.4005930000000 1.0
C      1  0.5607010000000  0.4952480000000  0.5957390000000 1.0
C      1  0.4035660000000  0.5173770000000  0.5337700000000 1.0
C      1  0.5175960000000  0.5754290000000  0.4594060000000 1.0
C      1  0.5350260000000  0.4612840000000  0.5662910000000 1.0
C      1  0.5218750000000  0.4961480000000  0.5175800000000 1.0
C      1  0.5755920000000  0.5172340000000  0.4211540000000 1.0
C      1  0.5244180000000  0.5465540000000  0.4992950000000 1.0
C      1  0.5114130000000  0.4044910000000  0.5298070000000 1.0
C      1  0.4677100000000  0.5175510000000  0.5010900000000 1.0
C      1  0.5037410000000  0.4192820000000  0.4611310000000 1.0
END
