TITL C-951338-5626-205 -7.83758873305773e-06 125000 -1038.86154906523 0 0 166 (C1) n - 1
REM
REM in /home/bkarasulu/work/CARBON/AIRSS/Generating-Clusters/EDIP-Nigel-Params/with-SteepDescent/Only-C1/SD-CG/HFTN-CG
REM
REM
REM
REM
REM
REM ./C.cell (11c1c37f851c82e70ff6c80c92926a4b)
REM
REM compiler GCC version 9.2.1 20190827 (Red Hat 9.2.1-1)
REM options -cpp -mtune=generic -march=x86-64 -g -O0 -fpre-include=/usr/include/finclude/math-vector-fortran.h
REM seed -73246115 1514513973 -465602851 824402459 -1025561285 236808889 -1663329266 -277273322 1671512677 -424127438 1287122352 -804223264 -279903967 1731769979 -1777711814 -1849103862 1704335448 -702509544 373919464 1461110028 1668603831 351333689 -1349770001 -2045704753 -1292589934 545617242 694923394 -890530427 1697783718 419332197 -1420205557 1261984045 -1528794135
REM
CELL 1.54180   50.00000   50.00000   50.00000   90.00000   90.00000   90.00000
LATT -1
SFAC C  
C      1  0.5283310000000  0.4572020000000  0.5512860000000 1.0
C      1  0.4495780000000  0.5126280000000  0.4835480000000 1.0
C      1  0.5119860000000  0.5721620000000  0.4094450000000 1.0
C      1  0.4405110000000  0.4784090000000  0.5952350000000 1.0
C      1  0.6030870000000  0.4848890000000  0.4895400000000 1.0
C      1  0.4437670000000  0.4968610000000  0.5056580000000 1.0
C      1  0.5749960000000  0.5355440000000  0.5729960000000 1.0
C      1  0.5425880000000  0.5259360000000  0.3908590000000 1.0
C      1  0.6077320000000  0.5305410000000  0.5029900000000 1.0
C      1  0.4763160000000  0.4350270000000  0.4064960000000 1.0
C      1  0.4211590000000  0.4942630000000  0.4333180000000 1.0
C      1  0.5679530000000  0.4218600000000  0.5460310000000 1.0
C      1  0.4434700000000  0.4170180000000  0.5355120000000 1.0
C      1  0.5486460000000  0.4353010000000  0.4793720000000 1.0
C      1  0.4576220000000  0.5174630000000  0.4405430000000 1.0
C      1  0.5334730000000  0.4629030000000  0.4808180000000 1.0
C      1  0.5304400000000  0.5202740000000  0.5917410000000 1.0
C      1  0.4899990000000  0.5585860000000  0.4219300000000 1.0
C      1  0.5351680000000  0.5727010000000  0.4262720000000 1.0
C      1  0.5057240000000  0.5646660000000  0.5677980000000 1.0
C      1  0.5107950000000  0.5941170000000  0.5279820000000 1.0
C      1  0.5287800000000  0.6040200000000  0.5083820000000 1.0
C      1  0.5766740000000  0.4968370000000  0.4208820000000 1.0
C      1  0.4962640000000  0.5403300000000  0.4448230000000 1.0
C      1  0.5552320000000  0.5033290000000  0.4406270000000 1.0
C      1  0.5291680000000  0.5790170000000  0.4545580000000 1.0
C      1  0.4600730000000  0.4873650000000  0.5512370000000 1.0
C      1  0.4390840000000  0.5555570000000  0.5875080000000 1.0
C      1  0.4418800000000  0.5564440000000  0.5404460000000 1.0
C      1  0.5781750000000  0.4436360000000  0.4745640000000 1.0
C      1  0.5944560000000  0.4782850000000  0.4394620000000 1.0
C      1  0.4991230000000  0.4237540000000  0.5701150000000 1.0
C      1  0.5114590000000  0.4187640000000  0.4383320000000 1.0
C      1  0.4651690000000  0.5693120000000  0.5818840000000 1.0
C      1  0.4195650000000  0.4511720000000  0.5115050000000 1.0
C      1  0.4366060000000  0.4206500000000  0.4420730000000 1.0
C      1  0.4866250000000  0.5540360000000  0.6000700000000 1.0
C      1  0.4374470000000  0.4345120000000  0.5818970000000 1.0
C      1  0.3954100000000  0.5055780000000  0.4773510000000 1.0
C      1  0.6096100000000  0.4912510000000  0.4615480000000 1.0
C      1  0.4871300000000  0.4596910000000  0.4906850000000 1.0
C      1  0.5742630000000  0.5910260000000  0.4887620000000 1.0
C      1  0.4482680000000  0.4525520000000  0.6008870000000 1.0
C      1  0.5059950000000  0.5950900000000  0.4629100000000 1.0
C      1  0.5569000000000  0.4422530000000  0.4325770000000 1.0
C      1  0.4664080000000  0.5715870000000  0.5507540000000 1.0
C      1  0.4618490000000  0.5664190000000  0.4230690000000 1.0
C      1  0.4229360000000  0.5539810000000  0.5628350000000 1.0
C      1  0.5663680000000  0.4916640000000  0.5885320000000 1.0
C      1  0.4652000000000  0.4581050000000  0.5513380000000 1.0
C      1  0.4815110000000  0.5033010000000  0.5869230000000 1.0
C      1  0.5914600000000  0.5190690000000  0.5571460000000 1.0
C      1  0.4564100000000  0.5805890000000  0.4483450000000 1.0
C      1  0.6125380000000  0.5336900000000  0.4742840000000 1.0
C      1  0.3888570000000  0.4879220000000  0.5002310000000 1.0
C      1  0.5076760000000  0.4491150000000  0.4704040000000 1.0
C      1  0.5553720000000  0.4785400000000  0.5235180000000 1.0
C      1  0.5539480000000  0.5923060000000  0.5071480000000 1.0
C      1  0.4307130000000  0.4228350000000  0.5093700000000 1.0
C      1  0.4333280000000  0.5728470000000  0.4660690000000 1.0
C      1  0.5800000000000  0.4531160000000  0.4471850000000 1.0
C      1  0.4974900000000  0.4927140000000  0.4561710000000 1.0
C      1  0.4450000000000  0.4775380000000  0.4277210000000 1.0
C      1  0.5057620000000  0.4321170000000  0.4121500000000 1.0
C      1  0.4047860000000  0.4873440000000  0.4562570000000 1.0
C      1  0.4039830000000  0.5338620000000  0.4817380000000 1.0
C      1  0.5949770000000  0.5713060000000  0.4906770000000 1.0
C      1  0.5659950000000  0.5615020000000  0.5665240000000 1.0
C      1  0.4514260000000  0.4230320000000  0.4879540000000 1.0
C      1  0.4404730000000  0.5784630000000  0.4940820000000 1.0
C      1  0.4589140000000  0.4525990000000  0.4804170000000 1.0
C      1  0.5215830000000  0.5874670000000  0.5555720000000 1.0
C      1  0.4905620000000  0.4828040000000  0.6073600000000 1.0
C      1  0.6226640000000  0.5151430000000  0.4557090000000 1.0
C      1  0.4420880000000  0.4678780000000  0.5005350000000 1.0
C      1  0.5331570000000  0.5250440000000  0.4725470000000 1.0
C      1  0.4888930000000  0.5559030000000  0.5231360000000 1.0
C      1  0.5241870000000  0.5356260000000  0.4473420000000 1.0
C      1  0.4681620000000  0.5887670000000  0.4959940000000 1.0
C      1  0.5293690000000  0.4760030000000  0.5094970000000 1.0
C      1  0.4817030000000  0.5489800000000  0.4709700000000 1.0
C      1  0.4750140000000  0.3851060000000  0.5136400000000 1.0
C      1  0.5678830000000  0.5492830000000  0.4575410000000 1.0
C      1  0.5595720000000  0.5537580000000  0.4277760000000 1.0
C      1  0.5652310000000  0.5315350000000  0.4082380000000 1.0
C      1  0.4155010000000  0.4560190000000  0.5408600000000 1.0
C      1  0.4161400000000  0.4384380000000  0.4502530000000 1.0
C      1  0.5691380000000  0.4285100000000  0.5179110000000 1.0
C      1  0.5606040000000  0.5197020000000  0.5927490000000 1.0
C      1  0.4867480000000  0.4510250000000  0.5725130000000 1.0
C      1  0.4853100000000  0.4042480000000  0.5563820000000 1.0
C      1  0.5487220000000  0.5809630000000  0.5589630000000 1.0
C      1  0.5337580000000  0.5231560000000  0.5184140000000 1.0
C      1  0.4685260000000  0.4019820000000  0.5347130000000 1.0
C      1  0.5295550000000  0.5110320000000  0.5620830000000 1.0
C      1  0.5971500000000  0.5566940000000  0.4651020000000 1.0
C      1  0.5912140000000  0.4683060000000  0.5513870000000 1.0
C      1  0.4644370000000  0.5115580000000  0.3955700000000 1.0
C      1  0.3956810000000  0.4590480000000  0.4935710000000 1.0
C      1  0.5141000000000  0.4604020000000  0.4170400000000 1.0
C      1  0.4818960000000  0.5996160000000  0.5208170000000 1.0
C      1  0.5090560000000  0.4703360000000  0.5687070000000 1.0
C      1  0.5698720000000  0.4468790000000  0.5623850000000 1.0
C      1  0.4398550000000  0.4413630000000  0.5536490000000 1.0
C      1  0.4737650000000  0.5276810000000  0.6031520000000 1.0
C      1  0.5477380000000  0.5668540000000  0.4755150000000 1.0
C      1  0.5314650000000  0.5158830000000  0.4269090000000 1.0
C      1  0.4063340000000  0.5431890000000  0.5095730000000 1.0
C      1  0.5018190000000  0.5454610000000  0.5463700000000 1.0
C      1  0.4183970000000  0.5485590000000  0.4611270000000 1.0
C      1  0.4264440000000  0.5642230000000  0.5156110000000 1.0
C      1  0.4643650000000  0.4589740000000  0.4464930000000 1.0
C      1  0.5446360000000  0.4737170000000  0.5952510000000 1.0
C      1  0.5407310000000  0.4088830000000  0.5452490000000 1.0
C      1  0.4893700000000  0.5089290000000  0.5069110000000 1.0
C      1  0.5923180000000  0.4969250000000  0.5397220000000 1.0
C      1  0.5023350000000  0.4975460000000  0.5586770000000 1.0
C      1  0.5136240000000  0.5003640000000  0.5218120000000 1.0
C      1  0.5613940000000  0.5196390000000  0.4653080000000 1.0
C      1  0.4644260000000  0.4316720000000  0.4350310000000 1.0
C      1  0.4723520000000  0.3928970000000  0.4628500000000 1.0
C      1  0.5264280000000  0.5408300000000  0.4959560000000 1.0
C      1  0.4872970000000  0.4896070000000  0.4837410000000 1.0
C      1  0.4523070000000  0.4981290000000  0.5785560000000 1.0
C      1  0.5005790000000  0.4779860000000  0.3975540000000 1.0
C      1  0.5515360000000  0.4860680000000  0.5536040000000 1.0
C      1  0.4447570000000  0.4038920000000  0.4654920000000 1.0
C      1  0.4966270000000  0.4655180000000  0.4458330000000 1.0
C      1  0.4536130000000  0.5338010000000  0.4655500000000 1.0
C      1  0.5140650000000  0.5255960000000  0.3937280000000 1.0
C      1  0.4452840000000  0.5300810000000  0.5989460000000 1.0
C      1  0.3985940000000  0.5256400000000  0.5322770000000 1.0
C      1  0.5158630000000  0.6094890000000  0.4845360000000 1.0
C      1  0.5282360000000  0.4284440000000  0.5644500000000 1.0
C      1  0.4849870000000  0.4166610000000  0.4514050000000 1.0
C      1  0.4807630000000  0.3825670000000  0.4874830000000 1.0
C      1  0.5520530000000  0.4464370000000  0.5867560000000 1.0
C      1  0.3934670000000  0.4972610000000  0.5277360000000 1.0
C      1  0.5624100000000  0.4793520000000  0.4028490000000 1.0
C      1  0.5150330000000  0.4560800000000  0.5244200000000 1.0
C      1  0.5403450000000  0.4156070000000  0.5120180000000 1.0
C      1  0.5290190000000  0.5348890000000  0.5442770000000 1.0
C      1  0.4954280000000  0.5396300000000  0.4986630000000 1.0
C      1  0.4539860000000  0.5311770000000  0.5350750000000 1.0
C      1  0.5972080000000  0.5543640000000  0.5138360000000 1.0
C      1  0.4627050000000  0.5056300000000  0.5264620000000 1.0
C      1  0.4031770000000  0.5345680000000  0.5585740000000 1.0
C      1  0.4032390000000  0.4593790000000  0.4644070000000 1.0
C      1  0.5207550000000  0.4890900000000  0.6067400000000 1.0
C      1  0.5175680000000  0.5492710000000  0.5929360000000 1.0
C      1  0.5445360000000  0.4606890000000  0.4143990000000 1.0
C      1  0.5906350000000  0.4601330000000  0.4948290000000 1.0
C      1  0.5391060000000  0.4260320000000  0.4501650000000 1.0
C      1  0.4872570000000  0.5127170000000  0.4368610000000 1.0
C      1  0.4225930000000  0.5206790000000  0.4216220000000 1.0
C      1  0.4648890000000  0.5993610000000  0.5432830000000 1.0
C      1  0.5767140000000  0.4572130000000  0.5197840000000 1.0
C      1  0.3991550000000  0.4779270000000  0.5473050000000 1.0
C      1  0.4782020000000  0.4548120000000  0.6009840000000 1.0
C      1  0.4794260000000  0.5804500000000  0.4690850000000 1.0
C      1  0.6038930000000  0.5031830000000  0.5125360000000 1.0
C      1  0.4755790000000  0.4630620000000  0.3926220000000 1.0
C      1  0.4492840000000  0.5311870000000  0.4142350000000 1.0
C      1  0.4542470000000  0.4828430000000  0.4000110000000 1.0
C      1  0.4935860000000  0.5066360000000  0.4052230000000 1.0
C      1  0.5146490000000  0.4336880000000  0.5054120000000 1.0
END
