TITL C-950533-5798-644 -1.8515913086761e-06 125000 -550.135338235477 0 0 89 (C1) n - 1
REM
REM in /home/bkarasulu/work/CARBON/AIRSS/Generating-Clusters/EDIP-Nigel-Params/with-SteepDescent/Only-C1/SD-CG/HFTN-CG
REM
REM
REM
REM
REM
REM ./C.cell (11c1c37f851c82e70ff6c80c92926a4b)
REM
REM compiler GCC version 9.2.1 20190827 (Red Hat 9.2.1-1)
REM options -cpp -mtune=generic -march=x86-64 -g -O0 -fpre-include=/usr/include/finclude/math-vector-fortran.h
REM seed -1127619150 1241258350 -154749358 1760971164 1458582363 2124882542 -1108235146 1696141802 -1902510311 -215887354 1856837616 1242290006 1882755765 -1451181003 1700317902 -509983266 1008629581 -1113718365 1234917213 484446522 1040588384 2051668361 406080873 -1496783058 -2035493208 -415623727 -186157740 -818619823 82733058 1183290596 -1518102202 303260910 -996311099
REM
CELL 1.54180   50.00000   50.00000   50.00000   90.00000   90.00000   90.00000
LATT -1
SFAC C  
C      1  0.5810050000000  0.4786210000000  0.4823990000000 1.0
C      1  0.5383840000000  0.5228970000000  0.4575510000000 1.0
C      1  0.4882320000000  0.4783470000000  0.5145930000000 1.0
C      1  0.4426390000000  0.4940680000000  0.5651040000000 1.0
C      1  0.5303860000000  0.5892130000000  0.4716610000000 1.0
C      1  0.5520100000000  0.5037850000000  0.4820320000000 1.0
C      1  0.4798230000000  0.5795460000000  0.4871970000000 1.0
C      1  0.4351640000000  0.4795260000000  0.4869190000000 1.0
C      1  0.4613930000000  0.4583640000000  0.4584360000000 1.0
C      1  0.5847990000000  0.4622240000000  0.5576540000000 1.0
C      1  0.5367140000000  0.4925170000000  0.5812450000000 1.0
C      1  0.5818640000000  0.4902820000000  0.5551190000000 1.0
C      1  0.4472720000000  0.4395630000000  0.5490040000000 1.0
C      1  0.4645660000000  0.4288270000000  0.4648210000000 1.0
C      1  0.4827560000000  0.5373100000000  0.4272490000000 1.0
C      1  0.4752950000000  0.4259780000000  0.5130200000000 1.0
C      1  0.4853370000000  0.5128530000000  0.5768550000000 1.0
C      1  0.4610250000000  0.5166300000000  0.5107240000000 1.0
C      1  0.4286260000000  0.5321000000000  0.4645780000000 1.0
C      1  0.5467710000000  0.4420450000000  0.4671700000000 1.0
C      1  0.4495420000000  0.5600910000000  0.5279740000000 1.0
C      1  0.4680910000000  0.4896430000000  0.5770070000000 1.0
C      1  0.4787910000000  0.4636970000000  0.5757160000000 1.0
C      1  0.5650050000000  0.4527720000000  0.5390640000000 1.0
C      1  0.4919090000000  0.4351930000000  0.5350790000000 1.0
C      1  0.5437870000000  0.5865260000000  0.4997660000000 1.0
C      1  0.5626520000000  0.5062800000000  0.5730120000000 1.0
C      1  0.4680190000000  0.5170430000000  0.4104670000000 1.0
C      1  0.4769720000000  0.5382380000000  0.5637640000000 1.0
C      1  0.5105490000000  0.4769210000000  0.4479770000000 1.0
C      1  0.4962570000000  0.5228650000000  0.5217760000000 1.0
C      1  0.5001920000000  0.5704440000000  0.5313830000000 1.0
C      1  0.5067820000000  0.4089030000000  0.4764030000000 1.0
C      1  0.5583720000000  0.5216360000000  0.5285720000000 1.0
C      1  0.5244180000000  0.5366590000000  0.5639260000000 1.0
C      1  0.5484000000000  0.5283110000000  0.5017900000000 1.0
C      1  0.5077760000000  0.4918770000000  0.4748260000000 1.0
C      1  0.4788760000000  0.5363680000000  0.4569440000000 1.0
C      1  0.4141370000000  0.5308370000000  0.5076330000000 1.0
C      1  0.5874750000000  0.4921310000000  0.5054620000000 1.0
C      1  0.5046130000000  0.4953330000000  0.5290670000000 1.0
C      1  0.4738250000000  0.4282400000000  0.4372470000000 1.0
C      1  0.5173020000000  0.5348430000000  0.5008780000000 1.0
C      1  0.5704450000000  0.4955810000000  0.5282350000000 1.0
C      1  0.5087810000000  0.5241750000000  0.4717440000000 1.0
C      1  0.5380200000000  0.4252110000000  0.5110450000000 1.0
C      1  0.5324710000000  0.4665870000000  0.5710760000000 1.0
C      1  0.4445710000000  0.5048080000000  0.4212250000000 1.0
C      1  0.4083120000000  0.5208620000000  0.4815140000000 1.0
C      1  0.5067080000000  0.5727850000000  0.4802460000000 1.0
C      1  0.4744030000000  0.5753540000000  0.5178630000000 1.0
C      1  0.4831430000000  0.4824770000000  0.4875820000000 1.0
C      1  0.4399690000000  0.5550910000000  0.4790390000000 1.0
C      1  0.4486840000000  0.4372630000000  0.5207750000000 1.0
C      1  0.5405290000000  0.4537450000000  0.4414630000000 1.0
C      1  0.4742950000000  0.4525000000000  0.4224290000000 1.0
C      1  0.4907870000000  0.4979660000000  0.4089680000000 1.0
C      1  0.4419140000000  0.5416220000000  0.5063700000000 1.0
C      1  0.5642330000000  0.5492600000000  0.4872160000000 1.0
C      1  0.5000150000000  0.5437630000000  0.5455430000000 1.0
C      1  0.5451350000000  0.4801800000000  0.4305530000000 1.0
C      1  0.5213320000000  0.4368680000000  0.5330580000000 1.0
C      1  0.5544210000000  0.5493180000000  0.4595190000000 1.0
C      1  0.5647330000000  0.4394920000000  0.5120980000000 1.0
C      1  0.5361440000000  0.5083970000000  0.4312240000000 1.0
C      1  0.4587520000000  0.4988470000000  0.4857050000000 1.0
C      1  0.5689220000000  0.5743680000000  0.4987730000000 1.0
C      1  0.4739820000000  0.4434420000000  0.5569030000000 1.0
C      1  0.4299280000000  0.5197580000000  0.5559840000000 1.0
C      1  0.4338080000000  0.4693050000000  0.4588890000000 1.0
C      1  0.5326930000000  0.4865680000000  0.5235450000000 1.0
C      1  0.4554370000000  0.5170540000000  0.4618200000000 1.0
C      1  0.4146650000000  0.5115410000000  0.5293030000000 1.0
C      1  0.4310300000000  0.4886850000000  0.4386130000000 1.0
C      1  0.5179070000000  0.5655880000000  0.5070070000000 1.0
C      1  0.4653440000000  0.5628210000000  0.4676810000000 1.0
C      1  0.4879940000000  0.4769190000000  0.4290740000000 1.0
C      1  0.5368710000000  0.4604720000000  0.5430980000000 1.0
C      1  0.5285450000000  0.4252390000000  0.4832610000000 1.0
C      1  0.5455930000000  0.5752580000000  0.4522310000000 1.0
C      1  0.5320140000000  0.4845660000000  0.4923300000000 1.0
C      1  0.5149800000000  0.5126560000000  0.5778720000000 1.0
C      1  0.4842320000000  0.4234020000000  0.4850310000000 1.0
C      1  0.4423220000000  0.4966720000000  0.5270650000000 1.0
C      1  0.4380960000000  0.4593450000000  0.5064780000000 1.0
C      1  0.5528140000000  0.5304100000000  0.5563250000000 1.0
C      1  0.4502860000000  0.5426540000000  0.5527410000000 1.0
C      1  0.5122960000000  0.5165860000000  0.4160110000000 1.0
C      1  0.5646400000000  0.4549880000000  0.4864120000000 1.0
END
