TITL C-950529-3362-434 -7.20144070232197e-07 125000 -285.644194723072 0 0 48 (C1) n - 1
REM
REM in /home/bkarasulu/work/CARBON/AIRSS/Generating-Clusters/EDIP-Nigel-Params/with-SteepDescent/Only-C1/SD-CG/HFTN-CG
REM
REM
REM
REM
REM
REM ./C.cell (11c1c37f851c82e70ff6c80c92926a4b)
REM
REM compiler GCC version 9.2.1 20190827 (Red Hat 9.2.1-1)
REM options -cpp -mtune=generic -march=x86-64 -g -O0 -fpre-include=/usr/include/finclude/math-vector-fortran.h
REM seed 1915729119 1950169270 -687543048 -655597240 1713691782 1365814454 2066211448 -224042178 -219097407 -941835037 588881866 -690729373 939443808 130271121 646508829 797235768 1271394236 -910571187 1269326127 -2061776541 1781622499 1667036818 2104052878 -1668658245 586724118 537023025 -1272540688 522780268 308926347 -931526556 2071230021 -1508714329 -547265649
REM
CELL 1.54180   50.00000   50.00000   50.00000   90.00000   90.00000   90.00000
LATT -1
SFAC C  
C      1  0.4673990000000  0.4987000000000  0.5596670000000 1.0
C      1  0.5372590000000  0.4866500000000  0.5159510000000 1.0
C      1  0.5295430000000  0.5323550000000  0.4592230000000 1.0
C      1  0.4921690000000  0.5094680000000  0.5504990000000 1.0
C      1  0.5048330000000  0.4875190000000  0.5628450000000 1.0
C      1  0.4610600000000  0.5282750000000  0.4344680000000 1.0
C      1  0.4882770000000  0.5370190000000  0.4790230000000 1.0
C      1  0.5292360000000  0.4440600000000  0.4950450000000 1.0
C      1  0.5746900000000  0.5047000000000  0.5379730000000 1.0
C      1  0.4331300000000  0.4974430000000  0.4924100000000 1.0
C      1  0.4650060000000  0.4648610000000  0.4767230000000 1.0
C      1  0.5006400000000  0.5367680000000  0.5530800000000 1.0
C      1  0.5480340000000  0.5254510000000  0.5569970000000 1.0
C      1  0.4782320000000  0.4628770000000  0.5297790000000 1.0
C      1  0.5640520000000  0.5148040000000  0.4908610000000 1.0
C      1  0.5100920000000  0.5535280000000  0.5305170000000 1.0
C      1  0.4675870000000  0.5526910000000  0.4929410000000 1.0
C      1  0.5198400000000  0.4949080000000  0.4920410000000 1.0
C      1  0.4509390000000  0.5095450000000  0.5144030000000 1.0
C      1  0.4371740000000  0.5034450000000  0.4655290000000 1.0
C      1  0.4540710000000  0.5030890000000  0.4434020000000 1.0
C      1  0.4619770000000  0.4434520000000  0.4571920000000 1.0
C      1  0.4778230000000  0.5574710000000  0.5296440000000 1.0
C      1  0.4779760000000  0.4959380000000  0.5111750000000 1.0
C      1  0.4955060000000  0.5113450000000  0.4945790000000 1.0
C      1  0.5308350000000  0.4782470000000  0.5530800000000 1.0
C      1  0.5407200000000  0.5072150000000  0.4713140000000 1.0
C      1  0.5357650000000  0.4578880000000  0.5200670000000 1.0
C      1  0.4924170000000  0.4675450000000  0.4890110000000 1.0
C      1  0.4841180000000  0.5353300000000  0.4486520000000 1.0
C      1  0.5311370000000  0.4585540000000  0.4703490000000 1.0
C      1  0.5254890000000  0.5414880000000  0.5078420000000 1.0
C      1  0.5665920000000  0.5352890000000  0.5359250000000 1.0
C      1  0.5067670000000  0.4925760000000  0.4406660000000 1.0
C      1  0.4697310000000  0.4561240000000  0.4342600000000 1.0
C      1  0.5157290000000  0.5484940000000  0.4810780000000 1.0
C      1  0.5551910000000  0.5384680000000  0.5082450000000 1.0
C      1  0.4491240000000  0.4666280000000  0.5269840000000 1.0
C      1  0.4452090000000  0.4941890000000  0.5409430000000 1.0
C      1  0.4913740000000  0.4383160000000  0.5254040000000 1.0
C      1  0.4764490000000  0.4828650000000  0.4438410000000 1.0
C      1  0.5327110000000  0.4811920000000  0.4529080000000 1.0
C      1  0.5531220000000  0.4965360000000  0.5603230000000 1.0
C      1  0.5089340000000  0.5225570000000  0.4397770000000 1.0
C      1  0.5656250000000  0.4939160000000  0.5115930000000 1.0
C      1  0.5005200000000  0.4406930000000  0.4989420000000 1.0
C      1  0.4415390000000  0.4692450000000  0.4970690000000 1.0
C      1  0.4543560000000  0.5402860000000  0.5157600000000 1.0
END
