TITL C-951333-8791-264 -1.33440000978233e-06 125000 -693.370562491892 0 0 111 (C1) n - 1
REM
REM in /home/bkarasulu/work/CARBON/AIRSS/Generating-Clusters/EDIP-Nigel-Params/with-SteepDescent/Only-C1/SD-CG/HFTN-CG
REM
REM
REM
REM
REM
REM ./C.cell (11c1c37f851c82e70ff6c80c92926a4b)
REM
REM compiler GCC version 9.2.1 20190827 (Red Hat 9.2.1-1)
REM options -cpp -mtune=generic -march=x86-64 -g -O0 -fpre-include=/usr/include/finclude/math-vector-fortran.h
REM seed -626691421 -2064512414 -1893357083 1880919828 -956462957 -575714940 31426926 2082922176 325098526 -1267656231 2057852537 1489340780 -746773504 1802295764 -257720498 -334953762 -494182246 1186150818 -1054997072 577852161 -36798496 -2083206490 -1759021436 593875391 -640521741 1278739869 101114464 -1771644922 -1954848799 -900613113 -332021856 -583187178 789302628
REM
CELL 1.54180   50.00000   50.00000   50.00000   90.00000   90.00000   90.00000
LATT -1
SFAC C  
C      1  0.5127890000000  0.5674690000000  0.4274630000000 1.0
C      1  0.5490760000000  0.5570340000000  0.5351080000000 1.0
C      1  0.5626680000000  0.5591500000000  0.4572880000000 1.0
C      1  0.5072120000000  0.4479430000000  0.4899480000000 1.0
C      1  0.4620020000000  0.5718780000000  0.5031580000000 1.0
C      1  0.4840950000000  0.4937770000000  0.4245190000000 1.0
C      1  0.5297690000000  0.4830820000000  0.5938200000000 1.0
C      1  0.4949380000000  0.4671700000000  0.4103410000000 1.0
C      1  0.4420430000000  0.4328150000000  0.5243130000000 1.0
C      1  0.4125040000000  0.5093880000000  0.5104230000000 1.0
C      1  0.5364870000000  0.4190490000000  0.4690250000000 1.0
C      1  0.5883570000000  0.4722660000000  0.4741670000000 1.0
C      1  0.5129210000000  0.5184110000000  0.5464510000000 1.0
C      1  0.4810640000000  0.4432400000000  0.4161900000000 1.0
C      1  0.4298950000000  0.5497070000000  0.5283240000000 1.0
C      1  0.4864270000000  0.4851040000000  0.5025120000000 1.0
C      1  0.5003470000000  0.4918510000000  0.5560930000000 1.0
C      1  0.5778150000000  0.4941890000000  0.5204380000000 1.0
C      1  0.4581540000000  0.4610920000000  0.5845700000000 1.0
C      1  0.4362630000000  0.5300370000000  0.5496420000000 1.0
C      1  0.5033110000000  0.5798960000000  0.5304380000000 1.0
C      1  0.5548800000000  0.4494050000000  0.5247460000000 1.0
C      1  0.4716990000000  0.4307000000000  0.5650310000000 1.0
C      1  0.4757310000000  0.5364560000000  0.5848260000000 1.0
C      1  0.5390260000000  0.5211160000000  0.5653510000000 1.0
C      1  0.4493560000000  0.4478020000000  0.4492100000000 1.0
C      1  0.5116220000000  0.5304720000000  0.4998070000000 1.0
C      1  0.5672070000000  0.4731240000000  0.5368010000000 1.0
C      1  0.5233470000000  0.5655010000000  0.5462420000000 1.0
C      1  0.4868190000000  0.5644740000000  0.5783910000000 1.0
C      1  0.5164940000000  0.4609830000000  0.4485560000000 1.0
C      1  0.5601660000000  0.4321700000000  0.4596990000000 1.0
C      1  0.5715840000000  0.5460100000000  0.4829690000000 1.0
C      1  0.4317920000000  0.4884540000000  0.4510520000000 1.0
C      1  0.4256680000000  0.4534010000000  0.5344660000000 1.0
C      1  0.4863750000000  0.4632610000000  0.5934990000000 1.0
C      1  0.5150560000000  0.4851510000000  0.5129210000000 1.0
C      1  0.5323160000000  0.4252060000000  0.5583520000000 1.0
C      1  0.5509260000000  0.4507630000000  0.4969960000000 1.0
C      1  0.5482350000000  0.4952140000000  0.5774440000000 1.0
C      1  0.4898730000000  0.5057720000000  0.4527530000000 1.0
C      1  0.4799730000000  0.4609910000000  0.4895740000000 1.0
C      1  0.4663560000000  0.5116620000000  0.4062830000000 1.0
C      1  0.4433510000000  0.5760060000000  0.5260340000000 1.0
C      1  0.4655680000000  0.5268130000000  0.5575540000000 1.0
C      1  0.5137180000000  0.4266790000000  0.5108870000000 1.0
C      1  0.5193130000000  0.5106520000000  0.4549810000000 1.0
C      1  0.4675030000000  0.5230160000000  0.4672530000000 1.0
C      1  0.5730050000000  0.4569470000000  0.4528460000000 1.0
C      1  0.5763980000000  0.5068530000000  0.4498200000000 1.0
C      1  0.4708850000000  0.4977500000000  0.5496670000000 1.0
C      1  0.4409630000000  0.4690370000000  0.4325170000000 1.0
C      1  0.4868280000000  0.5409180000000  0.5409660000000 1.0
C      1  0.5242570000000  0.5360630000000  0.5868910000000 1.0
C      1  0.5383780000000  0.5515960000000  0.4287510000000 1.0
C      1  0.4228970000000  0.5516370000000  0.4804890000000 1.0
C      1  0.5026710000000  0.4893950000000  0.5869140000000 1.0
C      1  0.4595350000000  0.5233110000000  0.4997430000000 1.0
C      1  0.5044850000000  0.5858260000000  0.4473160000000 1.0
C      1  0.5669500000000  0.5171110000000  0.4761690000000 1.0
C      1  0.4992490000000  0.5203730000000  0.5953060000000 1.0
C      1  0.5338680000000  0.5762880000000  0.4911750000000 1.0
C      1  0.4683160000000  0.4282380000000  0.5361590000000 1.0
C      1  0.4909340000000  0.5516900000000  0.4161580000000 1.0
C      1  0.5118670000000  0.4353930000000  0.4640300000000 1.0
C      1  0.4950320000000  0.5243510000000  0.4039900000000 1.0
C      1  0.5251790000000  0.5316150000000  0.4750150000000 1.0
C      1  0.5780220000000  0.5189580000000  0.5334960000000 1.0
C      1  0.5056430000000  0.5771600000000  0.4995100000000 1.0
C      1  0.4958650000000  0.4395800000000  0.5782740000000 1.0
C      1  0.5212780000000  0.5126200000000  0.5193990000000 1.0
C      1  0.5311180000000  0.5222100000000  0.4292860000000 1.0
C      1  0.5219240000000  0.4607900000000  0.4198690000000 1.0
C      1  0.4857770000000  0.4193810000000  0.4609250000000 1.0
C      1  0.5134800000000  0.4691680000000  0.5388590000000 1.0
C      1  0.5332920000000  0.4098900000000  0.4961160000000 1.0
C      1  0.5653080000000  0.4782710000000  0.5639120000000 1.0
C      1  0.4781050000000  0.5447830000000  0.5106320000000 1.0
C      1  0.4650930000000  0.5543610000000  0.4302300000000 1.0
C      1  0.5694530000000  0.4910330000000  0.4919260000000 1.0
C      1  0.4269790000000  0.4771900000000  0.5494510000000 1.0
C      1  0.5424840000000  0.4819080000000  0.4142460000000 1.0
C      1  0.5406900000000  0.4772120000000  0.4905210000000 1.0
C      1  0.4700650000000  0.4126300000000  0.4900680000000 1.0
C      1  0.5191010000000  0.4240440000000  0.5819000000000 1.0
C      1  0.4484900000000  0.5296470000000  0.4230790000000 1.0
C      1  0.4285270000000  0.5037060000000  0.5350870000000 1.0
C      1  0.6003240000000  0.4933680000000  0.4585980000000 1.0
C      1  0.5332680000000  0.5594460000000  0.4658190000000 1.0
C      1  0.5612800000000  0.5350360000000  0.5494420000000 1.0
C      1  0.5330640000000  0.4829130000000  0.4605390000000 1.0
C      1  0.4860260000000  0.4143540000000  0.5164690000000 1.0
C      1  0.4918130000000  0.5749510000000  0.4703150000000 1.0
C      1  0.4318510000000  0.4773180000000  0.4780340000000 1.0
C      1  0.4507280000000  0.4532980000000  0.4784920000000 1.0
C      1  0.5578490000000  0.4826880000000  0.4426320000000 1.0
C      1  0.4641480000000  0.4976810000000  0.5174920000000 1.0
C      1  0.5537630000000  0.5592740000000  0.5055740000000 1.0
C      1  0.5161010000000  0.5616460000000  0.5748060000000 1.0
C      1  0.4119380000000  0.4869120000000  0.4946710000000 1.0
C      1  0.4532880000000  0.5884060000000  0.5490120000000 1.0
C      1  0.4466250000000  0.5668360000000  0.4773640000000 1.0
C      1  0.4513940000000  0.4804080000000  0.5650080000000 1.0
C      1  0.4300120000000  0.5340610000000  0.5026290000000 1.0
C      1  0.5281210000000  0.4418630000000  0.5352510000000 1.0
C      1  0.4692410000000  0.4304110000000  0.4384770000000 1.0
C      1  0.4796920000000  0.5776870000000  0.5514840000000 1.0
C      1  0.4690280000000  0.5552810000000  0.4610610000000 1.0
C      1  0.4425300000000  0.5165490000000  0.4500710000000 1.0
C      1  0.4439690000000  0.4282130000000  0.4947240000000 1.0
C      1  0.5294650000000  0.5066690000000  0.4054160000000 1.0
END
