TITL C-950523-3027-573 -2.59986679122252e-06 125000 -1058.98850194248 0 0 171 (C1) n - 1
REM
REM in /home/bkarasulu/work/CARBON/AIRSS/Generating-Clusters/EDIP-Nigel-Params/with-SteepDescent/Only-C1/SD-CG/HFTN-CG
REM
REM
REM
REM
REM
REM ./C.cell (11c1c37f851c82e70ff6c80c92926a4b)
REM
REM compiler GCC version 9.2.1 20190827 (Red Hat 9.2.1-1)
REM options -cpp -mtune=generic -march=x86-64 -g -O0 -fpre-include=/usr/include/finclude/math-vector-fortran.h
REM seed -2088194414 1979291220 1395719654 -658313347 979429948 180991706 -990836434 1921053277 -16171966 -1426852420 -1278678657 1517398421 452951590 387017008 -1165598479 -1222914677 2026933006 1819467540 1561071175 -503684583 -1797798667 -255341473 1037127716 722063478 861330074 -257083727 1945273546 1885293196 371117984 -1730979108 879888352 1862704213 -1651871993
REM
CELL 1.54180   50.00000   50.00000   50.00000   90.00000   90.00000   90.00000
LATT -1
SFAC C  
C      1  0.4760310000000  0.5169270000000  0.4823720000000 1.0
C      1  0.5042020000000  0.5508100000000  0.4865810000000 1.0
C      1  0.4580710000000  0.4624480000000  0.5906490000000 1.0
C      1  0.5042700000000  0.5960220000000  0.4337360000000 1.0
C      1  0.4350820000000  0.5252230000000  0.5442980000000 1.0
C      1  0.4769560000000  0.5224770000000  0.5263080000000 1.0
C      1  0.4884840000000  0.5107010000000  0.5513200000000 1.0
C      1  0.5199160000000  0.4832740000000  0.5752960000000 1.0
C      1  0.5991730000000  0.5184510000000  0.5100680000000 1.0
C      1  0.4759540000000  0.4842660000000  0.6049370000000 1.0
C      1  0.5353760000000  0.4903460000000  0.4586880000000 1.0
C      1  0.4680160000000  0.4993580000000  0.5703750000000 1.0
C      1  0.5034790000000  0.5411650000000  0.6003300000000 1.0
C      1  0.4002570000000  0.4765060000000  0.5428790000000 1.0
C      1  0.5677240000000  0.4307110000000  0.5379720000000 1.0
C      1  0.4762850000000  0.4273030000000  0.4829750000000 1.0
C      1  0.4788110000000  0.5226540000000  0.5994600000000 1.0
C      1  0.5426870000000  0.5220360000000  0.4150990000000 1.0
C      1  0.5439110000000  0.4507150000000  0.4810010000000 1.0
C      1  0.3982510000000  0.5052910000000  0.4417120000000 1.0
C      1  0.5568680000000  0.4779880000000  0.5454830000000 1.0
C      1  0.5090640000000  0.5926380000000  0.5420750000000 1.0
C      1  0.4418410000000  0.5154690000000  0.5716340000000 1.0
C      1  0.4458590000000  0.4845330000000  0.4829880000000 1.0
C      1  0.4915770000000  0.5505970000000  0.4550060000000 1.0
C      1  0.4039990000000  0.5579570000000  0.4494060000000 1.0
C      1  0.5016450000000  0.4022530000000  0.5356900000000 1.0
C      1  0.5337240000000  0.5966680000000  0.4991250000000 1.0
C      1  0.5647500000000  0.4095660000000  0.5203010000000 1.0
C      1  0.5786060000000  0.5639150000000  0.4965180000000 1.0
C      1  0.5939900000000  0.5044620000000  0.5632400000000 1.0
C      1  0.4511750000000  0.5648910000000  0.5776210000000 1.0
C      1  0.5539270000000  0.4947320000000  0.4148190000000 1.0
C      1  0.4900120000000  0.4458030000000  0.5269550000000 1.0
C      1  0.5372030000000  0.4056660000000  0.5673840000000 1.0
C      1  0.5620620000000  0.4897290000000  0.4701290000000 1.0
C      1  0.4338670000000  0.4729490000000  0.5808520000000 1.0
C      1  0.4961990000000  0.5252730000000  0.5012210000000 1.0
C      1  0.5726090000000  0.4837310000000  0.5724570000000 1.0
C      1  0.4476320000000  0.4157800000000  0.4455900000000 1.0
C      1  0.5337220000000  0.5536850000000  0.4877190000000 1.0
C      1  0.5491100000000  0.4311310000000  0.5608590000000 1.0
C      1  0.5888100000000  0.5449920000000  0.5175240000000 1.0
C      1  0.5020690000000  0.5527770000000  0.4083470000000 1.0
C      1  0.5145130000000  0.4359200000000  0.4152990000000 1.0
C      1  0.5423610000000  0.6079250000000  0.4732810000000 1.0
C      1  0.4353550000000  0.4508660000000  0.5093060000000 1.0
C      1  0.4992090000000  0.4629280000000  0.4512640000000 1.0
C      1  0.4716990000000  0.6079620000000  0.5101190000000 1.0
C      1  0.4615630000000  0.5562850000000  0.5104190000000 1.0
C      1  0.5192190000000  0.4003150000000  0.5121210000000 1.0
C      1  0.4059920000000  0.4794750000000  0.4269110000000 1.0
C      1  0.5166440000000  0.4922920000000  0.4808090000000 1.0
C      1  0.5440590000000  0.5179420000000  0.5110500000000 1.0
C      1  0.4124810000000  0.5316020000000  0.4413540000000 1.0
C      1  0.5041510000000  0.5955880000000  0.5123580000000 1.0
C      1  0.4337470000000  0.4245820000000  0.5259530000000 1.0
C      1  0.5633910000000  0.5060010000000  0.5329090000000 1.0
C      1  0.5482640000000  0.5461270000000  0.4646580000000 1.0
C      1  0.5119210000000  0.5248020000000  0.4156420000000 1.0
C      1  0.5827840000000  0.4768210000000  0.4515240000000 1.0
C      1  0.5671960000000  0.6006820000000  0.4619350000000 1.0
C      1  0.4688010000000  0.4444500000000  0.5674910000000 1.0
C      1  0.5284640000000  0.4508480000000  0.5325380000000 1.0
C      1  0.5021830000000  0.4360920000000  0.6025330000000 1.0
C      1  0.4529530000000  0.5361130000000  0.5893710000000 1.0
C      1  0.4946920000000  0.5214890000000  0.4428010000000 1.0
C      1  0.5371960000000  0.5191380000000  0.5502700000000 1.0
C      1  0.5338340000000  0.4696280000000  0.4169510000000 1.0
C      1  0.5101870000000  0.4106440000000  0.5618130000000 1.0
C      1  0.4067970000000  0.4592370000000  0.5027040000000 1.0
C      1  0.4762750000000  0.5800090000000  0.5804380000000 1.0
C      1  0.5299670000000  0.5428150000000  0.5862150000000 1.0
C      1  0.4326140000000  0.5747270000000  0.5537940000000 1.0
C      1  0.3912560000000  0.4973070000000  0.4691990000000 1.0
C      1  0.4265430000000  0.4690610000000  0.5538540000000 1.0
C      1  0.4523590000000  0.5333020000000  0.4903450000000 1.0
C      1  0.4417080000000  0.4540580000000  0.4100000000000 1.0
C      1  0.4332250000000  0.5094750000000  0.4981670000000 1.0
C      1  0.4903490000000  0.5689120000000  0.5040880000000 1.0
C      1  0.4967530000000  0.6122590000000  0.4549210000000 1.0
C      1  0.4731180000000  0.4893520000000  0.4891210000000 1.0
C      1  0.4529460000000  0.5540430000000  0.4236150000000 1.0
C      1  0.4476510000000  0.4734840000000  0.5326050000000 1.0
C      1  0.5045920000000  0.4822720000000  0.6166080000000 1.0
C      1  0.5289260000000  0.4637620000000  0.4482410000000 1.0
C      1  0.4697530000000  0.4534130000000  0.4140080000000 1.0
C      1  0.5463610000000  0.3989100000000  0.5024630000000 1.0
C      1  0.4499660000000  0.4451400000000  0.4790140000000 1.0
C      1  0.3921290000000  0.5186820000000  0.4876050000000 1.0
C      1  0.5972650000000  0.4603540000000  0.4920330000000 1.0
C      1  0.5522300000000  0.5004110000000  0.5998930000000 1.0
C      1  0.5987710000000  0.4679570000000  0.5212630000000 1.0
C      1  0.4478990000000  0.4896920000000  0.4527010000000 1.0
C      1  0.4122290000000  0.4578230000000  0.4486940000000 1.0
C      1  0.5213540000000  0.5008810000000  0.5984740000000 1.0
C      1  0.5348050000000  0.4236000000000  0.4309870000000 1.0
C      1  0.4715440000000  0.5001220000000  0.4352650000000 1.0
C      1  0.5000780000000  0.5058030000000  0.3959290000000 1.0
C      1  0.4465490000000  0.5033130000000  0.4063740000000 1.0
C      1  0.4260900000000  0.4120430000000  0.4627190000000 1.0
C      1  0.5463960000000  0.5613180000000  0.5336090000000 1.0
C      1  0.4197670000000  0.5768300000000  0.4620300000000 1.0
C      1  0.4534980000000  0.4210380000000  0.5498190000000 1.0
C      1  0.5381310000000  0.5575220000000  0.4395400000000 1.0
C      1  0.4777630000000  0.4176850000000  0.5295130000000 1.0
C      1  0.4002460000000  0.4692870000000  0.4748970000000 1.0
C      1  0.4859330000000  0.4289120000000  0.4170750000000 1.0
C      1  0.4110600000000  0.4279900000000  0.4454990000000 1.0
C      1  0.3884560000000  0.4578650000000  0.5248200000000 1.0
C      1  0.4629230000000  0.6033410000000  0.5380010000000 1.0
C      1  0.4738090000000  0.4641940000000  0.5445200000000 1.0
C      1  0.3996650000000  0.5350480000000  0.5088100000000 1.0
C      1  0.5553720000000  0.5275790000000  0.5882430000000 1.0
C      1  0.4286600000000  0.4797100000000  0.4070330000000 1.0
C      1  0.5556060000000  0.4739630000000  0.4955840000000 1.0
C      1  0.5254390000000  0.4374160000000  0.5025670000000 1.0
C      1  0.5604790000000  0.4434210000000  0.5852780000000 1.0
C      1  0.4064190000000  0.5253250000000  0.5352960000000 1.0
C      1  0.5338250000000  0.5693860000000  0.5780430000000 1.0
C      1  0.6053660000000  0.4821810000000  0.4728240000000 1.0
C      1  0.4468570000000  0.5785240000000  0.4680460000000 1.0
C      1  0.4961400000000  0.4469900000000  0.4962920000000 1.0
C      1  0.5767890000000  0.5543660000000  0.4673490000000 1.0
C      1  0.6015950000000  0.4975110000000  0.5316170000000 1.0
C      1  0.4426920000000  0.4597230000000  0.4485080000000 1.0
C      1  0.4982670000000  0.4070190000000  0.4602210000000 1.0
C      1  0.5086290000000  0.5665580000000  0.4346800000000 1.0
C      1  0.4948980000000  0.4726670000000  0.4792860000000 1.0
C      1  0.5498080000000  0.5716810000000  0.5052820000000 1.0
C      1  0.4938850000000  0.4299690000000  0.5770180000000 1.0
C      1  0.4487820000000  0.5524480000000  0.5404350000000 1.0
C      1  0.5731610000000  0.5483230000000  0.5426790000000 1.0
C      1  0.4359420000000  0.6008660000000  0.5446680000000 1.0
C      1  0.5839260000000  0.4583880000000  0.5812490000000 1.0
C      1  0.5321310000000  0.4910810000000  0.5048250000000 1.0
C      1  0.4728980000000  0.5456510000000  0.4026440000000 1.0
C      1  0.5501390000000  0.4081440000000  0.4751120000000 1.0
C      1  0.5918010000000  0.5192210000000  0.4345340000000 1.0
C      1  0.4490500000000  0.5058040000000  0.5250690000000 1.0
C      1  0.4558980000000  0.5932210000000  0.4909090000000 1.0
C      1  0.5609710000000  0.5716510000000  0.4240690000000 1.0
C      1  0.4858290000000  0.4742640000000  0.4272010000000 1.0
C      1  0.5946630000000  0.5305190000000  0.4603110000000 1.0
C      1  0.5282530000000  0.5383130000000  0.5288630000000 1.0
C      1  0.5767070000000  0.5298580000000  0.5668260000000 1.0
C      1  0.4769940000000  0.4142730000000  0.4410520000000 1.0
C      1  0.5428020000000  0.4624410000000  0.5985700000000 1.0
C      1  0.4255220000000  0.5450880000000  0.4198070000000 1.0
C      1  0.5182110000000  0.4792770000000  0.5280770000000 1.0
C      1  0.5994460000000  0.5106450000000  0.4816750000000 1.0
C      1  0.4052720000000  0.4983630000000  0.5235710000000 1.0
C      1  0.5057180000000  0.4784990000000  0.4061220000000 1.0
C      1  0.5590820000000  0.4371970000000  0.4305350000000 1.0
C      1  0.5612450000000  0.5445500000000  0.4112700000000 1.0
C      1  0.4707440000000  0.5162260000000  0.3947720000000 1.0
C      1  0.5154400000000  0.4979340000000  0.5512170000000 1.0
C      1  0.5230860000000  0.6205420000000  0.4564680000000 1.0
C      1  0.5729670000000  0.4381220000000  0.4766520000000 1.0
C      1  0.4839220000000  0.5946690000000  0.5562790000000 1.0
C      1  0.5778550000000  0.5784050000000  0.4480960000000 1.0
C      1  0.4397060000000  0.4043850000000  0.5066860000000 1.0
C      1  0.5713920000000  0.4584120000000  0.5276150000000 1.0
C      1  0.4943680000000  0.5675480000000  0.5975370000000 1.0
C      1  0.5271860000000  0.4123630000000  0.4565640000000 1.0
C      1  0.4676350000000  0.4078470000000  0.5034240000000 1.0
C      1  0.5815570000000  0.4939690000000  0.4266070000000 1.0
C      1  0.5182640000000  0.4555050000000  0.6140640000000 1.0
C      1  0.5780400000000  0.4468550000000  0.4485310000000 1.0
C      1  0.4633160000000  0.5612560000000  0.4505970000000 1.0
C      1  0.5334930000000  0.5802530000000  0.5524960000000 1.0
END
