TITL C-950531-5884-58 5.20473608144681e-08 125000 -94.3035107946235 0 0 17 (C1) n - 1
REM
REM in /home/bkarasulu/work/CARBON/AIRSS/Generating-Clusters/EDIP-Nigel-Params/with-SteepDescent/Only-C1/SD-CG/HFTN-CG
REM
REM
REM
REM
REM
REM ./C.cell (11c1c37f851c82e70ff6c80c92926a4b)
REM
REM compiler GCC version 9.2.1 20190827 (Red Hat 9.2.1-1)
REM options -cpp -mtune=generic -march=x86-64 -g -O0 -fpre-include=/usr/include/finclude/math-vector-fortran.h
REM seed -749619614 -170301516 -1524753569 -1039425919 -1558630209 -1016094892 689525951 1187941928 674752575 1133219544 -691727571 1388948472 65979672 -1424295745 -379221055 -803889708 1568773603 -1040362999 1464926636 11258463 -1708358977 1888853075 1123949213 -1987653963 781470151 40906170 -1900327423 712072146 1663211290 -1646630217 -505656292 -1412986937 1127930398
REM
CELL 1.54180   50.00000   50.00000   50.00000   90.00000   90.00000   90.00000
LATT -1
SFAC C  
C      1  0.4653790000000  0.5201280000000  0.4893800000000 1.0
C      1  0.4736770000000  0.4739970000000  0.5469050000000 1.0
C      1  0.5489150000000  0.5097580000000  0.4799940000000 1.0
C      1  0.5073930000000  0.5097230000000  0.4558580000000 1.0
C      1  0.5186140000000  0.5471600000000  0.4823570000000 1.0
C      1  0.5050120000000  0.5013060000000  0.4867050000000 1.0
C      1  0.5065430000000  0.4698440000000  0.5124430000000 1.0
C      1  0.5002210000000  0.5382390000000  0.4624040000000 1.0
C      1  0.4737370000000  0.5383790000000  0.4715100000000 1.0
C      1  0.4559160000000  0.4595450000000  0.5935820000000 1.0
C      1  0.5461860000000  0.4807360000000  0.4821980000000 1.0
C      1  0.5185550000000  0.4737930000000  0.4872750000000 1.0
C      1  0.4648040000000  0.4668030000000  0.5707310000000 1.0
C      1  0.4691350000000  0.5007630000000  0.5076760000000 1.0
C      1  0.5364750000000  0.5052340000000  0.4536410000000 1.0
C      1  0.4832940000000  0.4818680000000  0.5225260000000 1.0
C      1  0.5261440000000  0.5227250000000  0.4948160000000 1.0
END
