TITL C-950528-5794-709 -2.23323668197347e-06 125000 -353.601373921993 0 0 59 (C1) n - 1
REM
REM in /home/bkarasulu/work/CARBON/AIRSS/Generating-Clusters/EDIP-Nigel-Params/with-SteepDescent/Only-C1/SD-CG/HFTN-CG
REM
REM
REM
REM
REM
REM ./C.cell (11c1c37f851c82e70ff6c80c92926a4b)
REM
REM compiler GCC version 9.2.1 20190827 (Red Hat 9.2.1-1)
REM options -cpp -mtune=generic -march=x86-64 -g -O0 -fpre-include=/usr/include/finclude/math-vector-fortran.h
REM seed -1734831659 786713095 734287397 -644028516 -316621101 -1436779 -506864487 -483196745 -256865658 827477387 -1992234206 487034276 -1593051215 -1277283041 -1311511056 1537040343 -1377039313 -727835402 -315544289 -933570133 12220581 -1637627565 -1969037047 319330594 224516151 -776754966 1241978120 -1989591954 740938358 1033159544 1672922309 -1488716645 1360821083
REM
CELL 1.54180   50.00000   50.00000   50.00000   90.00000   90.00000   90.00000
LATT -1
SFAC C  
C      1  0.5259700000000  0.5528060000000  0.5562810000000 1.0
C      1  0.5102870000000  0.4638090000000  0.4461280000000 1.0
C      1  0.5112280000000  0.5102170000000  0.4523760000000 1.0
C      1  0.5837860000000  0.5097720000000  0.4680960000000 1.0
C      1  0.4946070000000  0.4357030000000  0.5190820000000 1.0
C      1  0.5420310000000  0.4462920000000  0.5136930000000 1.0
C      1  0.5127950000000  0.4901170000000  0.5752470000000 1.0
C      1  0.5334860000000  0.5122000000000  0.5410860000000 1.0
C      1  0.4738610000000  0.4435400000000  0.4750160000000 1.0
C      1  0.4957220000000  0.5550630000000  0.4667070000000 1.0
C      1  0.4762840000000  0.5307200000000  0.4298990000000 1.0
C      1  0.5007050000000  0.4563070000000  0.5394950000000 1.0
C      1  0.4953520000000  0.5657590000000  0.5204450000000 1.0
C      1  0.5607340000000  0.5183140000000  0.4515690000000 1.0
C      1  0.4457050000000  0.4945500000000  0.4358910000000 1.0
C      1  0.5371800000000  0.4683420000000  0.5355230000000 1.0
C      1  0.5181400000000  0.4338560000000  0.5022730000000 1.0
C      1  0.5027230000000  0.4470340000000  0.4702990000000 1.0
C      1  0.5755930000000  0.5290850000000  0.4916740000000 1.0
C      1  0.4546210000000  0.5456270000000  0.5212210000000 1.0
C      1  0.4473480000000  0.4523720000000  0.5161230000000 1.0
C      1  0.5225110000000  0.5533100000000  0.5277360000000 1.0
C      1  0.5604230000000  0.4529950000000  0.4922540000000 1.0
C      1  0.4736320000000  0.5565260000000  0.5426950000000 1.0
C      1  0.5443780000000  0.4746490000000  0.4796610000000 1.0
C      1  0.4708180000000  0.4429000000000  0.5036160000000 1.0
C      1  0.4796190000000  0.5093230000000  0.4927390000000 1.0
C      1  0.5482800000000  0.5361860000000  0.4830270000000 1.0
C      1  0.4971930000000  0.4813370000000  0.5222660000000 1.0
C      1  0.5155410000000  0.4761020000000  0.4924180000000 1.0
C      1  0.4670320000000  0.5072030000000  0.5605440000000 1.0
C      1  0.4412860000000  0.5391690000000  0.4766820000000 1.0
C      1  0.4818630000000  0.5327930000000  0.5581190000000 1.0
C      1  0.5390350000000  0.4733430000000  0.4499150000000 1.0
C      1  0.5727490000000  0.5051710000000  0.5106670000000 1.0
C      1  0.4531910000000  0.4540110000000  0.4591570000000 1.0
C      1  0.4392460000000  0.4781820000000  0.4575310000000 1.0
C      1  0.5362980000000  0.4891310000000  0.5597990000000 1.0
C      1  0.4297650000000  0.4691160000000  0.5032030000000 1.0
C      1  0.4713830000000  0.5029470000000  0.4294250000000 1.0
C      1  0.4674830000000  0.4860600000000  0.5124400000000 1.0
C      1  0.4335680000000  0.4889730000000  0.4839700000000 1.0
C      1  0.4810450000000  0.4587820000000  0.5608650000000 1.0
C      1  0.4552120000000  0.5570240000000  0.4939260000000 1.0
C      1  0.4363890000000  0.5218900000000  0.5221930000000 1.0
C      1  0.5081480000000  0.5046920000000  0.4826210000000 1.0
C      1  0.5803050000000  0.4857050000000  0.4884120000000 1.0
C      1  0.4508300000000  0.4993660000000  0.5355480000000 1.0
C      1  0.4932510000000  0.4890200000000  0.4435320000000 1.0
C      1  0.5492500000000  0.5477780000000  0.5424330000000 1.0
C      1  0.4886250000000  0.5278060000000  0.5150360000000 1.0
C      1  0.5031000000000  0.5094310000000  0.5364200000000 1.0
C      1  0.4857210000000  0.4852400000000  0.5693750000000 1.0
C      1  0.4836520000000  0.5640340000000  0.4906830000000 1.0
C      1  0.5283060000000  0.5210570000000  0.4978180000000 1.0
C      1  0.4316770000000  0.5172310000000  0.4925800000000 1.0
C      1  0.4987440000000  0.5368040000000  0.4456280000000 1.0
C      1  0.5434730000000  0.5011050000000  0.5152070000000 1.0
C      1  0.5388230000000  0.5021230000000  0.4417360000000 1.0
END
