TITL C-950530-3293-107 -6.14579212980385e-07 125000 -1095.53553567369 0 0 176 (C1) n - 1
REM
REM in /home/bkarasulu/work/CARBON/AIRSS/Generating-Clusters/EDIP-Nigel-Params/with-SteepDescent/Only-C1/SD-CG/HFTN-CG
REM
REM
REM
REM
REM
REM ./C.cell (11c1c37f851c82e70ff6c80c92926a4b)
REM
REM compiler GCC version 9.2.1 20190827 (Red Hat 9.2.1-1)
REM options -cpp -mtune=generic -march=x86-64 -g -O0 -fpre-include=/usr/include/finclude/math-vector-fortran.h
REM seed -1707938302 479454635 357076498 1869300704 -1493336023 -1082126696 -2029212142 396395424 -1462013108 -822981831 -1467683259 1288055218 -820458311 1787724933 1489890499 -2102929448 2100289915 1064489347 2033221955 2137020923 655206480 -1876391411 481075223 -1003107995 2138536376 -340856299 1963134672 -1364674503 -1879862646 951951690 -423159013 -1658518165 359953324
REM
CELL 1.54180   50.00000   50.00000   50.00000   90.00000   90.00000   90.00000
LATT -1
SFAC C  
C      1  0.4527420000000  0.4640260000000  0.5344260000000 1.0
C      1  0.4622500000000  0.3940140000000  0.5380760000000 1.0
C      1  0.4686530000000  0.4585190000000  0.5851530000000 1.0
C      1  0.3811220000000  0.5040030000000  0.5112010000000 1.0
C      1  0.5171670000000  0.4626290000000  0.5910380000000 1.0
C      1  0.4059830000000  0.4226180000000  0.4799650000000 1.0
C      1  0.4581750000000  0.5266780000000  0.5725940000000 1.0
C      1  0.5668540000000  0.5379490000000  0.5723790000000 1.0
C      1  0.5598250000000  0.4744790000000  0.4774600000000 1.0
C      1  0.5914010000000  0.4676960000000  0.5660110000000 1.0
C      1  0.5173040000000  0.5092480000000  0.4801920000000 1.0
C      1  0.5700190000000  0.5520250000000  0.4205790000000 1.0
C      1  0.5302490000000  0.4164070000000  0.4625470000000 1.0
C      1  0.4696200000000  0.5989710000000  0.4627980000000 1.0
C      1  0.4948050000000  0.4479140000000  0.5779780000000 1.0
C      1  0.5302180000000  0.4830400000000  0.3937480000000 1.0
C      1  0.4929420000000  0.5828510000000  0.4624930000000 1.0
C      1  0.4144120000000  0.4362630000000  0.5510700000000 1.0
C      1  0.5468170000000  0.5484020000000  0.4896000000000 1.0
C      1  0.5868030000000  0.5675840000000  0.5116440000000 1.0
C      1  0.5588820000000  0.4848170000000  0.3957800000000 1.0
C      1  0.4489420000000  0.4114020000000  0.5159230000000 1.0
C      1  0.5962420000000  0.4684820000000  0.4647600000000 1.0
C      1  0.5003850000000  0.4212730000000  0.4584390000000 1.0
C      1  0.4984720000000  0.4005030000000  0.5035450000000 1.0
C      1  0.4337020000000  0.5258350000000  0.4493660000000 1.0
C      1  0.5013260000000  0.5311500000000  0.5363120000000 1.0
C      1  0.4803810000000  0.4956170000000  0.5059110000000 1.0
C      1  0.4166610000000  0.4111670000000  0.5073390000000 1.0
C      1  0.5257120000000  0.5768590000000  0.4268220000000 1.0
C      1  0.4739060000000  0.4034070000000  0.4192950000000 1.0
C      1  0.4387790000000  0.4955180000000  0.4913070000000 1.0
C      1  0.4292020000000  0.5085760000000  0.5365050000000 1.0
C      1  0.5976040000000  0.5504640000000  0.4650760000000 1.0
C      1  0.6122150000000  0.5201750000000  0.4989520000000 1.0
C      1  0.5256390000000  0.4933310000000  0.5041240000000 1.0
C      1  0.4019950000000  0.4655950000000  0.4500060000000 1.0
C      1  0.5068680000000  0.5347350000000  0.4432230000000 1.0
C      1  0.4141820000000  0.5266630000000  0.5551250000000 1.0
C      1  0.4554380000000  0.5630190000000  0.5139990000000 1.0
C      1  0.4917630000000  0.4526620000000  0.4716040000000 1.0
C      1  0.4754330000000  0.5189530000000  0.5248490000000 1.0
C      1  0.5055480000000  0.5741570000000  0.5095640000000 1.0
C      1  0.5538020000000  0.4916490000000  0.5998560000000 1.0
C      1  0.5146770000000  0.5089780000000  0.3939980000000 1.0
C      1  0.4602000000000  0.5335370000000  0.3980970000000 1.0
C      1  0.5266510000000  0.5355110000000  0.3988280000000 1.0
C      1  0.5342230000000  0.6017060000000  0.5415440000000 1.0
C      1  0.5712240000000  0.5096810000000  0.5848410000000 1.0
C      1  0.5695530000000  0.5959130000000  0.4379690000000 1.0
C      1  0.5957310000000  0.4540430000000  0.4896670000000 1.0
C      1  0.5593580000000  0.4242790000000  0.4654920000000 1.0
C      1  0.5520530000000  0.5409280000000  0.4594760000000 1.0
C      1  0.4626620000000  0.5300540000000  0.4457240000000 1.0
C      1  0.5431760000000  0.4079170000000  0.5206520000000 1.0
C      1  0.5208830000000  0.4193420000000  0.5047730000000 1.0
C      1  0.4562160000000  0.4798210000000  0.4449240000000 1.0
C      1  0.5038460000000  0.5736660000000  0.5874540000000 1.0
C      1  0.5288070000000  0.5617910000000  0.5880200000000 1.0
C      1  0.4054590000000  0.4346240000000  0.5229920000000 1.0
C      1  0.4038060000000  0.4524010000000  0.4779880000000 1.0
C      1  0.5168670000000  0.5214030000000  0.5595080000000 1.0
C      1  0.5372070000000  0.5441590000000  0.5654170000000 1.0
C      1  0.3944570000000  0.5297210000000  0.5086430000000 1.0
C      1  0.3880720000000  0.5097690000000  0.4679100000000 1.0
C      1  0.4708960000000  0.5472990000000  0.4213680000000 1.0
C      1  0.4991260000000  0.4779970000000  0.5457510000000 1.0
C      1  0.3976770000000  0.5076220000000  0.5677810000000 1.0
C      1  0.5509700000000  0.4429990000000  0.4438700000000 1.0
C      1  0.5157590000000  0.4591850000000  0.4032770000000 1.0
C      1  0.4237660000000  0.5436700000000  0.4706790000000 1.0
C      1  0.5954140000000  0.5111300000000  0.5435230000000 1.0
C      1  0.5874090000000  0.5086660000000  0.4355360000000 1.0
C      1  0.4688580000000  0.5070810000000  0.4026420000000 1.0
C      1  0.4808030000000  0.5843480000000  0.5792350000000 1.0
C      1  0.4573440000000  0.5888390000000  0.5653190000000 1.0
C      1  0.5461230000000  0.4696260000000  0.4527810000000 1.0
C      1  0.5806030000000  0.5816360000000  0.5598850000000 1.0
C      1  0.5159450000000  0.5947090000000  0.4487430000000 1.0
C      1  0.5082050000000  0.5590890000000  0.5341230000000 1.0
C      1  0.5376000000000  0.6080200000000  0.4659340000000 1.0
C      1  0.4911250000000  0.3885650000000  0.5308420000000 1.0
C      1  0.5230730000000  0.4915920000000  0.5594170000000 1.0
C      1  0.5804230000000  0.5374940000000  0.4452790000000 1.0
C      1  0.5546760000000  0.5307510000000  0.4069290000000 1.0
C      1  0.4884790000000  0.5044430000000  0.4780880000000 1.0
C      1  0.4438610000000  0.4520630000000  0.4450540000000 1.0
C      1  0.4626900000000  0.3857250000000  0.4748070000000 1.0
C      1  0.4005340000000  0.4858230000000  0.5242710000000 1.0
C      1  0.4422010000000  0.4683480000000  0.5048330000000 1.0
C      1  0.4330380000000  0.5422020000000  0.5722710000000 1.0
C      1  0.5432590000000  0.6022080000000  0.4939510000000 1.0
C      1  0.5972410000000  0.4538490000000  0.5396230000000 1.0
C      1  0.5234520000000  0.5986450000000  0.5142660000000 1.0
C      1  0.4437950000000  0.4367200000000  0.5437310000000 1.0
C      1  0.4952660000000  0.5092930000000  0.4158640000000 1.0
C      1  0.5620740000000  0.5230100000000  0.5005000000000 1.0
C      1  0.6034400000000  0.4701020000000  0.5149820000000 1.0
C      1  0.4940940000000  0.4401630000000  0.5236330000000 1.0
C      1  0.5598910000000  0.6171800000000  0.4513550000000 1.0
C      1  0.4312370000000  0.5721550000000  0.4719810000000 1.0
C      1  0.4670850000000  0.4440340000000  0.3975210000000 1.0
C      1  0.5940720000000  0.5436630000000  0.4932600000000 1.0
C      1  0.4695370000000  0.4795410000000  0.5538140000000 1.0
C      1  0.4634780000000  0.4718030000000  0.6101440000000 1.0
C      1  0.6190530000000  0.5093020000000  0.4742510000000 1.0
C      1  0.4045330000000  0.4590510000000  0.5639050000000 1.0
C      1  0.4687600000000  0.4328010000000  0.5077510000000 1.0
C      1  0.5452450000000  0.4691190000000  0.5824680000000 1.0
C      1  0.5929880000000  0.5624110000000  0.5400570000000 1.0
C      1  0.4553440000000  0.5707330000000  0.4270230000000 1.0
C      1  0.5081310000000  0.4015620000000  0.5528520000000 1.0
C      1  0.4481240000000  0.4269920000000  0.4585880000000 1.0
C      1  0.5115420000000  0.4835390000000  0.6105170000000 1.0
C      1  0.5363820000000  0.4936020000000  0.4377750000000 1.0
C      1  0.4374570000000  0.5694760000000  0.5672980000000 1.0
C      1  0.4308370000000  0.5195900000000  0.5070520000000 1.0
C      1  0.5672590000000  0.4505030000000  0.5723940000000 1.0
C      1  0.5945160000000  0.4980310000000  0.4630580000000 1.0
C      1  0.5506150000000  0.5758800000000  0.5984430000000 1.0
C      1  0.4628140000000  0.6066630000000  0.5153380000000 1.0
C      1  0.5004870000000  0.4780020000000  0.5167700000000 1.0
C      1  0.6024850000000  0.5003310000000  0.5179540000000 1.0
C      1  0.4756370000000  0.5828540000000  0.5029390000000 1.0
C      1  0.5401850000000  0.4676390000000  0.4995480000000 1.0
C      1  0.4360390000000  0.3885660000000  0.4813510000000 1.0
C      1  0.4509820000000  0.4876930000000  0.4159640000000 1.0
C      1  0.5303960000000  0.5189550000000  0.4548930000000 1.0
C      1  0.5685230000000  0.4419230000000  0.5384430000000 1.0
C      1  0.4919310000000  0.4277870000000  0.5539670000000 1.0
C      1  0.4938410000000  0.4210200000000  0.4285990000000 1.0
C      1  0.4636570000000  0.4174860000000  0.5570120000000 1.0
C      1  0.3719790000000  0.4949970000000  0.4858970000000 1.0
C      1  0.5780700000000  0.4939040000000  0.5598810000000 1.0
C      1  0.4604440000000  0.4166900000000  0.3996150000000 1.0
C      1  0.5330450000000  0.5007090000000  0.6166980000000 1.0
C      1  0.4076370000000  0.4955530000000  0.4505290000000 1.0
C      1  0.5563430000000  0.5701640000000  0.5097480000000 1.0
C      1  0.4916330000000  0.4469050000000  0.4141940000000 1.0
C      1  0.4457070000000  0.4938140000000  0.6077260000000 1.0
C      1  0.4582190000000  0.5082060000000  0.5482620000000 1.0
C      1  0.5377410000000  0.5637330000000  0.5394360000000 1.0
C      1  0.4622100000000  0.5147560000000  0.5985570000000 1.0
C      1  0.4627290000000  0.4493730000000  0.4850940000000 1.0
C      1  0.5503740000000  0.4889640000000  0.5429480000000 1.0
C      1  0.4975810000000  0.5523200000000  0.4679210000000 1.0
C      1  0.4583980000000  0.6047170000000  0.5425280000000 1.0
C      1  0.4744020000000  0.5323230000000  0.4734730000000 1.0
C      1  0.5727650000000  0.4346220000000  0.4906750000000 1.0
C      1  0.5822700000000  0.5365960000000  0.5471360000000 1.0
C      1  0.3966130000000  0.4834690000000  0.5534920000000 1.0
C      1  0.4365700000000  0.4974570000000  0.4612670000000 1.0
C      1  0.5354820000000  0.4020770000000  0.5467470000000 1.0
C      1  0.5539720000000  0.5722780000000  0.4346340000000 1.0
C      1  0.4363640000000  0.5827290000000  0.4997950000000 1.0
C      1  0.5091330000000  0.5524710000000  0.4182070000000 1.0
C      1  0.3983650000000  0.5341260000000  0.4807840000000 1.0
C      1  0.4499160000000  0.5826770000000  0.4519230000000 1.0
C      1  0.4848510000000  0.4901510000000  0.6187680000000 1.0
C      1  0.5729870000000  0.5655600000000  0.5845470000000 1.0
C      1  0.4112330000000  0.4603730000000  0.5074470000000 1.0
C      1  0.4192730000000  0.4527660000000  0.4295900000000 1.0
C      1  0.4263670000000  0.4092010000000  0.4643500000000 1.0
C      1  0.5056220000000  0.4850480000000  0.4305180000000 1.0
C      1  0.5686330000000  0.4210910000000  0.5165920000000 1.0
C      1  0.5676690000000  0.5037370000000  0.4780510000000 1.0
C      1  0.4577720000000  0.5356850000000  0.5046170000000 1.0
C      1  0.5608480000000  0.5034280000000  0.4184320000000 1.0
C      1  0.5182040000000  0.4476730000000  0.4909660000000 1.0
C      1  0.5440870000000  0.5095420000000  0.5212020000000 1.0
C      1  0.4448600000000  0.4626540000000  0.4020910000000 1.0
C      1  0.5608580000000  0.5990610000000  0.5492650000000 1.0
C      1  0.5510280000000  0.4633220000000  0.5277320000000 1.0
C      1  0.4872630000000  0.3988780000000  0.4763960000000 1.0
C      1  0.5163000000000  0.5522540000000  0.4910200000000 1.0
C      1  0.4863330000000  0.4805760000000  0.4556290000000 1.0
END
