TITL C-951347-9520-47 4.13321418052795e-06 125000 -613.863329940429 0 0 99 (C1) n - 1
REM
REM in /home/bkarasulu/work/CARBON/AIRSS/Generating-Clusters/EDIP-Nigel-Params/with-SteepDescent/Only-C1/SD-CG/HFTN-CG
REM
REM
REM
REM
REM
REM ./C.cell (11c1c37f851c82e70ff6c80c92926a4b)
REM
REM compiler GCC version 9.2.1 20190827 (Red Hat 9.2.1-1)
REM options -cpp -mtune=generic -march=x86-64 -g -O0 -fpre-include=/usr/include/finclude/math-vector-fortran.h
REM seed -207401607 -900969591 1513058836 -1898337337 -1815361502 -793264484 1092900086 -638831364 -945958661 461585532 1235015888 155111981 -1571734890 -817163548 -637543752 -1481326190 -1237630297 760085940 -887168939 1642298540 1427632665 -1037757878 -1402972234 1854580184 1923981008 -1731554373 -5324145 -932232942 2069130639 1691007289 -2026292852 182444622 1864465369
REM
CELL 1.54180   50.00000   50.00000   50.00000   90.00000   90.00000   90.00000
LATT -1
SFAC C  
C      1  0.4643420000000  0.4933050000000  0.4594730000000 1.0
C      1  0.5834330000000  0.4740990000000  0.5248910000000 1.0
C      1  0.5258860000000  0.5284710000000  0.4261970000000 1.0
C      1  0.5380650000000  0.5230850000000  0.5611530000000 1.0
C      1  0.4565320000000  0.4505070000000  0.5368630000000 1.0
C      1  0.4948970000000  0.5299620000000  0.5856930000000 1.0
C      1  0.5551710000000  0.4708010000000  0.4552140000000 1.0
C      1  0.5173930000000  0.5414570000000  0.4843980000000 1.0
C      1  0.4748950000000  0.5769530000000  0.4759870000000 1.0
C      1  0.4716360000000  0.4729800000000  0.5232240000000 1.0
C      1  0.4936180000000  0.5465480000000  0.5064950000000 1.0
C      1  0.5837060000000  0.5242590000000  0.4650480000000 1.0
C      1  0.4857500000000  0.4393710000000  0.4537560000000 1.0
C      1  0.5013040000000  0.5843150000000  0.5413700000000 1.0
C      1  0.4254980000000  0.4606660000000  0.5000910000000 1.0
C      1  0.4195200000000  0.4881210000000  0.4888090000000 1.0
C      1  0.5710250000000  0.5321070000000  0.4415990000000 1.0
C      1  0.5381460000000  0.4721020000000  0.4957520000000 1.0
C      1  0.4991150000000  0.5762430000000  0.4588300000000 1.0
C      1  0.5531670000000  0.4877050000000  0.4310760000000 1.0
C      1  0.4322560000000  0.4949710000000  0.4606910000000 1.0
C      1  0.5127450000000  0.4610660000000  0.5850240000000 1.0
C      1  0.4880180000000  0.5427160000000  0.5609610000000 1.0
C      1  0.4956490000000  0.4212180000000  0.5255560000000 1.0
C      1  0.5136400000000  0.5117890000000  0.5265910000000 1.0
C      1  0.4388090000000  0.5245630000000  0.5566470000000 1.0
C      1  0.4871710000000  0.5231510000000  0.5368890000000 1.0
C      1  0.4989990000000  0.5361530000000  0.4342270000000 1.0
C      1  0.5706480000000  0.5429220000000  0.5087850000000 1.0
C      1  0.4774380000000  0.5201690000000  0.4200260000000 1.0
C      1  0.4417700000000  0.4438520000000  0.4817990000000 1.0
C      1  0.4281490000000  0.5099260000000  0.5066640000000 1.0
C      1  0.4594390000000  0.4810200000000  0.4964530000000 1.0
C      1  0.4738100000000  0.4858340000000  0.5686070000000 1.0
C      1  0.4524290000000  0.5495360000000  0.5485280000000 1.0
C      1  0.5547850000000  0.4776090000000  0.5676210000000 1.0
C      1  0.5728830000000  0.5026290000000  0.5279300000000 1.0
C      1  0.4661040000000  0.4247480000000  0.5230880000000 1.0
C      1  0.4916910000000  0.4419720000000  0.5730060000000 1.0
C      1  0.5404780000000  0.5738950000000  0.5178800000000 1.0
C      1  0.5068540000000  0.4319400000000  0.4990080000000 1.0
C      1  0.4617230000000  0.4363320000000  0.4369950000000 1.0
C      1  0.4622450000000  0.4492180000000  0.4115300000000 1.0
C      1  0.4282690000000  0.4578110000000  0.5301640000000 1.0
C      1  0.5809810000000  0.5025010000000  0.4827260000000 1.0
C      1  0.5351660000000  0.4498660000000  0.4587150000000 1.0
C      1  0.4528430000000  0.5072600000000  0.5762010000000 1.0
C      1  0.5456570000000  0.4679000000000  0.5270810000000 1.0
C      1  0.4331160000000  0.5329880000000  0.4901350000000 1.0
C      1  0.5004900000000  0.5265900000000  0.4625530000000 1.0
C      1  0.4473030000000  0.5637650000000  0.5233820000000 1.0
C      1  0.5087020000000  0.4759430000000  0.4949340000000 1.0
C      1  0.5015870000000  0.5034590000000  0.5000640000000 1.0
C      1  0.4715570000000  0.5117330000000  0.4978940000000 1.0
C      1  0.4197660000000  0.4807800000000  0.5435620000000 1.0
C      1  0.5560600000000  0.5017130000000  0.5530340000000 1.0
C      1  0.5352470000000  0.4346290000000  0.4853250000000 1.0
C      1  0.5444070000000  0.5448050000000  0.4431690000000 1.0
C      1  0.4966410000000  0.5764060000000  0.5145920000000 1.0
C      1  0.4531160000000  0.5909680000000  0.5196390000000 1.0
C      1  0.5299920000000  0.5445120000000  0.5399110000000 1.0
C      1  0.4283530000000  0.5263140000000  0.4615550000000 1.0
C      1  0.4528750000000  0.4751860000000  0.4178970000000 1.0
C      1  0.4657860000000  0.4560140000000  0.5661090000000 1.0
C      1  0.5780530000000  0.4741660000000  0.4739800000000 1.0
C      1  0.4516300000000  0.5392850000000  0.4502480000000 1.0
C      1  0.4536390000000  0.5346420000000  0.4224630000000 1.0
C      1  0.4751770000000  0.5910290000000  0.5016530000000 1.0
C      1  0.4564040000000  0.5511090000000  0.4978770000000 1.0
C      1  0.5601790000000  0.4345880000000  0.5033310000000 1.0
C      1  0.5436700000000  0.5300860000000  0.5005870000000 1.0
C      1  0.5094290000000  0.4536070000000  0.4439300000000 1.0
C      1  0.4947870000000  0.5650750000000  0.4334720000000 1.0
C      1  0.5557350000000  0.5019450000000  0.5006200000000 1.0
C      1  0.5553670000000  0.4305820000000  0.5321750000000 1.0
C      1  0.4380170000000  0.4456780000000  0.4521860000000 1.0
C      1  0.5057640000000  0.4862100000000  0.5696520000000 1.0
C      1  0.4605660000000  0.4241840000000  0.4932640000000 1.0
C      1  0.5001280000000  0.4643610000000  0.5205500000000 1.0
C      1  0.5886450000000  0.5273700000000  0.5248370000000 1.0
C      1  0.5403090000000  0.4542280000000  0.5751030000000 1.0
C      1  0.5407110000000  0.5814840000000  0.4892640000000 1.0
C      1  0.5264370000000  0.5650780000000  0.4683880000000 1.0
C      1  0.4694830000000  0.4977820000000  0.5412510000000 1.0
C      1  0.5794290000000  0.4578440000000  0.4999760000000 1.0
C      1  0.4309250000000  0.4722780000000  0.4390760000000 1.0
C      1  0.4863300000000  0.4249800000000  0.4790380000000 1.0
C      1  0.4720410000000  0.5213840000000  0.4683430000000 1.0
C      1  0.4268650000000  0.5067290000000  0.5357870000000 1.0
C      1  0.4754000000000  0.4916160000000  0.4303350000000 1.0
C      1  0.5682750000000  0.5706710000000  0.5135670000000 1.0
C      1  0.5070230000000  0.4324500000000  0.5497760000000 1.0
C      1  0.5096920000000  0.5610510000000  0.5539930000000 1.0
C      1  0.5710680000000  0.5087820000000  0.4257570000000 1.0
C      1  0.5161530000000  0.5128160000000  0.5792560000000 1.0
C      1  0.5356140000000  0.4344950000000  0.5533900000000 1.0
C      1  0.5177900000000  0.4832840000000  0.5398970000000 1.0
C      1  0.5038400000000  0.4795060000000  0.4303930000000 1.0
C      1  0.5266770000000  0.4981940000000  0.4275180000000 1.0
END
