TITL C-951340-9809-220 -5.0789495769265e-06 125000 -1227.73214066209 0 0 197 (C1) n - 1
REM
REM in /home/bkarasulu/work/CARBON/AIRSS/Generating-Clusters/EDIP-Nigel-Params/with-SteepDescent/Only-C1/SD-CG/HFTN-CG
REM
REM
REM
REM
REM
REM ./C.cell (11c1c37f851c82e70ff6c80c92926a4b)
REM
REM compiler GCC version 9.2.1 20190827 (Red Hat 9.2.1-1)
REM options -cpp -mtune=generic -march=x86-64 -g -O0 -fpre-include=/usr/include/finclude/math-vector-fortran.h
REM seed 1806163061 1644779736 530071939 -1915245540 -1878224173 -851567043 -1165355207 742290134 -1436305352 947859858 1029888784 -983582869 791911905 149746400 247664057 1188310234 1631469404 -1927651874 726921195 857287997 -1371971148 -1249903179 1956758540 -2111352228 -2051506877 827829107 -31532322 -997593928 -802036002 1563448315 768923725 -1745260265 -304881039
REM
CELL 1.54180   50.00000   50.00000   50.00000   90.00000   90.00000   90.00000
LATT -1
SFAC C  
C      1  0.4821390000000  0.4651390000000  0.4999960000000 1.0
C      1  0.4791750000000  0.4885470000000  0.3828450000000 1.0
C      1  0.5413140000000  0.4331160000000  0.5727930000000 1.0
C      1  0.4814990000000  0.4900940000000  0.6025650000000 1.0
C      1  0.4597470000000  0.4408340000000  0.6012680000000 1.0
C      1  0.4037210000000  0.4421870000000  0.4856210000000 1.0
C      1  0.5799840000000  0.4853750000000  0.4807890000000 1.0
C      1  0.5282150000000  0.6130820000000  0.4773880000000 1.0
C      1  0.5727350000000  0.4690010000000  0.5074300000000 1.0
C      1  0.4176540000000  0.5029110000000  0.5766340000000 1.0
C      1  0.4269170000000  0.5850880000000  0.5204890000000 1.0
C      1  0.4042330000000  0.4682340000000  0.4735250000000 1.0
C      1  0.4008240000000  0.5123320000000  0.4761600000000 1.0
C      1  0.6073590000000  0.5303980000000  0.4763800000000 1.0
C      1  0.5993910000000  0.5493700000000  0.5227390000000 1.0
C      1  0.4070120000000  0.4407870000000  0.5150490000000 1.0
C      1  0.3987760000000  0.4651670000000  0.5311710000000 1.0
C      1  0.5927690000000  0.4608420000000  0.5460220000000 1.0
C      1  0.4350790000000  0.5879300000000  0.4905790000000 1.0
C      1  0.4653030000000  0.4590120000000  0.4538370000000 1.0
C      1  0.4171420000000  0.5704890000000  0.4738350000000 1.0
C      1  0.5452420000000  0.5830100000000  0.5250640000000 1.0
C      1  0.5040010000000  0.5073640000000  0.6170860000000 1.0
C      1  0.5498220000000  0.5241330000000  0.4892300000000 1.0
C      1  0.6087770000000  0.5251050000000  0.5359520000000 1.0
C      1  0.5083690000000  0.5196040000000  0.5706840000000 1.0
C      1  0.5452940000000  0.4397810000000  0.4211850000000 1.0
C      1  0.4585690000000  0.4080860000000  0.5312010000000 1.0
C      1  0.4495420000000  0.5232230000000  0.5319190000000 1.0
C      1  0.4934520000000  0.5365050000000  0.3950690000000 1.0
C      1  0.5029210000000  0.5469670000000  0.4845950000000 1.0
C      1  0.4898210000000  0.5635080000000  0.5468100000000 1.0
C      1  0.4266020000000  0.5085870000000  0.4925430000000 1.0
C      1  0.5512700000000  0.5233720000000  0.5926120000000 1.0
C      1  0.4543800000000  0.4981640000000  0.6093360000000 1.0
C      1  0.5296600000000  0.5610090000000  0.5834680000000 1.0
C      1  0.4872120000000  0.4656410000000  0.4713700000000 1.0
C      1  0.4951320000000  0.4276170000000  0.5550250000000 1.0
C      1  0.4828630000000  0.4958510000000  0.5038380000000 1.0
C      1  0.4926050000000  0.4733560000000  0.4284890000000 1.0
C      1  0.4712460000000  0.4335410000000  0.5405930000000 1.0
C      1  0.5193510000000  0.5698210000000  0.4921310000000 1.0
C      1  0.5213460000000  0.5332380000000  0.5943330000000 1.0
C      1  0.4531920000000  0.5274230000000  0.6085760000000 1.0
C      1  0.4586410000000  0.5394070000000  0.5084200000000 1.0
C      1  0.5282150000000  0.4923630000000  0.5335110000000 1.0
C      1  0.4086890000000  0.4709710000000  0.5582680000000 1.0
C      1  0.3895040000000  0.4900900000000  0.5168260000000 1.0
C      1  0.5165930000000  0.3942760000000  0.5351850000000 1.0
C      1  0.6053050000000  0.5524660000000  0.4944650000000 1.0
C      1  0.4285200000000  0.5345490000000  0.4503980000000 1.0
C      1  0.5076430000000  0.4494810000000  0.5107220000000 1.0
C      1  0.5204800000000  0.5416990000000  0.4372730000000 1.0
C      1  0.4803150000000  0.6179680000000  0.4688480000000 1.0
C      1  0.5473640000000  0.4526090000000  0.5923850000000 1.0
C      1  0.5102570000000  0.5070750000000  0.5128040000000 1.0
C      1  0.5044330000000  0.5835650000000  0.4463230000000 1.0
C      1  0.4014860000000  0.5550350000000  0.5540160000000 1.0
C      1  0.3875320000000  0.4883670000000  0.4868590000000 1.0
C      1  0.5944400000000  0.4279520000000  0.4646480000000 1.0
C      1  0.5559990000000  0.4240970000000  0.5503890000000 1.0
C      1  0.5381630000000  0.5187210000000  0.4442670000000 1.0
C      1  0.4599070000000  0.5267710000000  0.5631430000000 1.0
C      1  0.4270200000000  0.4541730000000  0.4315510000000 1.0
C      1  0.4986880000000  0.5092620000000  0.3891680000000 1.0
C      1  0.4458280000000  0.5723440000000  0.5655330000000 1.0
C      1  0.4355980000000  0.4848140000000  0.5904580000000 1.0
C      1  0.4415930000000  0.4663450000000  0.4092660000000 1.0
C      1  0.4814510000000  0.5378500000000  0.6097550000000 1.0
C      1  0.5565840000000  0.5252170000000  0.5617090000000 1.0
C      1  0.5056450000000  0.5404870000000  0.5325800000000 1.0
C      1  0.4905520000000  0.4259180000000  0.4981820000000 1.0
C      1  0.4802420000000  0.4453480000000  0.4047950000000 1.0
C      1  0.5417690000000  0.4079200000000  0.5314920000000 1.0
C      1  0.4352360000000  0.4617000000000  0.5704070000000 1.0
C      1  0.5778470000000  0.5901290000000  0.5053690000000 1.0
C      1  0.4583850000000  0.4601950000000  0.5482080000000 1.0
C      1  0.4834750000000  0.5624710000000  0.5934790000000 1.0
C      1  0.5211120000000  0.6005570000000  0.5287370000000 1.0
C      1  0.5675070000000  0.5897630000000  0.4452070000000 1.0
C      1  0.4212790000000  0.5123530000000  0.5228920000000 1.0
C      1  0.5515350000000  0.4529700000000  0.4887890000000 1.0
C      1  0.4582420000000  0.5725640000000  0.4469930000000 1.0
C      1  0.4083880000000  0.4964950000000  0.4326530000000 1.0
C      1  0.4678830000000  0.5410030000000  0.4076010000000 1.0
C      1  0.4188850000000  0.4208330000000  0.4709560000000 1.0
C      1  0.5099130000000  0.4357540000000  0.4480890000000 1.0
C      1  0.4175030000000  0.4125430000000  0.5200130000000 1.0
C      1  0.5877910000000  0.4718960000000  0.5713870000000 1.0
C      1  0.4305510000000  0.5623180000000  0.4495720000000 1.0
C      1  0.4842410000000  0.4796920000000  0.5552250000000 1.0
C      1  0.5483850000000  0.5550170000000  0.5590950000000 1.0
C      1  0.6104770000000  0.5023170000000  0.5183350000000 1.0
C      1  0.4354410000000  0.5282880000000  0.5815820000000 1.0
C      1  0.4482640000000  0.5273090000000  0.4826860000000 1.0
C      1  0.4319690000000  0.4034970000000  0.5448700000000 1.0
C      1  0.4828620000000  0.5035770000000  0.5734540000000 1.0
C      1  0.4346190000000  0.4072180000000  0.4930320000000 1.0
C      1  0.5338800000000  0.4192060000000  0.4388700000000 1.0
C      1  0.4945150000000  0.4628520000000  0.3861510000000 1.0
C      1  0.5288080000000  0.4891350000000  0.6177270000000 1.0
C      1  0.6099700000000  0.4588370000000  0.4989390000000 1.0
C      1  0.5025320000000  0.3861920000000  0.5111500000000 1.0
C      1  0.4570390000000  0.4301440000000  0.4988600000000 1.0
C      1  0.5293890000000  0.5677070000000  0.4494200000000 1.0
C      1  0.5637580000000  0.4671450000000  0.4638860000000 1.0
C      1  0.5582860000000  0.4893820000000  0.5262060000000 1.0
C      1  0.5123640000000  0.5978650000000  0.4992070000000 1.0
C      1  0.5038750000000  0.4467200000000  0.6166100000000 1.0
C      1  0.5578150000000  0.5366100000000  0.5142480000000 1.0
C      1  0.4526520000000  0.4905200000000  0.3963620000000 1.0
C      1  0.5257560000000  0.5005210000000  0.3882150000000 1.0
C      1  0.5549860000000  0.5966230000000  0.4734820000000 1.0
C      1  0.5640150000000  0.4749390000000  0.5859050000000 1.0
C      1  0.5788820000000  0.5362480000000  0.4250820000000 1.0
C      1  0.5989560000000  0.4322110000000  0.4920910000000 1.0
C      1  0.4468890000000  0.5894340000000  0.5419090000000 1.0
C      1  0.5471230000000  0.5677580000000  0.4842010000000 1.0
C      1  0.4462380000000  0.4755920000000  0.5234260000000 1.0
C      1  0.4855430000000  0.4299660000000  0.4288540000000 1.0
C      1  0.5305260000000  0.4655290000000  0.4240150000000 1.0
C      1  0.5255000000000  0.4620520000000  0.6085460000000 1.0
C      1  0.4241500000000  0.5189610000000  0.4275020000000 1.0
C      1  0.5409390000000  0.3981700000000  0.4841520000000 1.0
C      1  0.5540480000000  0.4966100000000  0.6037130000000 1.0
C      1  0.5694260000000  0.5760440000000  0.5541160000000 1.0
C      1  0.4679340000000  0.5051910000000  0.4758490000000 1.0
C      1  0.5778110000000  0.4864940000000  0.4247630000000 1.0
C      1  0.6176790000000  0.5069330000000  0.4895900000000 1.0
C      1  0.4648830000000  0.4982860000000  0.5269330000000 1.0
C      1  0.5224200000000  0.4722710000000  0.3954770000000 1.0
C      1  0.4994120000000  0.5923220000000  0.5497270000000 1.0
C      1  0.5363810000000  0.5527510000000  0.5295060000000 1.0
C      1  0.4800340000000  0.5042660000000  0.4286560000000 1.0
C      1  0.5451750000000  0.5172390000000  0.4007300000000 1.0
C      1  0.4970020000000  0.5775320000000  0.4182090000000 1.0
C      1  0.5964650000000  0.5262490000000  0.4481840000000 1.0
C      1  0.5122790000000  0.4718540000000  0.5484890000000 1.0
C      1  0.4781640000000  0.5537300000000  0.4652040000000 1.0
C      1  0.4974690000000  0.3837170000000  0.4497140000000 1.0
C      1  0.4656420000000  0.5782720000000  0.4903380000000 1.0
C      1  0.5175440000000  0.4432000000000  0.5439710000000 1.0
C      1  0.5008160000000  0.4002580000000  0.5574940000000 1.0
C      1  0.5472280000000  0.5783210000000  0.4276960000000 1.0
C      1  0.6077940000000  0.4855060000000  0.4713960000000 1.0
C      1  0.5543520000000  0.5531550000000  0.4117270000000 1.0
C      1  0.5718390000000  0.5123810000000  0.4092440000000 1.0
C      1  0.3940150000000  0.5261510000000  0.5296060000000 1.0
C      1  0.5071490000000  0.5796310000000  0.5833620000000 1.0
C      1  0.5160190000000  0.5048800000000  0.4622030000000 1.0
C      1  0.5735690000000  0.4478220000000  0.4228130000000 1.0
C      1  0.4881320000000  0.5170140000000  0.4549610000000 1.0
C      1  0.5204360000000  0.3937830000000  0.4374720000000 1.0
C      1  0.4030780000000  0.5694410000000  0.5289070000000 1.0
C      1  0.4566530000000  0.4854630000000  0.4395660000000 1.0
C      1  0.5263320000000  0.4631180000000  0.4918730000000 1.0
C      1  0.4728580000000  0.3881120000000  0.5108430000000 1.0
C      1  0.4360720000000  0.4371180000000  0.5862480000000 1.0
C      1  0.5714410000000  0.5166960000000  0.5331710000000 1.0
C      1  0.4725580000000  0.3949120000000  0.4591920000000 1.0
C      1  0.5305910000000  0.5119480000000  0.5547070000000 1.0
C      1  0.4581280000000  0.3881190000000  0.4847780000000 1.0
C      1  0.4454040000000  0.4526310000000  0.4781820000000 1.0
C      1  0.5780230000000  0.4253720000000  0.5107070000000 1.0
C      1  0.4351070000000  0.4291990000000  0.4462150000000 1.0
C      1  0.5498380000000  0.4844730000000  0.4401190000000 1.0
C      1  0.3897250000000  0.5504080000000  0.5111300000000 1.0
C      1  0.6006980000000  0.4973950000000  0.4434500000000 1.0
C      1  0.5917990000000  0.5744590000000  0.4832340000000 1.0
C      1  0.6109640000000  0.4730780000000  0.5258240000000 1.0
C      1  0.4479510000000  0.5172950000000  0.4098950000000 1.0
C      1  0.4734090000000  0.6205890000000  0.5170090000000 1.0
C      1  0.4626330000000  0.4166550000000  0.4422910000000 1.0
C      1  0.4290740000000  0.4155030000000  0.5701530000000 1.0
C      1  0.5188340000000  0.3808630000000  0.4880340000000 1.0
C      1  0.4829400000000  0.6038880000000  0.4956170000000 1.0
C      1  0.5829430000000  0.4491420000000  0.4499530000000 1.0
C      1  0.4082090000000  0.4713210000000  0.4446760000000 1.0
C      1  0.5564440000000  0.4055470000000  0.5071800000000 1.0
C      1  0.4418950000000  0.4797850000000  0.4932570000000 1.0
C      1  0.5079780000000  0.4156840000000  0.4745530000000 1.0
C      1  0.5208040000000  0.5200160000000  0.4877730000000 1.0
C      1  0.4559050000000  0.6012450000000  0.4604360000000 1.0
C      1  0.4725570000000  0.6038850000000  0.5391350000000 1.0
C      1  0.4702950000000  0.5561060000000  0.5676300000000 1.0
C      1  0.5878640000000  0.5756480000000  0.5313270000000 1.0
C      1  0.4005770000000  0.5489350000000  0.4846130000000 1.0
C      1  0.4685620000000  0.5687390000000  0.4185500000000 1.0
C      1  0.5803770000000  0.5662830000000  0.4573310000000 1.0
C      1  0.4230370000000  0.5550410000000  0.5727700000000 1.0
C      1  0.5784980000000  0.4368620000000  0.5373600000000 1.0
C      1  0.5065930000000  0.6113910000000  0.4557710000000 1.0
C      1  0.4870170000000  0.5440100000000  0.5078460000000 1.0
C      1  0.5567960000000  0.5369810000000  0.4630360000000 1.0
C      1  0.4813950000000  0.4585720000000  0.6055050000000 1.0
C      1  0.5151550000000  0.5529930000000  0.4088990000000 1.0
C      1  0.5155920000000  0.4704660000000  0.4650020000000 1.0
END
