TITL C-950532-2784-641 6.06814759163872e-08 125000 -539.006563857207 0 0 87 (C1) n - 1
REM
REM in /home/bkarasulu/work/CARBON/AIRSS/Generating-Clusters/EDIP-Nigel-Params/with-SteepDescent/Only-C1/SD-CG/HFTN-CG
REM
REM
REM
REM
REM
REM ./C.cell (11c1c37f851c82e70ff6c80c92926a4b)
REM
REM compiler GCC version 9.2.1 20190827 (Red Hat 9.2.1-1)
REM options -cpp -mtune=generic -march=x86-64 -g -O0 -fpre-include=/usr/include/finclude/math-vector-fortran.h
REM seed 865361079 103996057 904921804 -1250400298 1052975526 -1406617121 -1633136601 826370466 704224716 873337019 -1026464143 -1570353165 -1599560056 1311450787 2031283954 1689691880 885940188 608487544 1689518429 933490455 1065545806 1931185740 420337478 166208790 2033377776 570724033 2014856102 -738068168 1620540509 -1861201852 1463846014 -201232769 -758496045
REM
CELL 1.54180   50.00000   50.00000   50.00000   90.00000   90.00000   90.00000
LATT -1
SFAC C  
C      1  0.4637430000000  0.5126530000000  0.4245920000000 1.0
C      1  0.5002900000000  0.4066020000000  0.5166570000000 1.0
C      1  0.5265540000000  0.4141000000000  0.5093630000000 1.0
C      1  0.4823600000000  0.5518010000000  0.5415110000000 1.0
C      1  0.5733850000000  0.4526760000000  0.4836260000000 1.0
C      1  0.4303680000000  0.5297670000000  0.4561230000000 1.0
C      1  0.5025940000000  0.4674050000000  0.4219020000000 1.0
C      1  0.5029460000000  0.5049790000000  0.5571810000000 1.0
C      1  0.4160230000000  0.5032100000000  0.4941520000000 1.0
C      1  0.4771150000000  0.4247080000000  0.4698650000000 1.0
C      1  0.4918090000000  0.4845860000000  0.5756960000000 1.0
C      1  0.5086240000000  0.5341370000000  0.5191600000000 1.0
C      1  0.5794920000000  0.4800730000000  0.4878510000000 1.0
C      1  0.5665310000000  0.4667740000000  0.5326120000000 1.0
C      1  0.5349870000000  0.5056600000000  0.4325520000000 1.0
C      1  0.4461020000000  0.4766260000000  0.5180330000000 1.0
C      1  0.5387690000000  0.5640720000000  0.5523190000000 1.0
C      1  0.4363680000000  0.5042430000000  0.4708990000000 1.0
C      1  0.4569730000000  0.5631920000000  0.4315980000000 1.0
C      1  0.5593750000000  0.4970430000000  0.4746860000000 1.0
C      1  0.5343760000000  0.5728300000000  0.4751850000000 1.0
C      1  0.5006190000000  0.5415500000000  0.4922420000000 1.0
C      1  0.4181240000000  0.4845770000000  0.5160500000000 1.0
C      1  0.4553240000000  0.5142270000000  0.5622920000000 1.0
C      1  0.4908010000000  0.5169410000000  0.4162720000000 1.0
C      1  0.5199490000000  0.4220970000000  0.5552280000000 1.0
C      1  0.4483790000000  0.5360400000000  0.4340870000000 1.0
C      1  0.5273680000000  0.5305780000000  0.4476260000000 1.0
C      1  0.5292380000000  0.4273590000000  0.4821620000000 1.0
C      1  0.4927010000000  0.5885190000000  0.4990510000000 1.0
C      1  0.4498170000000  0.4569240000000  0.4945900000000 1.0
C      1  0.4201990000000  0.5321940000000  0.5021470000000 1.0
C      1  0.5471800000000  0.5476960000000  0.4621050000000 1.0
C      1  0.5035640000000  0.4563750000000  0.4856240000000 1.0
C      1  0.5244240000000  0.4507190000000  0.4279550000000 1.0
C      1  0.5782010000000  0.4896430000000  0.5158280000000 1.0
C      1  0.5643420000000  0.5183790000000  0.5174140000000 1.0
C      1  0.5346790000000  0.4301910000000  0.5324120000000 1.0
C      1  0.4744650000000  0.5376220000000  0.5670390000000 1.0
C      1  0.5113220000000  0.5016500000000  0.4689710000000 1.0
C      1  0.4675950000000  0.4344260000000  0.4963030000000 1.0
C      1  0.4411700000000  0.5267110000000  0.5223060000000 1.0
C      1  0.4306470000000  0.5490830000000  0.4783950000000 1.0
C      1  0.5295460000000  0.5717370000000  0.5257460000000 1.0
C      1  0.5469790000000  0.4965910000000  0.5664370000000 1.0
C      1  0.4794130000000  0.4673190000000  0.4418490000000 1.0
C      1  0.5274170000000  0.4677630000000  0.4996220000000 1.0
C      1  0.5369920000000  0.4605170000000  0.5271060000000 1.0
C      1  0.4639380000000  0.4850100000000  0.5655130000000 1.0
C      1  0.4903830000000  0.5222980000000  0.4738620000000 1.0
C      1  0.5447650000000  0.4576280000000  0.4460800000000 1.0
C      1  0.5287360000000  0.4947740000000  0.5438980000000 1.0
C      1  0.5482860000000  0.5709260000000  0.5031390000000 1.0
C      1  0.5524490000000  0.4862970000000  0.4472850000000 1.0
C      1  0.4315000000000  0.5211800000000  0.5484660000000 1.0
C      1  0.5455650000000  0.4697090000000  0.5780280000000 1.0
C      1  0.4986630000000  0.4383860000000  0.5632190000000 1.0
C      1  0.4653870000000  0.5048030000000  0.4833780000000 1.0
C      1  0.4789590000000  0.4246090000000  0.5206300000000 1.0
C      1  0.4789620000000  0.4436980000000  0.5423490000000 1.0
C      1  0.5081380000000  0.5896970000000  0.5225620000000 1.0
C      1  0.4609070000000  0.5046990000000  0.5135510000000 1.0
C      1  0.4869250000000  0.5145290000000  0.5315180000000 1.0
C      1  0.5640950000000  0.5531480000000  0.5530620000000 1.0
C      1  0.5206250000000  0.5514100000000  0.5691560000000 1.0
C      1  0.5737460000000  0.5317420000000  0.5405250000000 1.0
C      1  0.4901010000000  0.5380290000000  0.4482690000000 1.0
C      1  0.5600400000000  0.5454510000000  0.4905570000000 1.0
C      1  0.4905370000000  0.4781470000000  0.4689270000000 1.0
C      1  0.5057530000000  0.4241250000000  0.4645390000000 1.0
C      1  0.4574710000000  0.5623120000000  0.4801240000000 1.0
C      1  0.4650260000000  0.5791980000000  0.5030640000000 1.0
C      1  0.5087900000000  0.4609630000000  0.5774090000000 1.0
C      1  0.4584180000000  0.4649850000000  0.5441500000000 1.0
C      1  0.5112940000000  0.4958750000000  0.4168920000000 1.0
C      1  0.4750700000000  0.5648890000000  0.4545750000000 1.0
C      1  0.4630580000000  0.4415080000000  0.4497290000000 1.0
C      1  0.4413620000000  0.4558410000000  0.4657810000000 1.0
C      1  0.5028680000000  0.5304770000000  0.5744910000000 1.0
C      1  0.5324930000000  0.4956380000000  0.4911680000000 1.0
C      1  0.4571680000000  0.4853510000000  0.4327390000000 1.0
C      1  0.5337150000000  0.5126400000000  0.5185650000000 1.0
C      1  0.5535010000000  0.4400320000000  0.4682070000000 1.0
C      1  0.4628570000000  0.5684590000000  0.5289450000000 1.0
C      1  0.5704690000000  0.4669700000000  0.5617750000000 1.0
C      1  0.4351660000000  0.4814530000000  0.4519910000000 1.0
C      1  0.5035760000000  0.5685460000000  0.4794610000000 1.0
END
