TITL C-951342-2639-99 7.42388134643047e-07 125000 -427.043662266248 0 0 70 (C1) n - 1
REM
REM in /home/bkarasulu/work/CARBON/AIRSS/Generating-Clusters/EDIP-Nigel-Params/with-SteepDescent/Only-C1/SD-CG/HFTN-CG
REM
REM
REM
REM
REM
REM ./C.cell (11c1c37f851c82e70ff6c80c92926a4b)
REM
REM compiler GCC version 9.2.1 20190827 (Red Hat 9.2.1-1)
REM options -cpp -mtune=generic -march=x86-64 -g -O0 -fpre-include=/usr/include/finclude/math-vector-fortran.h
REM seed -78082825 -331649729 31989763 308844892 -1066248432 611026187 519909362 452593930 -187260191 -71510057 139249300 1697137599 1978001652 1554659921 212665972 1870949177 -2087720661 -522510742 1341456711 1965451427 -1096391575 -453624347 1342112223 -1839824495 -523232043 109695943 1419092959 374685099 -897775734 -455665303 465218636 1274552375 -1691317983
REM
CELL 1.54180   50.00000   50.00000   50.00000   90.00000   90.00000   90.00000
LATT -1
SFAC C  
C      1  0.5281910000000  0.5727390000000  0.4924000000000 1.0
C      1  0.4412630000000  0.5043570000000  0.4797420000000 1.0
C      1  0.4408420000000  0.4747010000000  0.5204450000000 1.0
C      1  0.4673840000000  0.4967970000000  0.5876090000000 1.0
C      1  0.5284300000000  0.5225360000000  0.5609380000000 1.0
C      1  0.5075770000000  0.5762380000000  0.5135040000000 1.0
C      1  0.5626960000000  0.4395000000000  0.4762270000000 1.0
C      1  0.5068730000000  0.5326750000000  0.4889010000000 1.0
C      1  0.5168450000000  0.4478530000000  0.4661660000000 1.0
C      1  0.4618080000000  0.5207030000000  0.4261410000000 1.0
C      1  0.4347380000000  0.5489140000000  0.5144260000000 1.0
C      1  0.4607100000000  0.4756230000000  0.4412420000000 1.0
C      1  0.4365930000000  0.4802700000000  0.4616720000000 1.0
C      1  0.5508310000000  0.5051080000000  0.4956100000000 1.0
C      1  0.4650390000000  0.5666550000000  0.4788360000000 1.0
C      1  0.5273950000000  0.5009020000000  0.4755970000000 1.0
C      1  0.4780350000000  0.5135590000000  0.4890610000000 1.0
C      1  0.4701490000000  0.4521460000000  0.4590070000000 1.0
C      1  0.5540650000000  0.5112290000000  0.5523420000000 1.0
C      1  0.5621290000000  0.5323520000000  0.4872560000000 1.0
C      1  0.4923210000000  0.4583740000000  0.4795330000000 1.0
C      1  0.5194960000000  0.4256340000000  0.4863680000000 1.0
C      1  0.4632060000000  0.5414150000000  0.5601150000000 1.0
C      1  0.5101020000000  0.4654860000000  0.5293400000000 1.0
C      1  0.5255820000000  0.4768440000000  0.4338570000000 1.0
C      1  0.4971160000000  0.4302600000000  0.5058000000000 1.0
C      1  0.5335160000000  0.5072210000000  0.5205760000000 1.0
C      1  0.4724400000000  0.4488320000000  0.5465010000000 1.0
C      1  0.4329600000000  0.5312270000000  0.4679210000000 1.0
C      1  0.5100660000000  0.5472730000000  0.5395890000000 1.0
C      1  0.4509420000000  0.4945740000000  0.5651960000000 1.0
C      1  0.5208360000000  0.4753000000000  0.5783780000000 1.0
C      1  0.4822820000000  0.5375740000000  0.5392960000000 1.0
C      1  0.5691310000000  0.4817540000000  0.4961510000000 1.0
C      1  0.5020630000000  0.4525020000000  0.5532640000000 1.0
C      1  0.5056570000000  0.4981640000000  0.4276230000000 1.0
C      1  0.4451730000000  0.4534950000000  0.4761060000000 1.0
C      1  0.5580520000000  0.4822270000000  0.5473090000000 1.0
C      1  0.4776060000000  0.4988610000000  0.4364380000000 1.0
C      1  0.5655590000000  0.4672690000000  0.5220910000000 1.0
C      1  0.4556460000000  0.4739140000000  0.5451720000000 1.0
C      1  0.4325820000000  0.4998980000000  0.5084890000000 1.0
C      1  0.5174200000000  0.4499940000000  0.4380010000000 1.0
C      1  0.5646790000000  0.4671820000000  0.4708840000000 1.0
C      1  0.5305420000000  0.5463020000000  0.4490810000000 1.0
C      1  0.5455630000000  0.4869170000000  0.4540870000000 1.0
C      1  0.4439970000000  0.5209990000000  0.5540840000000 1.0
C      1  0.5617860000000  0.5082920000000  0.4428270000000 1.0
C      1  0.4732050000000  0.5547500000000  0.4522570000000 1.0
C      1  0.5153060000000  0.5035530000000  0.5790400000000 1.0
C      1  0.5472240000000  0.5523790000000  0.5050900000000 1.0
C      1  0.4333420000000  0.5228780000000  0.5264380000000 1.0
C      1  0.5099120000000  0.4895680000000  0.5169470000000 1.0
C      1  0.4717480000000  0.5381350000000  0.5113850000000 1.0
C      1  0.5545230000000  0.5313050000000  0.4579360000000 1.0
C      1  0.5142030000000  0.5336930000000  0.4278990000000 1.0
C      1  0.5433240000000  0.4633430000000  0.5646010000000 1.0
C      1  0.5131660000000  0.5570350000000  0.4711350000000 1.0
C      1  0.5517630000000  0.4410470000000  0.5233980000000 1.0
C      1  0.4485080000000  0.5404250000000  0.4436180000000 1.0
C      1  0.4809530000000  0.5744910000000  0.5025580000000 1.0
C      1  0.4910380000000  0.5091510000000  0.5910450000000 1.0
C      1  0.4389220000000  0.5542360000000  0.4863200000000 1.0
C      1  0.5003200000000  0.4888810000000  0.4892670000000 1.0
C      1  0.4888470000000  0.5475010000000  0.4270720000000 1.0
C      1  0.4548510000000  0.4571990000000  0.5031410000000 1.0
C      1  0.5381740000000  0.4382350000000  0.5496550000000 1.0
C      1  0.5237010000000  0.5348980000000  0.5152600000000 1.0
C      1  0.4712500000000  0.4378610000000  0.5178750000000 1.0
C      1  0.5478030000000  0.4267920000000  0.4968640000000 1.0
END
