TITL C-950523-3027-635 -2.30458969760586e-05 125000 -173.643091873573 0 0 30 (C1) n - 1
REM
REM in /home/bkarasulu/work/CARBON/AIRSS/Generating-Clusters/EDIP-Nigel-Params/with-SteepDescent/Only-C1/SD-CG/HFTN-CG
REM
REM
REM
REM
REM
REM ./C.cell (11c1c37f851c82e70ff6c80c92926a4b)
REM
REM compiler GCC version 9.2.1 20190827 (Red Hat 9.2.1-1)
REM options -cpp -mtune=generic -march=x86-64 -g -O0 -fpre-include=/usr/include/finclude/math-vector-fortran.h
REM seed -249504759 1509661497 104596335 -1215417754 -558944935 -2128996533 -1453050295 -1728251302 1220396833 688650389 207859055 -1725624169 142749353 861814106 -1810215083 -979542197 298044454 -93358388 -1837181603 791753148 -167612967 -832059182 358924218 -777975183 -1074405183 -434819854 1431740474 -148158851 -1963611619 1427100036 -449959717 -182453263 -480444621
REM
CELL 1.54180   50.00000   50.00000   50.00000   90.00000   90.00000   90.00000
LATT -1
SFAC C  
C      1  0.5331190000000  0.4887550000000  0.4474810000000 1.0
C      1  0.4869070000000  0.5488430000000  0.5613850000000 1.0
C      1  0.4831000000000  0.5008380000000  0.5325420000000 1.0
C      1  0.5270130000000  0.5623030000000  0.4937200000000 1.0
C      1  0.5244720000000  0.4838120000000  0.4732700000000 1.0
C      1  0.4976630000000  0.4943000000000  0.4820430000000 1.0
C      1  0.4628010000000  0.5208090000000  0.5308270000000 1.0
C      1  0.5104380000000  0.5369910000000  0.5656690000000 1.0
C      1  0.4984810000000  0.4842660000000  0.5127730000000 1.0
C      1  0.4626490000000  0.4841690000000  0.5431040000000 1.0
C      1  0.5263720000000  0.5184200000000  0.5549490000000 1.0
C      1  0.5392960000000  0.5088870000000  0.5322130000000 1.0
C      1  0.4658300000000  0.5437030000000  0.5456760000000 1.0
C      1  0.4978320000000  0.5244530000000  0.4792250000000 1.0
C      1  0.4692930000000  0.4369460000000  0.4758970000000 1.0
C      1  0.4987100000000  0.5340370000000  0.4531780000000 1.0
C      1  0.4877740000000  0.4565250000000  0.5186440000000 1.0
C      1  0.5425880000000  0.4795570000000  0.4940260000000 1.0
C      1  0.4503480000000  0.4763200000000  0.4746960000000 1.0
C      1  0.4677340000000  0.4574190000000  0.5381030000000 1.0
C      1  0.4850750000000  0.4370480000000  0.4989540000000 1.0
C      1  0.5500520000000  0.5477100000000  0.4984660000000 1.0
C      1  0.5271390000000  0.5063060000000  0.4282110000000 1.0
C      1  0.5107690000000  0.5274430000000  0.4301680000000 1.0
C      1  0.5121220000000  0.5395980000000  0.4987350000000 1.0
C      1  0.4436970000000  0.4496240000000  0.4802250000000 1.0
C      1  0.4761420000000  0.4824480000000  0.4644910000000 1.0
C      1  0.4808010000000  0.4554180000000  0.4571410000000 1.0
C      1  0.5284190000000  0.4857750000000  0.5175330000000 1.0
C      1  0.5533650000000  0.5272770000000  0.5166590000000 1.0
END
