TITL C-950525-1983-136 -2.09367725594003e-06 125000 -610.910017066054 0 0 98 (C1) n - 1
REM
REM in /home/bkarasulu/work/CARBON/AIRSS/Generating-Clusters/EDIP-Nigel-Params/with-SteepDescent/Only-C1/SD-CG/HFTN-CG
REM
REM
REM
REM
REM
REM ./C.cell (11c1c37f851c82e70ff6c80c92926a4b)
REM
REM compiler GCC version 9.2.1 20190827 (Red Hat 9.2.1-1)
REM options -cpp -mtune=generic -march=x86-64 -g -O0 -fpre-include=/usr/include/finclude/math-vector-fortran.h
REM seed 35188961 1572078056 333347869 -1788940203 -318606242 787454302 697731194 829900039 1149293422 1943776208 -127426778 254643346 -1701479863 766708785 -474691006 1122383403 1271360792 -1874194907 -262252379 816606713 -993089306 -1751342748 -1085646666 -618723440 -565326786 -500355682 122955670 961918122 1308306265 -248089614 425785668 -1053608597 196163426
REM
CELL 1.54180   50.00000   50.00000   50.00000   90.00000   90.00000   90.00000
LATT -1
SFAC C  
C      1  0.5670270000000  0.4519590000000  0.4596240000000 1.0
C      1  0.5122680000000  0.4660540000000  0.5812780000000 1.0
C      1  0.4981070000000  0.4899020000000  0.5795630000000 1.0
C      1  0.5587900000000  0.5001510000000  0.4332280000000 1.0
C      1  0.4289560000000  0.5431910000000  0.5759260000000 1.0
C      1  0.5738030000000  0.5354670000000  0.4872590000000 1.0
C      1  0.5266240000000  0.4191460000000  0.5122390000000 1.0
C      1  0.4618350000000  0.4595380000000  0.4399400000000 1.0
C      1  0.5289170000000  0.4589810000000  0.4277670000000 1.0
C      1  0.4979650000000  0.4888560000000  0.4556130000000 1.0
C      1  0.4040560000000  0.4858770000000  0.5001110000000 1.0
C      1  0.4608220000000  0.4416730000000  0.4824290000000 1.0
C      1  0.5893130000000  0.4476560000000  0.5031700000000 1.0
C      1  0.5303110000000  0.4269970000000  0.4629780000000 1.0
C      1  0.4761350000000  0.5911030000000  0.4979170000000 1.0
C      1  0.5161350000000  0.4446810000000  0.5374190000000 1.0
C      1  0.5158260000000  0.5130550000000  0.5774660000000 1.0
C      1  0.4812240000000  0.4108600000000  0.5290700000000 1.0
C      1  0.5281120000000  0.5166450000000  0.4826460000000 1.0
C      1  0.4855570000000  0.5046880000000  0.5056490000000 1.0
C      1  0.5107800000000  0.5860260000000  0.4626670000000 1.0
C      1  0.4934850000000  0.4600900000000  0.4422140000000 1.0
C      1  0.4736560000000  0.4704590000000  0.4808290000000 1.0
C      1  0.5800860000000  0.4921720000000  0.4503590000000 1.0
C      1  0.4434890000000  0.5309180000000  0.4562840000000 1.0
C      1  0.4480300000000  0.5308470000000  0.5342800000000 1.0
C      1  0.5694410000000  0.4389770000000  0.4849960000000 1.0
C      1  0.4171370000000  0.5160880000000  0.4641350000000 1.0
C      1  0.5436240000000  0.5503650000000  0.4500620000000 1.0
C      1  0.5168710000000  0.5416130000000  0.5250000000000 1.0
C      1  0.5905990000000  0.4911480000000  0.4755570000000 1.0
C      1  0.4562830000000  0.5386280000000  0.4862440000000 1.0
C      1  0.4337900000000  0.4864550000000  0.5433520000000 1.0
C      1  0.5031490000000  0.5904240000000  0.5107030000000 1.0
C      1  0.5233320000000  0.5134330000000  0.5308470000000 1.0
C      1  0.5881300000000  0.4953860000000  0.5035060000000 1.0
C      1  0.4489360000000  0.4381920000000  0.4551680000000 1.0
C      1  0.5013170000000  0.5400490000000  0.5718060000000 1.0
C      1  0.5207690000000  0.4988040000000  0.4045690000000 1.0
C      1  0.5051750000000  0.5818940000000  0.5401890000000 1.0
C      1  0.5125610000000  0.4686500000000  0.5181030000000 1.0
C      1  0.5403830000000  0.4770390000000  0.5078320000000 1.0
C      1  0.5410140000000  0.5069930000000  0.5077480000000 1.0
C      1  0.4959070000000  0.5432010000000  0.4532300000000 1.0
C      1  0.4809430000000  0.4940740000000  0.5553900000000 1.0
C      1  0.4589640000000  0.5107270000000  0.4405130000000 1.0
C      1  0.5590660000000  0.5563420000000  0.4758260000000 1.0
C      1  0.5660630000000  0.5397040000000  0.5334980000000 1.0
C      1  0.5430550000000  0.4265890000000  0.4893050000000 1.0
C      1  0.4608420000000  0.4912730000000  0.5006840000000 1.0
C      1  0.4426810000000  0.5170030000000  0.5048830000000 1.0
C      1  0.4654040000000  0.5547560000000  0.5305860000000 1.0
C      1  0.4986350000000  0.5115780000000  0.4129560000000 1.0
C      1  0.4985560000000  0.4111130000000  0.5059910000000 1.0
C      1  0.5504630000000  0.4775460000000  0.5559050000000 1.0
C      1  0.4845370000000  0.4223200000000  0.4818200000000 1.0
C      1  0.4670240000000  0.4517510000000  0.5371170000000 1.0
C      1  0.5456860000000  0.4414670000000  0.4432960000000 1.0
C      1  0.5301810000000  0.4567160000000  0.5621580000000 1.0
C      1  0.4702210000000  0.5593460000000  0.4579860000000 1.0
C      1  0.5373840000000  0.5080150000000  0.5571380000000 1.0
C      1  0.4469130000000  0.5201670000000  0.5800890000000 1.0
C      1  0.5334090000000  0.5531130000000  0.5691870000000 1.0
C      1  0.4839670000000  0.5321530000000  0.4973100000000 1.0
C      1  0.5337570000000  0.5755460000000  0.5483770000000 1.0
C      1  0.5172370000000  0.5635190000000  0.4439980000000 1.0
C      1  0.4803780000000  0.5863060000000  0.4680850000000 1.0
C      1  0.4142380000000  0.5135640000000  0.4941220000000 1.0
C      1  0.4586490000000  0.4743290000000  0.5523500000000 1.0
C      1  0.4996520000000  0.4947400000000  0.5289570000000 1.0
C      1  0.5455210000000  0.5717550000000  0.4967830000000 1.0
C      1  0.5547660000000  0.5321630000000  0.5604440000000 1.0
C      1  0.4076050000000  0.4695620000000  0.4748790000000 1.0
C      1  0.4202350000000  0.4877290000000  0.4545710000000 1.0
C      1  0.4888630000000  0.4346440000000  0.5448230000000 1.0
C      1  0.5171280000000  0.5726860000000  0.4894710000000 1.0
C      1  0.5693190000000  0.5187410000000  0.5102730000000 1.0
C      1  0.4689290000000  0.5216730000000  0.5595790000000 1.0
C      1  0.4487680000000  0.4847600000000  0.4475530000000 1.0
C      1  0.5585750000000  0.4666660000000  0.5292860000000 1.0
C      1  0.4215430000000  0.5370930000000  0.5480830000000 1.0
C      1  0.4217690000000  0.4437170000000  0.4811970000000 1.0
C      1  0.5033560000000  0.4610840000000  0.4890400000000 1.0
C      1  0.5431700000000  0.5226340000000  0.4414460000000 1.0
C      1  0.4186150000000  0.4715640000000  0.5221750000000 1.0
C      1  0.4221810000000  0.5071610000000  0.5622350000000 1.0
C      1  0.5020970000000  0.4341740000000  0.4607610000000 1.0
C      1  0.5405940000000  0.4829480000000  0.4165080000000 1.0
C      1  0.5429350000000  0.5582110000000  0.5247400000000 1.0
C      1  0.4945070000000  0.5534290000000  0.5416440000000 1.0
C      1  0.4584470000000  0.5740400000000  0.5115010000000 1.0
C      1  0.4882110000000  0.5136450000000  0.4395730000000 1.0
C      1  0.4501000000000  0.4331200000000  0.5233510000000 1.0
C      1  0.5861240000000  0.4703780000000  0.5196070000000 1.0
C      1  0.5371930000000  0.4683800000000  0.4768200000000 1.0
C      1  0.4275610000000  0.4456470000000  0.5107620000000 1.0
C      1  0.5073320000000  0.5400030000000  0.4817550000000 1.0
C      1  0.5269250000000  0.4943020000000  0.4626380000000 1.0
END
