TITL C-950531-5884-55 -8.00969822127396e-06 125000 -541.836100070112 0 0 87 (C1) n - 1
REM
REM in /home/bkarasulu/work/CARBON/AIRSS/Generating-Clusters/EDIP-Nigel-Params/with-SteepDescent/Only-C1/SD-CG/HFTN-CG
REM
REM
REM
REM
REM
REM ./C.cell (11c1c37f851c82e70ff6c80c92926a4b)
REM
REM compiler GCC version 9.2.1 20190827 (Red Hat 9.2.1-1)
REM options -cpp -mtune=generic -march=x86-64 -g -O0 -fpre-include=/usr/include/finclude/math-vector-fortran.h
REM seed -1854491754 393531287 -1084526678 -1622477461 -2106429505 1775768728 487865432 -1099384906 743595800 -360581452 1088827369 1236146108 1469065095 -818330524 -938750212 72479179 2107753622 -1865690540 123836936 1947989602 -701686945 518407058 -1904652752 1647920156 -896295779 824405921 -1196920260 -1916013489 545406108 1558080991 -624950825 -1393682670 1253134633
REM
CELL 1.54180   50.00000   50.00000   50.00000   90.00000   90.00000   90.00000
LATT -1
SFAC C  
C      1  0.4620480000000  0.5162510000000  0.4905550000000 1.0
C      1  0.5583280000000  0.5418260000000  0.4745920000000 1.0
C      1  0.4469910000000  0.5594770000000  0.5110310000000 1.0
C      1  0.4418970000000  0.5107770000000  0.4399870000000 1.0
C      1  0.5363820000000  0.4403780000000  0.4653990000000 1.0
C      1  0.5667710000000  0.4859090000000  0.5442350000000 1.0
C      1  0.4545540000000  0.4663730000000  0.4528290000000 1.0
C      1  0.5382570000000  0.5069210000000  0.5098080000000 1.0
C      1  0.5125620000000  0.5832040000000  0.5030010000000 1.0
C      1  0.4652750000000  0.5100250000000  0.5220880000000 1.0
C      1  0.4958200000000  0.5135130000000  0.5729770000000 1.0
C      1  0.5086180000000  0.5117420000000  0.4693080000000 1.0
C      1  0.4964800000000  0.4846930000000  0.5409080000000 1.0
C      1  0.4156650000000  0.4859080000000  0.5200660000000 1.0
C      1  0.5167840000000  0.4680930000000  0.4845260000000 1.0
C      1  0.5593860000000  0.4597080000000  0.4596230000000 1.0
C      1  0.5017970000000  0.5374010000000  0.5078320000000 1.0
C      1  0.4944260000000  0.5708640000000  0.4799420000000 1.0
C      1  0.4976660000000  0.4473680000000  0.4347910000000 1.0
C      1  0.5197440000000  0.4693140000000  0.5749010000000 1.0
C      1  0.5326080000000  0.4748830000000  0.4181000000000 1.0
C      1  0.5481050000000  0.5069990000000  0.5574570000000 1.0
C      1  0.5588450000000  0.4464710000000  0.5094780000000 1.0
C      1  0.4322310000000  0.5062660000000  0.4676600000000 1.0
C      1  0.5153850000000  0.4659880000000  0.5296800000000 1.0
C      1  0.4761010000000  0.4922230000000  0.5790800000000 1.0
C      1  0.5574050000000  0.4577710000000  0.5394830000000 1.0
C      1  0.5523840000000  0.5362620000000  0.5524140000000 1.0
C      1  0.5416070000000  0.5658580000000  0.4670790000000 1.0
C      1  0.5097200000000  0.4249370000000  0.5059310000000 1.0
C      1  0.5342680000000  0.4482420000000  0.5574930000000 1.0
C      1  0.4132220000000  0.4723940000000  0.5449960000000 1.0
C      1  0.4830080000000  0.5413080000000  0.5695810000000 1.0
C      1  0.4800850000000  0.5416820000000  0.4883870000000 1.0
C      1  0.4380770000000  0.4689170000000  0.5578640000000 1.0
C      1  0.5060940000000  0.4354890000000  0.5336330000000 1.0
C      1  0.4522610000000  0.5427970000000  0.5591070000000 1.0
C      1  0.4446390000000  0.5524690000000  0.4638890000000 1.0
C      1  0.5878790000000  0.4866770000000  0.4939870000000 1.0
C      1  0.5636030000000  0.5218590000000  0.5192140000000 1.0
C      1  0.4897510000000  0.5593370000000  0.5439350000000 1.0
C      1  0.4572580000000  0.4870540000000  0.4317010000000 1.0
C      1  0.5221780000000  0.5239100000000  0.4927810000000 1.0
C      1  0.4348150000000  0.4765270000000  0.4734430000000 1.0
C      1  0.5710690000000  0.5451920000000  0.5007180000000 1.0
C      1  0.5363050000000  0.4305890000000  0.4942680000000 1.0
C      1  0.4820570000000  0.4984770000000  0.4776450000000 1.0
C      1  0.4904120000000  0.4675400000000  0.5742140000000 1.0
C      1  0.5407000000000  0.5823760000000  0.4923830000000 1.0
C      1  0.4830830000000  0.4330150000000  0.4928760000000 1.0
C      1  0.5347950000000  0.5272450000000  0.4307410000000 1.0
C      1  0.4565250000000  0.5720330000000  0.4846270000000 1.0
C      1  0.5337330000000  0.4761810000000  0.5078510000000 1.0
C      1  0.4214790000000  0.5155180000000  0.5270750000000 1.0
C      1  0.4248610000000  0.5341030000000  0.4778860000000 1.0
C      1  0.4921740000000  0.5220370000000  0.5317570000000 1.0
C      1  0.5239900000000  0.4988210000000  0.5721610000000 1.0
C      1  0.5584140000000  0.5687890000000  0.5131890000000 1.0
C      1  0.4753900000000  0.4340900000000  0.5389670000000 1.0
C      1  0.5842710000000  0.4992430000000  0.5217620000000 1.0
C      1  0.4485900000000  0.4944040000000  0.5674890000000 1.0
C      1  0.4576150000000  0.4603260000000  0.5366680000000 1.0
C      1  0.4588750000000  0.5644380000000  0.5376980000000 1.0
C      1  0.4740920000000  0.4441920000000  0.4509690000000 1.0
C      1  0.4742130000000  0.4810190000000  0.5221200000000 1.0
C      1  0.4271900000000  0.5377350000000  0.5069120000000 1.0
C      1  0.4756350000000  0.4217570000000  0.4675670000000 1.0
C      1  0.4857820000000  0.4719910000000  0.4925540000000 1.0
C      1  0.4857640000000  0.5260570000000  0.4293220000000 1.0
C      1  0.4842990000000  0.4957660000000  0.4232010000000 1.0
C      1  0.4372910000000  0.4418020000000  0.5092820000000 1.0
C      1  0.5228180000000  0.4874170000000  0.4632450000000 1.0
C      1  0.4328070000000  0.4694500000000  0.5015140000000 1.0
C      1  0.5146230000000  0.5722680000000  0.5315260000000 1.0
C      1  0.5105430000000  0.5328120000000  0.4455010000000 1.0
C      1  0.4453340000000  0.5161990000000  0.5462380000000 1.0
C      1  0.5728070000000  0.5222350000000  0.4584350000000 1.0
C      1  0.5132570000000  0.5615600000000  0.4571160000000 1.0
C      1  0.5415800000000  0.5592730000000  0.5356900000000 1.0
C      1  0.5702620000000  0.4642390000000  0.4876440000000 1.0
C      1  0.5449780000000  0.4829110000000  0.4434500000000 1.0
C      1  0.5051900000000  0.4736970000000  0.4250150000000 1.0
C      1  0.5898030000000  0.5049660000000  0.4726440000000 1.0
C      1  0.4589060000000  0.5348480000000  0.4416480000000 1.0
C      1  0.5563630000000  0.5105130000000  0.4376330000000 1.0
C      1  0.4619020000000  0.4252390000000  0.5124980000000 1.0
C      1  0.5192430000000  0.4315790000000  0.4435300000000 1.0
END
