TITL C-951347-9520-638 3.81911701024873e-05 125000 -342.429932417902 0 0 58 (C1) n - 1
REM
REM in /home/bkarasulu/work/CARBON/AIRSS/Generating-Clusters/EDIP-Nigel-Params/with-SteepDescent/Only-C1/SD-CG/HFTN-CG
REM
REM
REM
REM
REM
REM ./C.cell (11c1c37f851c82e70ff6c80c92926a4b)
REM
REM compiler GCC version 9.2.1 20190827 (Red Hat 9.2.1-1)
REM options -cpp -mtune=generic -march=x86-64 -g -O0 -fpre-include=/usr/include/finclude/math-vector-fortran.h
REM seed -1106314083 -840368241 868597712 1125548107 1138324640 105954234 1003558429 51686900 -1093129522 -1336253515 1398092039 1505978199 -86000906 1803133469 1298833469 1625347585 -1657850778 1481903317 1901509691 908344132 -1457475459 -745935856 -1388055295 -27633934 879401207 876653021 -830959305 1973684606 -435802482 693333515 -568429326 -1692106674 -132965033
REM
CELL 1.54180   50.00000   50.00000   50.00000   90.00000   90.00000   90.00000
LATT -1
SFAC C  
C      1  0.4755410000000  0.5519410000000  0.4959780000000 1.0
C      1  0.5187070000000  0.5776680000000  0.5110220000000 1.0
C      1  0.5127850000000  0.5687530000000  0.4636340000000 1.0
C      1  0.5376870000000  0.5098860000000  0.5571780000000 1.0
C      1  0.5001400000000  0.4719750000000  0.4936750000000 1.0
C      1  0.4657150000000  0.4381340000000  0.5152610000000 1.0
C      1  0.4402590000000  0.4271020000000  0.5180250000000 1.0
C      1  0.5422750000000  0.5302790000000  0.4707390000000 1.0
C      1  0.5450710000000  0.5729630000000  0.5003640000000 1.0
C      1  0.4907080000000  0.4940850000000  0.4452340000000 1.0
C      1  0.4379690000000  0.4938180000000  0.5241770000000 1.0
C      1  0.4975090000000  0.4977150000000  0.4756540000000 1.0
C      1  0.4694530000000  0.4624590000000  0.4981690000000 1.0
C      1  0.5087350000000  0.4216270000000  0.5234460000000 1.0
C      1  0.5087940000000  0.5347020000000  0.5048530000000 1.0
C      1  0.4332030000000  0.5222960000000  0.4751420000000 1.0
C      1  0.4681670000000  0.5402400000000  0.5441310000000 1.0
C      1  0.5428730000000  0.4499510000000  0.5074660000000 1.0
C      1  0.4877020000000  0.4226030000000  0.5045940000000 1.0
C      1  0.4519030000000  0.5006600000000  0.4694650000000 1.0
C      1  0.5592770000000  0.4963960000000  0.5159940000000 1.0
C      1  0.5271920000000  0.4613870000000  0.5515780000000 1.0
C      1  0.4219950000000  0.4728760000000  0.5283430000000 1.0
C      1  0.5031100000000  0.4447250000000  0.4494530000000 1.0
C      1  0.5383790000000  0.4805400000000  0.4611670000000 1.0
C      1  0.5532110000000  0.5178120000000  0.5354050000000 1.0
C      1  0.5387210000000  0.5607170000000  0.4751530000000 1.0
C      1  0.5133650000000  0.5497570000000  0.5559050000000 1.0
C      1  0.5440140000000  0.5239050000000  0.4418080000000 1.0
C      1  0.4839740000000  0.4337890000000  0.4694160000000 1.0
C      1  0.4645110000000  0.5001330000000  0.5190240000000 1.0
C      1  0.5157670000000  0.5231130000000  0.5691940000000 1.0
C      1  0.5204910000000  0.4480130000000  0.4900540000000 1.0
C      1  0.5374410000000  0.4727060000000  0.5246720000000 1.0
C      1  0.4933580000000  0.5025910000000  0.5676000000000 1.0
C      1  0.4636020000000  0.5037460000000  0.4426680000000 1.0
C      1  0.4723570000000  0.5086300000000  0.4902820000000 1.0
C      1  0.4919600000000  0.4668150000000  0.4367990000000 1.0
C      1  0.4488820000000  0.5424790000000  0.4863910000000 1.0
C      1  0.4755100000000  0.5597590000000  0.5256560000000 1.0
C      1  0.4232370000000  0.4463450000000  0.5256990000000 1.0
C      1  0.5355480000000  0.5395610000000  0.5258310000000 1.0
C      1  0.4796160000000  0.5138050000000  0.5412280000000 1.0
C      1  0.5633870000000  0.5144170000000  0.4862990000000 1.0
C      1  0.5368600000000  0.4963160000000  0.4363560000000 1.0
C      1  0.4587100000000  0.4476520000000  0.4636230000000 1.0
C      1  0.5186500000000  0.4353460000000  0.5448740000000 1.0
C      1  0.5020260000000  0.5923260000000  0.4928710000000 1.0
C      1  0.5024100000000  0.5670740000000  0.5342590000000 1.0
C      1  0.5607530000000  0.4870280000000  0.4784030000000 1.0
C      1  0.4865280000000  0.5736410000000  0.4772790000000 1.0
C      1  0.5071870000000  0.5128110000000  0.5271640000000 1.0
C      1  0.5110920000000  0.5083920000000  0.4292490000000 1.0
C      1  0.5163760000000  0.5202260000000  0.4809710000000 1.0
C      1  0.4469380000000  0.4710350000000  0.4770150000000 1.0
C      1  0.5078390000000  0.4779990000000  0.5644250000000 1.0
C      1  0.5118590000000  0.4848130000000  0.5172890000000 1.0
C      1  0.5286680000000  0.4524680000000  0.4623970000000 1.0
END
