TITL C-950532-2784-726 -8.57417707399733e-07 125000 -1055.7232178049 0 0 167 (C1) n - 1
REM
REM in /home/bkarasulu/work/CARBON/AIRSS/Generating-Clusters/EDIP-Nigel-Params/with-SteepDescent/Only-C1/SD-CG/HFTN-CG
REM
REM
REM
REM
REM
REM ./C.cell (11c1c37f851c82e70ff6c80c92926a4b)
REM
REM compiler GCC version 9.2.1 20190827 (Red Hat 9.2.1-1)
REM options -cpp -mtune=generic -march=x86-64 -g -O0 -fpre-include=/usr/include/finclude/math-vector-fortran.h
REM seed 107550172 1428945726 -903128607 871151728 1015675277 -1872215870 2146685431 -459874081 -1617252313 791477962 61427063 1413038002 490680181 2042959657 -975479367 1793113021 502506894 1153282855 1225472660 1270503894 -2059075428 -775516481 -645903246 246945705 -304687370 -1230350023 -1745988840 -2085153458 386121820 1073074789 -1378712784 -652242081 -676026067
REM
CELL 1.54180   50.00000   50.00000   50.00000   90.00000   90.00000   90.00000
LATT -1
SFAC C  
C      1  0.5696000000000  0.4270180000000  0.4574010000000 1.0
C      1  0.5643510000000  0.4844080000000  0.4197970000000 1.0
C      1  0.4728740000000  0.4871600000000  0.3892840000000 1.0
C      1  0.4234660000000  0.4484210000000  0.5222460000000 1.0
C      1  0.5213150000000  0.5441380000000  0.4930050000000 1.0
C      1  0.4843770000000  0.5718890000000  0.4363700000000 1.0
C      1  0.4497180000000  0.4392430000000  0.5581870000000 1.0
C      1  0.5392370000000  0.4460320000000  0.4957870000000 1.0
C      1  0.3983220000000  0.5259370000000  0.4921340000000 1.0
C      1  0.5182790000000  0.4201820000000  0.4469580000000 1.0
C      1  0.4673730000000  0.4751320000000  0.5253630000000 1.0
C      1  0.5111700000000  0.6276870000000  0.5248980000000 1.0
C      1  0.5402650000000  0.5668830000000  0.4242370000000 1.0
C      1  0.5321100000000  0.5205960000000  0.4099060000000 1.0
C      1  0.4090100000000  0.5473110000000  0.4732270000000 1.0
C      1  0.4671920000000  0.6035570000000  0.5199920000000 1.0
C      1  0.5319190000000  0.5211490000000  0.4489880000000 1.0
C      1  0.5003560000000  0.3942580000000  0.4882440000000 1.0
C      1  0.5570040000000  0.5626000000000  0.5378940000000 1.0
C      1  0.4729130000000  0.3938370000000  0.4764220000000 1.0
C      1  0.5122150000000  0.4911240000000  0.4989200000000 1.0
C      1  0.5512420000000  0.5423510000000  0.4163180000000 1.0
C      1  0.5062240000000  0.5668860000000  0.5019990000000 1.0
C      1  0.5824650000000  0.5045590000000  0.4303360000000 1.0
C      1  0.4594130000000  0.5195740000000  0.6008540000000 1.0
C      1  0.4766960000000  0.4651300000000  0.5911670000000 1.0
C      1  0.5896590000000  0.5377220000000  0.5038950000000 1.0
C      1  0.5573510000000  0.5086690000000  0.5891890000000 1.0
C      1  0.5089060000000  0.5158060000000  0.6056830000000 1.0
C      1  0.5299910000000  0.5277790000000  0.5425260000000 1.0
C      1  0.4872070000000  0.5536270000000  0.5801390000000 1.0
C      1  0.5502300000000  0.5074560000000  0.4735790000000 1.0
C      1  0.4455510000000  0.4248590000000  0.4458920000000 1.0
C      1  0.5690400000000  0.4232880000000  0.5466640000000 1.0
C      1  0.5695670000000  0.4554430000000  0.4198790000000 1.0
C      1  0.4875800000000  0.5494400000000  0.4565500000000 1.0
C      1  0.4630220000000  0.4396540000000  0.5844560000000 1.0
C      1  0.5755730000000  0.5633190000000  0.5140840000000 1.0
C      1  0.3960330000000  0.5017760000000  0.4772050000000 1.0
C      1  0.4705700000000  0.5221430000000  0.4498420000000 1.0
C      1  0.4654480000000  0.4706840000000  0.4608060000000 1.0
C      1  0.4995580000000  0.4949120000000  0.3883530000000 1.0
C      1  0.4121340000000  0.4594720000000  0.4615690000000 1.0
C      1  0.5152700000000  0.5653950000000  0.5787960000000 1.0
C      1  0.5900950000000  0.4696470000000  0.4631430000000 1.0
C      1  0.5846860000000  0.4383520000000  0.5016130000000 1.0
C      1  0.5603010000000  0.5702970000000  0.4666610000000 1.0
C      1  0.4868870000000  0.5027110000000  0.4913240000000 1.0
C      1  0.5201320000000  0.4779570000000  0.4015410000000 1.0
C      1  0.4517320000000  0.5496070000000  0.4938510000000 1.0
C      1  0.4958650000000  0.5033520000000  0.5806960000000 1.0
C      1  0.5172100000000  0.5884340000000  0.5610250000000 1.0
C      1  0.5419130000000  0.5353950000000  0.5139350000000 1.0
C      1  0.4588470000000  0.5869860000000  0.4730970000000 1.0
C      1  0.5353960000000  0.5444270000000  0.5736600000000 1.0
C      1  0.6031210000000  0.4868890000000  0.5066560000000 1.0
C      1  0.5296060000000  0.3989850000000  0.4649580000000 1.0
C      1  0.5359620000000  0.5271140000000  0.5984080000000 1.0
C      1  0.4481780000000  0.5502340000000  0.5233480000000 1.0
C      1  0.5369620000000  0.5851980000000  0.5376540000000 1.0
C      1  0.5348790000000  0.5699140000000  0.4516610000000 1.0
C      1  0.5019300000000  0.5328070000000  0.5383620000000 1.0
C      1  0.4851270000000  0.4578460000000  0.4295910000000 1.0
C      1  0.3983490000000  0.4742160000000  0.4840510000000 1.0
C      1  0.5184620000000  0.4803920000000  0.5256650000000 1.0
C      1  0.4332630000000  0.5001050000000  0.4895220000000 1.0
C      1  0.5264820000000  0.4653330000000  0.5833010000000 1.0
C      1  0.5999160000000  0.4944790000000  0.4512730000000 1.0
C      1  0.5964070000000  0.4636780000000  0.4908360000000 1.0
C      1  0.5052200000000  0.5226640000000  0.3959400000000 1.0
C      1  0.5194470000000  0.6151330000000  0.5014300000000 1.0
C      1  0.5710440000000  0.4693460000000  0.5676140000000 1.0
C      1  0.5256400000000  0.4166280000000  0.5641580000000 1.0
C      1  0.4225070000000  0.4173050000000  0.4920060000000 1.0
C      1  0.4874840000000  0.5271240000000  0.5629790000000 1.0
C      1  0.4590020000000  0.4074970000000  0.4980720000000 1.0
C      1  0.5991600000000  0.5388100000000  0.4759990000000 1.0
C      1  0.4865910000000  0.4099730000000  0.5376920000000 1.0
C      1  0.4280440000000  0.4100300000000  0.5220170000000 1.0
C      1  0.5126210000000  0.4700930000000  0.4306150000000 1.0
C      1  0.4198500000000  0.5311820000000  0.4490960000000 1.0
C      1  0.5302070000000  0.5880170000000  0.5078940000000 1.0
C      1  0.4073740000000  0.4712870000000  0.5113110000000 1.0
C      1  0.5480560000000  0.4579350000000  0.4681200000000 1.0
C      1  0.4814000000000  0.4184820000000  0.5854640000000 1.0
C      1  0.4628440000000  0.5005430000000  0.5089500000000 1.0
C      1  0.5451690000000  0.4034700000000  0.4901950000000 1.0
C      1  0.4122600000000  0.5433570000000  0.5366190000000 1.0
C      1  0.5990190000000  0.5127100000000  0.5197200000000 1.0
C      1  0.5655180000000  0.4407100000000  0.5701580000000 1.0
C      1  0.5112280000000  0.4295930000000  0.4997940000000 1.0
C      1  0.5884500000000  0.4297880000000  0.5277050000000 1.0
C      1  0.5894950000000  0.5088860000000  0.5472630000000 1.0
C      1  0.5790900000000  0.5489850000000  0.4575390000000 1.0
C      1  0.5710450000000  0.4185410000000  0.4843480000000 1.0
C      1  0.4284910000000  0.5669400000000  0.4869190000000 1.0
C      1  0.5627640000000  0.4871990000000  0.5203930000000 1.0
C      1  0.5421970000000  0.4644340000000  0.5182490000000 1.0
C      1  0.4363550000000  0.5766490000000  0.5607400000000 1.0
C      1  0.5578900000000  0.5783650000000  0.4950590000000 1.0
C      1  0.4198070000000  0.4846450000000  0.5533360000000 1.0
C      1  0.4872390000000  0.6185100000000  0.5366620000000 1.0
C      1  0.5883730000000  0.4802400000000  0.5481130000000 1.0
C      1  0.4673480000000  0.4353870000000  0.4967880000000 1.0
C      1  0.4699000000000  0.5712840000000  0.5324000000000 1.0
C      1  0.5036420000000  0.3903620000000  0.5182330000000 1.0
C      1  0.4857980000000  0.5647320000000  0.4094890000000 1.0
C      1  0.5719540000000  0.5322480000000  0.4342260000000 1.0
C      1  0.4616390000000  0.5169220000000  0.5561350000000 1.0
C      1  0.5121290000000  0.4933830000000  0.4510370000000 1.0
C      1  0.5468330000000  0.4854970000000  0.5729480000000 1.0
C      1  0.5319310000000  0.4483680000000  0.4422890000000 1.0
C      1  0.5594770000000  0.5135240000000  0.5018310000000 1.0
C      1  0.4981250000000  0.6141020000000  0.4835710000000 1.0
C      1  0.4961310000000  0.5592410000000  0.5277050000000 1.0
C      1  0.4415900000000  0.6141680000000  0.5284670000000 1.0
C      1  0.5335610000000  0.3963340000000  0.5176950000000 1.0
C      1  0.4976990000000  0.4080570000000  0.5653840000000 1.0
C      1  0.4718020000000  0.6077220000000  0.4900440000000 1.0
C      1  0.4265530000000  0.4557780000000  0.5511430000000 1.0
C      1  0.6105330000000  0.5149590000000  0.4671070000000 1.0
C      1  0.5379470000000  0.4375100000000  0.5813860000000 1.0
C      1  0.4178870000000  0.5782780000000  0.5116100000000 1.0
C      1  0.4765560000000  0.5627700000000  0.4820520000000 1.0
C      1  0.5437070000000  0.4091590000000  0.5423620000000 1.0
C      1  0.4644140000000  0.4903770000000  0.6002750000000 1.0
C      1  0.4596270000000  0.5236210000000  0.4204170000000 1.0
C      1  0.4438200000000  0.4719670000000  0.4232870000000 1.0
C      1  0.5049560000000  0.4484100000000  0.4780680000000 1.0
C      1  0.4355710000000  0.5070990000000  0.4580140000000 1.0
C      1  0.4536140000000  0.4152400000000  0.5408710000000 1.0
C      1  0.4218380000000  0.5022360000000  0.5750150000000 1.0
C      1  0.4598090000000  0.5230840000000  0.5283280000000 1.0
C      1  0.5453100000000  0.4377870000000  0.4168850000000 1.0
C      1  0.5117970000000  0.4176640000000  0.4178190000000 1.0
C      1  0.4082380000000  0.5208990000000  0.5191810000000 1.0
C      1  0.4987930000000  0.4361900000000  0.5273940000000 1.0
C      1  0.4690270000000  0.5774400000000  0.5636540000000 1.0
C      1  0.4066090000000  0.4937010000000  0.5293820000000 1.0
C      1  0.5638200000000  0.5519810000000  0.5653200000000 1.0
C      1  0.5440400000000  0.4945360000000  0.4026530000000 1.0
C      1  0.5305510000000  0.4855620000000  0.4750520000000 1.0
C      1  0.4844320000000  0.5365200000000  0.6064460000000 1.0
C      1  0.4273910000000  0.5911190000000  0.5353090000000 1.0
C      1  0.4901470000000  0.6017570000000  0.5605200000000 1.0
C      1  0.4834540000000  0.4971890000000  0.4626090000000 1.0
C      1  0.4599290000000  0.5862860000000  0.4429920000000 1.0
C      1  0.4868570000000  0.4325580000000  0.4138280000000 1.0
C      1  0.4267710000000  0.4332480000000  0.4670830000000 1.0
C      1  0.5836920000000  0.4479940000000  0.4448390000000 1.0
C      1  0.4991620000000  0.4714160000000  0.5719670000000 1.0
C      1  0.4424710000000  0.4708810000000  0.4832570000000 1.0
C      1  0.4257320000000  0.5490700000000  0.5615390000000 1.0
C      1  0.4779860000000  0.4432530000000  0.4699270000000 1.0
C      1  0.4550020000000  0.4948860000000  0.4087780000000 1.0
C      1  0.4693250000000  0.4099000000000  0.4527430000000 1.0
C      1  0.4813520000000  0.5378310000000  0.4042300000000 1.0
C      1  0.4402610000000  0.5246650000000  0.5750760000000 1.0
C      1  0.4402890000000  0.5706320000000  0.4302390000000 1.0
C      1  0.4261530000000  0.4809780000000  0.4438310000000 1.0
C      1  0.5752330000000  0.5241890000000  0.5693200000000 1.0
C      1  0.4505730000000  0.4416850000000  0.4214360000000 1.0
C      1  0.4943670000000  0.4649900000000  0.5378320000000 1.0
C      1  0.4505920000000  0.4563970000000  0.5087620000000 1.0
C      1  0.4353350000000  0.5431040000000  0.4266510000000 1.0
C      1  0.5190830000000  0.5458350000000  0.4622800000000 1.0
C      1  0.5354470000000  0.4981010000000  0.5459430000000 1.0
END
