TITL C-950524-1808-237 -1.17914037686394e-06 125000 -623.976007125489 0 0 101 (C1) n - 1
REM
REM in /home/bkarasulu/work/CARBON/AIRSS/Generating-Clusters/EDIP-Nigel-Params/with-SteepDescent/Only-C1/SD-CG/HFTN-CG
REM
REM
REM
REM
REM
REM ./C.cell (11c1c37f851c82e70ff6c80c92926a4b)
REM
REM compiler GCC version 9.2.1 20190827 (Red Hat 9.2.1-1)
REM options -cpp -mtune=generic -march=x86-64 -g -O0 -fpre-include=/usr/include/finclude/math-vector-fortran.h
REM seed 984656563 807811161 2040150620 -1470133483 307182751 -1469616965 1841378385 630910902 -974414541 357461813 1953759030 1411095345 -1014656572 -1933519867 -12898683 373193536 -1776973166 347284199 -36707952 1717908170 -1836786795 32917805 1946879398 -1083709330 883545206 1600680785 -1353456259 673782744 2144444264 765762881 1927328289 1778522756 -1409915174
REM
CELL 1.54180   50.00000   50.00000   50.00000   90.00000   90.00000   90.00000
LATT -1
SFAC C  
C      1  0.5391780000000  0.5567400000000  0.4857050000000 1.0
C      1  0.4325770000000  0.5412960000000  0.5237160000000 1.0
C      1  0.5208530000000  0.5127540000000  0.5034380000000 1.0
C      1  0.4527880000000  0.5901550000000  0.5029740000000 1.0
C      1  0.4687850000000  0.5454610000000  0.5594930000000 1.0
C      1  0.4623200000000  0.4390600000000  0.4580070000000 1.0
C      1  0.5228460000000  0.4259040000000  0.5005950000000 1.0
C      1  0.5368850000000  0.4629450000000  0.4515400000000 1.0
C      1  0.4144100000000  0.4997510000000  0.5392630000000 1.0
C      1  0.5076500000000  0.5775250000000  0.4509210000000 1.0
C      1  0.5600830000000  0.4746840000000  0.4362060000000 1.0
C      1  0.4528330000000  0.5238510000000  0.4311190000000 1.0
C      1  0.4850020000000  0.5323590000000  0.5275050000000 1.0
C      1  0.4982360000000  0.4477340000000  0.4264340000000 1.0
C      1  0.4774780000000  0.4103730000000  0.5139360000000 1.0
C      1  0.5458530000000  0.4963280000000  0.4887340000000 1.0
C      1  0.4801040000000  0.4802570000000  0.5441460000000 1.0
C      1  0.5405650000000  0.5522200000000  0.4354320000000 1.0
C      1  0.4294220000000  0.4522780000000  0.5386970000000 1.0
C      1  0.4078900000000  0.5004490000000  0.5114740000000 1.0
C      1  0.5475540000000  0.5190600000000  0.5809010000000 1.0
C      1  0.5499280000000  0.4994670000000  0.4220300000000 1.0
C      1  0.5631280000000  0.4524000000000  0.4903140000000 1.0
C      1  0.5847250000000  0.4691480000000  0.5315170000000 1.0
C      1  0.4194300000000  0.4738410000000  0.5535400000000 1.0
C      1  0.4935650000000  0.5805890000000  0.5418550000000 1.0
C      1  0.5536210000000  0.5006600000000  0.5605810000000 1.0
C      1  0.5640130000000  0.4543050000000  0.5204810000000 1.0
C      1  0.5179400000000  0.4560900000000  0.5066720000000 1.0
C      1  0.4709110000000  0.5323010000000  0.4724250000000 1.0
C      1  0.5079860000000  0.4269370000000  0.4456580000000 1.0
C      1  0.4372960000000  0.4818290000000  0.4486140000000 1.0
C      1  0.4378220000000  0.5576230000000  0.4710910000000 1.0
C      1  0.4800420000000  0.5910220000000  0.4931030000000 1.0
C      1  0.5318930000000  0.4171720000000  0.5270890000000 1.0
C      1  0.4373950000000  0.5118080000000  0.4532190000000 1.0
C      1  0.4583830000000  0.4978010000000  0.5329580000000 1.0
C      1  0.5458830000000  0.4251750000000  0.4798850000000 1.0
C      1  0.5647110000000  0.5119790000000  0.5360550000000 1.0
C      1  0.4372810000000  0.4804580000000  0.5767830000000 1.0
C      1  0.5069030000000  0.4978150000000  0.5500870000000 1.0
C      1  0.5319220000000  0.4794020000000  0.5559770000000 1.0
C      1  0.5382920000000  0.5730950000000  0.4599550000000 1.0
C      1  0.5539100000000  0.5245790000000  0.4417180000000 1.0
C      1  0.5839050000000  0.4757030000000  0.4505610000000 1.0
C      1  0.4977720000000  0.5090200000000  0.4110770000000 1.0
C      1  0.4832140000000  0.4911110000000  0.4964230000000 1.0
C      1  0.5134980000000  0.5229330000000  0.5294560000000 1.0
C      1  0.4373770000000  0.4418040000000  0.5145290000000 1.0
C      1  0.5275920000000  0.4665620000000  0.5814240000000 1.0
C      1  0.5846170000000  0.4720720000000  0.4780030000000 1.0
C      1  0.4633700000000  0.5496040000000  0.4350520000000 1.0
C      1  0.4539260000000  0.5637380000000  0.5168590000000 1.0
C      1  0.4385900000000  0.5160240000000  0.5457030000000 1.0
C      1  0.4214340000000  0.5238640000000  0.5025050000000 1.0
C      1  0.4662560000000  0.5691450000000  0.5438480000000 1.0
C      1  0.4951400000000  0.4126970000000  0.5689030000000 1.0
C      1  0.5221140000000  0.5324500000000  0.4790580000000 1.0
C      1  0.4763050000000  0.4983520000000  0.4693500000000 1.0
C      1  0.5801120000000  0.5282360000000  0.4536800000000 1.0
C      1  0.5132020000000  0.5618430000000  0.5563280000000 1.0
C      1  0.4681170000000  0.4737980000000  0.5727140000000 1.0
C      1  0.4833140000000  0.5762710000000  0.4680930000000 1.0
C      1  0.5098460000000  0.5522720000000  0.4338850000000 1.0
C      1  0.4652820000000  0.4439150000000  0.5014250000000 1.0
C      1  0.4679650000000  0.5112510000000  0.5105940000000 1.0
C      1  0.4691390000000  0.4500450000000  0.4309550000000 1.0
C      1  0.5825760000000  0.5257020000000  0.4818960000000 1.0
C      1  0.5245150000000  0.5092640000000  0.5932340000000 1.0
C      1  0.5211360000000  0.4910250000000  0.4136710000000 1.0
C      1  0.5009180000000  0.5829400000000  0.5132860000000 1.0
C      1  0.5258510000000  0.5679930000000  0.5098700000000 1.0
C      1  0.5141240000000  0.4206170000000  0.5489090000000 1.0
C      1  0.5765890000000  0.4976720000000  0.4925590000000 1.0
C      1  0.4885920000000  0.4286220000000  0.4677600000000 1.0
C      1  0.5007140000000  0.5130450000000  0.5758510000000 1.0
C      1  0.4463310000000  0.5118150000000  0.5775900000000 1.0
C      1  0.4580510000000  0.5693220000000  0.4544220000000 1.0
C      1  0.4963410000000  0.4146540000000  0.4922900000000 1.0
C      1  0.5368040000000  0.4327350000000  0.4522280000000 1.0
C      1  0.5265290000000  0.4830420000000  0.6028450000000 1.0
C      1  0.5386440000000  0.5125860000000  0.4632160000000 1.0
C      1  0.4575550000000  0.4773500000000  0.4275510000000 1.0
C      1  0.4690010000000  0.5033540000000  0.4167970000000 1.0
C      1  0.4856540000000  0.4118100000000  0.5419330000000 1.0
C      1  0.5125530000000  0.4727200000000  0.4362750000000 1.0
C      1  0.5821880000000  0.4949200000000  0.5212970000000 1.0
C      1  0.4273930000000  0.5310830000000  0.4743210000000 1.0
C      1  0.4436170000000  0.4599640000000  0.4676790000000 1.0
C      1  0.4983560000000  0.5030950000000  0.4492630000000 1.0
C      1  0.4764320000000  0.5483110000000  0.5014330000000 1.0
C      1  0.5310320000000  0.5496310000000  0.5334880000000 1.0
C      1  0.5363840000000  0.4555480000000  0.5326330000000 1.0
C      1  0.5600190000000  0.5396790000000  0.5270990000000 1.0
C      1  0.4291050000000  0.4554620000000  0.4914230000000 1.0
C      1  0.4863060000000  0.4653550000000  0.5118980000000 1.0
C      1  0.4950830000000  0.5420210000000  0.5697400000000 1.0
C      1  0.5001560000000  0.5340880000000  0.4576370000000 1.0
C      1  0.5374190000000  0.4687650000000  0.4832090000000 1.0
C      1  0.5663300000000  0.5459550000000  0.4976970000000 1.0
C      1  0.4753260000000  0.5004630000000  0.5867340000000 1.0
END
