TITL C-951345-2650-509 -9.67992393968059e-07 125000 -383.966068606653 0 0 63 (C1) n - 1
REM
REM in /home/bkarasulu/work/CARBON/AIRSS/Generating-Clusters/EDIP-Nigel-Params/with-SteepDescent/Only-C1/SD-CG/HFTN-CG
REM
REM
REM
REM
REM
REM ./C.cell (11c1c37f851c82e70ff6c80c92926a4b)
REM
REM compiler GCC version 9.2.1 20190827 (Red Hat 9.2.1-1)
REM options -cpp -mtune=generic -march=x86-64 -g -O0 -fpre-include=/usr/include/finclude/math-vector-fortran.h
REM seed -316792300 1366344837 -886284629 447027003 -1466476566 -205773355 -1983431884 -1313474765 419725436 1185846289 -1812303991 760731582 1538106952 -298196878 672992224 -1713905769 -276612933 -1811056393 -404242209 -531215690 -1807316679 1732779157 -1138205056 -1883132162 1660480957 1964652944 -421675199 -1185534057 -535351699 -949998495 576313570 -1540235855 -133959080
REM
CELL 1.54180   50.00000   50.00000   50.00000   90.00000   90.00000   90.00000
LATT -1
SFAC C  
C      1  0.5254400000000  0.4417570000000  0.5079530000000 1.0
C      1  0.4859990000000  0.5318330000000  0.5549120000000 1.0
C      1  0.5530950000000  0.4989710000000  0.5575790000000 1.0
C      1  0.5078190000000  0.4837760000000  0.5732950000000 1.0
C      1  0.5480030000000  0.4601340000000  0.5525760000000 1.0
C      1  0.4583350000000  0.4717890000000  0.4414110000000 1.0
C      1  0.4998870000000  0.4653240000000  0.5499270000000 1.0
C      1  0.5639360000000  0.5357240000000  0.4777820000000 1.0
C      1  0.4511470000000  0.4714440000000  0.5473420000000 1.0
C      1  0.4950110000000  0.4770920000000  0.4767870000000 1.0
C      1  0.5071880000000  0.5129440000000  0.5646220000000 1.0
C      1  0.4418060000000  0.5212960000000  0.4533450000000 1.0
C      1  0.5121650000000  0.5429420000000  0.4517450000000 1.0
C      1  0.5273750000000  0.5570820000000  0.4702310000000 1.0
C      1  0.5001020000000  0.5556340000000  0.5441590000000 1.0
C      1  0.4939140000000  0.4859250000000  0.5274090000000 1.0
C      1  0.4547310000000  0.4944360000000  0.4580230000000 1.0
C      1  0.4876550000000  0.5742250000000  0.5264100000000 1.0
C      1  0.5180400000000  0.4402820000000  0.4780120000000 1.0
C      1  0.5372810000000  0.4783360000000  0.5758110000000 1.0
C      1  0.4617080000000  0.5405030000000  0.4461280000000 1.0
C      1  0.4206490000000  0.5048380000000  0.4964220000000 1.0
C      1  0.4391230000000  0.5299010000000  0.5288770000000 1.0
C      1  0.5686480000000  0.4802540000000  0.5367150000000 1.0
C      1  0.5301110000000  0.5206300000000  0.4436000000000 1.0
C      1  0.4855200000000  0.4401940000000  0.4711140000000 1.0
C      1  0.5246550000000  0.4698680000000  0.4333330000000 1.0
C      1  0.4771640000000  0.5185340000000  0.4961100000000 1.0
C      1  0.5755390000000  0.4674480000000  0.4890960000000 1.0
C      1  0.5698650000000  0.4950870000000  0.4525460000000 1.0
C      1  0.4787460000000  0.4524040000000  0.4442860000000 1.0
C      1  0.5568560000000  0.5197570000000  0.4555260000000 1.0
C      1  0.4964850000000  0.5756010000000  0.4998230000000 1.0
C      1  0.5656190000000  0.4692690000000  0.4629340000000 1.0
C      1  0.5405790000000  0.5579540000000  0.5156760000000 1.0
C      1  0.4263200000000  0.4711090000000  0.5298260000000 1.0
C      1  0.5239000000000  0.4510560000000  0.5368930000000 1.0
C      1  0.4520950000000  0.5357160000000  0.5013270000000 1.0
C      1  0.5626730000000  0.4835770000000  0.5082240000000 1.0
C      1  0.4845520000000  0.5543570000000  0.4546710000000 1.0
C      1  0.5301770000000  0.5174900000000  0.5459670000000 1.0
C      1  0.4346790000000  0.4583070000000  0.5001560000000 1.0
C      1  0.4772980000000  0.4427870000000  0.5146970000000 1.0
C      1  0.5357090000000  0.4628650000000  0.4606420000000 1.0
C      1  0.4460600000000  0.4873020000000  0.5003470000000 1.0
C      1  0.4581580000000  0.5249790000000  0.5506780000000 1.0
C      1  0.5236000000000  0.4842890000000  0.4766990000000 1.0
C      1  0.4298440000000  0.5291250000000  0.4808130000000 1.0
C      1  0.4711440000000  0.4493550000000  0.5448030000000 1.0
C      1  0.5623870000000  0.5450190000000  0.5034250000000 1.0
C      1  0.4952630000000  0.4653240000000  0.5056260000000 1.0
C      1  0.5235260000000  0.4976710000000  0.4288010000000 1.0
C      1  0.5299680000000  0.5487020000000  0.5419680000000 1.0
C      1  0.4779490000000  0.5003930000000  0.4733460000000 1.0
C      1  0.5046190000000  0.5270000000000  0.5036020000000 1.0
C      1  0.4814570000000  0.5732760000000  0.4757610000000 1.0
C      1  0.4184870000000  0.5083440000000  0.5257990000000 1.0
C      1  0.4633810000000  0.4933130000000  0.5295510000000 1.0
C      1  0.5348430000000  0.4893840000000  0.5031120000000 1.0
C      1  0.5010540000000  0.4563490000000  0.4282770000000 1.0
C      1  0.4560140000000  0.4391310000000  0.4957780000000 1.0
C      1  0.5173590000000  0.5549090000000  0.4973350000000 1.0
C      1  0.5172870000000  0.5056830000000  0.5203560000000 1.0
END
