TITL C-950526-5686-695 5.50458243280696e-06 125000 -1218.37489860193 0 0 193 (C1) n - 1
REM
REM in /home/bkarasulu/work/CARBON/AIRSS/Generating-Clusters/EDIP-Nigel-Params/with-SteepDescent/Only-C1/SD-CG/HFTN-CG
REM
REM
REM
REM
REM
REM ./C.cell (11c1c37f851c82e70ff6c80c92926a4b)
REM
REM compiler GCC version 9.2.1 20190827 (Red Hat 9.2.1-1)
REM options -cpp -mtune=generic -march=x86-64 -g -O0 -fpre-include=/usr/include/finclude/math-vector-fortran.h
REM seed -1919337881 1619293717 1260471609 -1107718993 -111570828 1459791305 -784894391 712948346 494867527 1368965894 -471511127 -1267261164 453024980 -1318062400 -2087626841 1992573597 -2096457609 1561828970 33152381 1364294872 -1695489143 -555112134 387175123 1954175437 1740323198 -1459785853 866811316 2125149375 399639805 504479459 893650314 1795441653 974870829
REM
CELL 1.54180   50.00000   50.00000   50.00000   90.00000   90.00000   90.00000
LATT -1
SFAC C  
C      1  0.4275450000000  0.5832130000000  0.4454050000000 1.0
C      1  0.5635580000000  0.5588240000000  0.5761300000000 1.0
C      1  0.5228700000000  0.5446060000000  0.5998960000000 1.0
C      1  0.5338100000000  0.4135780000000  0.4545380000000 1.0
C      1  0.6042600000000  0.5251450000000  0.4454620000000 1.0
C      1  0.5561910000000  0.5164210000000  0.5111660000000 1.0
C      1  0.5405980000000  0.4369630000000  0.5297510000000 1.0
C      1  0.4294230000000  0.4699440000000  0.5616640000000 1.0
C      1  0.3999480000000  0.5196160000000  0.4408770000000 1.0
C      1  0.5806170000000  0.4611920000000  0.5526410000000 1.0
C      1  0.4578730000000  0.3987690000000  0.5282960000000 1.0
C      1  0.5474090000000  0.4085110000000  0.4275160000000 1.0
C      1  0.5818950000000  0.5222710000000  0.4070910000000 1.0
C      1  0.5541170000000  0.5301700000000  0.4631170000000 1.0
C      1  0.5508240000000  0.4888710000000  0.5213070000000 1.0
C      1  0.5131630000000  0.4600030000000  0.6125020000000 1.0
C      1  0.4004610000000  0.4696300000000  0.4498270000000 1.0
C      1  0.5064280000000  0.5447400000000  0.5296790000000 1.0
C      1  0.4139900000000  0.5398040000000  0.4237870000000 1.0
C      1  0.4783460000000  0.4377410000000  0.4867290000000 1.0
C      1  0.5430000000000  0.5784960000000  0.4343370000000 1.0
C      1  0.4240650000000  0.4838570000000  0.4118040000000 1.0
C      1  0.4334450000000  0.5874600000000  0.5171630000000 1.0
C      1  0.4296820000000  0.4956620000000  0.4908390000000 1.0
C      1  0.5483740000000  0.4001160000000  0.4775180000000 1.0
C      1  0.4903400000000  0.5391950000000  0.3955500000000 1.0
C      1  0.4307740000000  0.4475520000000  0.4903140000000 1.0
C      1  0.6056020000000  0.4820210000000  0.4679040000000 1.0
C      1  0.5446730000000  0.5240030000000  0.6017600000000 1.0
C      1  0.4209740000000  0.4225940000000  0.4508110000000 1.0
C      1  0.5104070000000  0.5548370000000  0.4813040000000 1.0
C      1  0.4977730000000  0.4012190000000  0.4483420000000 1.0
C      1  0.5016090000000  0.5126540000000  0.4466260000000 1.0
C      1  0.5385060000000  0.5365100000000  0.4220530000000 1.0
C      1  0.5722530000000  0.5751060000000  0.4746120000000 1.0
C      1  0.5285500000000  0.4017780000000  0.5201010000000 1.0
C      1  0.5159560000000  0.4894660000000  0.6141680000000 1.0
C      1  0.4240080000000  0.4874630000000  0.5193530000000 1.0
C      1  0.5362230000000  0.5630570000000  0.4088130000000 1.0
C      1  0.5149220000000  0.4382570000000  0.5700870000000 1.0
C      1  0.4888310000000  0.4488310000000  0.4208060000000 1.0
C      1  0.5869020000000  0.4932820000000  0.4163740000000 1.0
C      1  0.4665710000000  0.5441480000000  0.6071050000000 1.0
C      1  0.5500390000000  0.4758880000000  0.5886150000000 1.0
C      1  0.5618960000000  0.4807770000000  0.4671400000000 1.0
C      1  0.5308500000000  0.4422450000000  0.3981750000000 1.0
C      1  0.5089500000000  0.4611150000000  0.4038140000000 1.0
C      1  0.3947050000000  0.5353530000000  0.5552550000000 1.0
C      1  0.5885280000000  0.5178030000000  0.5409240000000 1.0
C      1  0.4121030000000  0.5671930000000  0.4287140000000 1.0
C      1  0.5505880000000  0.4429980000000  0.5010860000000 1.0
C      1  0.5189290000000  0.5056320000000  0.5621590000000 1.0
C      1  0.5585780000000  0.4499590000000  0.4048890000000 1.0
C      1  0.4556520000000  0.5870900000000  0.4373140000000 1.0
C      1  0.4469870000000  0.4461130000000  0.5164910000000 1.0
C      1  0.5862900000000  0.5557980000000  0.4931120000000 1.0
C      1  0.4955850000000  0.4577220000000  0.5240580000000 1.0
C      1  0.4027050000000  0.5420960000000  0.5182250000000 1.0
C      1  0.4714660000000  0.5954030000000  0.4595970000000 1.0
C      1  0.5279160000000  0.5353480000000  0.5496070000000 1.0
C      1  0.3715180000000  0.5028570000000  0.5106210000000 1.0
C      1  0.4009590000000  0.4544640000000  0.4976170000000 1.0
C      1  0.5690820000000  0.4277820000000  0.4211220000000 1.0
C      1  0.5619800000000  0.4781890000000  0.4116690000000 1.0
C      1  0.4693540000000  0.4928360000000  0.4082570000000 1.0
C      1  0.5111380000000  0.5608630000000  0.3947230000000 1.0
C      1  0.5328340000000  0.5573000000000  0.5721570000000 1.0
C      1  0.5546880000000  0.5372100000000  0.5326310000000 1.0
C      1  0.5085640000000  0.5355410000000  0.4300530000000 1.0
C      1  0.4826620000000  0.5954760000000  0.5221540000000 1.0
C      1  0.4007320000000  0.4674940000000  0.5255580000000 1.0
C      1  0.4321310000000  0.5443490000000  0.5083290000000 1.0
C      1  0.5230600000000  0.3934050000000  0.4918110000000 1.0
C      1  0.6044840000000  0.4949880000000  0.5291150000000 1.0
C      1  0.4658040000000  0.4786810000000  0.4578480000000 1.0
C      1  0.4490300000000  0.4554840000000  0.5777240000000 1.0
C      1  0.5715070000000  0.4820070000000  0.5709600000000 1.0
C      1  0.5240180000000  0.4165990000000  0.4111210000000 1.0
C      1  0.4487340000000  0.5212680000000  0.5421270000000 1.0
C      1  0.5255440000000  0.5950860000000  0.4791540000000 1.0
C      1  0.4357050000000  0.4219070000000  0.4745860000000 1.0
C      1  0.5541200000000  0.5948290000000  0.4886270000000 1.0
C      1  0.3893370000000  0.5046330000000  0.5588140000000 1.0
C      1  0.6154420000000  0.5304670000000  0.4716930000000 1.0
C      1  0.5685080000000  0.5312640000000  0.5860750000000 1.0
C      1  0.4435030000000  0.5032570000000  0.4017430000000 1.0
C      1  0.5484010000000  0.4010660000000  0.5728040000000 1.0
C      1  0.5324600000000  0.4824470000000  0.4817200000000 1.0
C      1  0.4711620000000  0.5216630000000  0.4860180000000 1.0
C      1  0.5189450000000  0.5844610000000  0.4509040000000 1.0
C      1  0.5785380000000  0.5101850000000  0.5675930000000 1.0
C      1  0.4823350000000  0.5037550000000  0.5093470000000 1.0
C      1  0.5181060000000  0.5622770000000  0.5097230000000 1.0
C      1  0.4688920000000  0.4997050000000  0.5371830000000 1.0
C      1  0.5203800000000  0.4084870000000  0.5660690000000 1.0
C      1  0.4513930000000  0.5178870000000  0.6016720000000 1.0
C      1  0.5153040000000  0.4653600000000  0.4611210000000 1.0
C      1  0.4259080000000  0.4259400000000  0.5538550000000 1.0
C      1  0.4388210000000  0.4202320000000  0.5293730000000 1.0
C      1  0.4875900000000  0.4336610000000  0.5818000000000 1.0
C      1  0.5610380000000  0.4545740000000  0.4486270000000 1.0
C      1  0.5890670000000  0.5429640000000  0.4283600000000 1.0
C      1  0.5848170000000  0.5703740000000  0.5597730000000 1.0
C      1  0.5075070000000  0.3973080000000  0.5417760000000 1.0
C      1  0.5961810000000  0.4344980000000  0.4969250000000 1.0
C      1  0.4334010000000  0.5678750000000  0.4706310000000 1.0
C      1  0.4379650000000  0.4586270000000  0.4200160000000 1.0
C      1  0.4167110000000  0.5424360000000  0.5746880000000 1.0
C      1  0.5305700000000  0.5976290000000  0.5365830000000 1.0
C      1  0.6030910000000  0.5430510000000  0.5404410000000 1.0
C      1  0.5633270000000  0.5600170000000  0.4496610000000 1.0
C      1  0.4408660000000  0.5235530000000  0.4879420000000 1.0
C      1  0.5873170000000  0.5664170000000  0.5301840000000 1.0
C      1  0.4388970000000  0.5319000000000  0.4072530000000 1.0
C      1  0.4529630000000  0.5319410000000  0.4434900000000 1.0
C      1  0.4379820000000  0.4731470000000  0.4725120000000 1.0
C      1  0.6137460000000  0.5554540000000  0.4842100000000 1.0
C      1  0.4151000000000  0.5770420000000  0.4945220000000 1.0
C      1  0.4922650000000  0.5859280000000  0.5711910000000 1.0
C      1  0.5380180000000  0.4422150000000  0.4643880000000 1.0
C      1  0.4889720000000  0.4325440000000  0.5137240000000 1.0
C      1  0.5637190000000  0.3920070000000  0.5508510000000 1.0
C      1  0.4816350000000  0.4135390000000  0.5360410000000 1.0
C      1  0.4368520000000  0.5637350000000  0.5693390000000 1.0
C      1  0.6234230000000  0.5014700000000  0.5100570000000 1.0
C      1  0.5965500000000  0.4541770000000  0.4748990000000 1.0
C      1  0.4641110000000  0.5502030000000  0.4050300000000 1.0
C      1  0.4999040000000  0.4216190000000  0.4274370000000 1.0
C      1  0.5914860000000  0.4679590000000  0.5259520000000 1.0
C      1  0.4980690000000  0.5602250000000  0.4444920000000 1.0
C      1  0.4660900000000  0.4683770000000  0.4265030000000 1.0
C      1  0.4817030000000  0.5559380000000  0.5413850000000 1.0
C      1  0.6091490000000  0.4459980000000  0.5188970000000 1.0
C      1  0.4326190000000  0.5382970000000  0.4640280000000 1.0
C      1  0.3809530000000  0.4890310000000  0.5331250000000 1.0
C      1  0.5562750000000  0.5875690000000  0.5195870000000 1.0
C      1  0.4816370000000  0.5393430000000  0.5658320000000 1.0
C      1  0.4225260000000  0.4507340000000  0.4440530000000 1.0
C      1  0.4140650000000  0.4937290000000  0.5744730000000 1.0
C      1  0.4761220000000  0.5936680000000  0.5496580000000 1.0
C      1  0.4731400000000  0.4985050000000  0.5950950000000 1.0
C      1  0.4662130000000  0.5608900000000  0.5817130000000 1.0
C      1  0.4677820000000  0.5594820000000  0.4333940000000 1.0
C      1  0.5517900000000  0.5027930000000  0.4474250000000 1.0
C      1  0.5432860000000  0.4947680000000  0.3970080000000 1.0
C      1  0.5866560000000  0.4403850000000  0.4526720000000 1.0
C      1  0.5112950000000  0.5922180000000  0.5131060000000 1.0
C      1  0.4648690000000  0.4696600000000  0.5974810000000 1.0
C      1  0.5584780000000  0.3971510000000  0.5238640000000 1.0
C      1  0.5361150000000  0.4485390000000  0.5919650000000 1.0
C      1  0.4934680000000  0.4775140000000  0.5020410000000 1.0
C      1  0.3928920000000  0.4748190000000  0.4773100000000 1.0
C      1  0.5579010000000  0.4280940000000  0.5804800000000 1.0
C      1  0.5669270000000  0.4691550000000  0.5039540000000 1.0
C      1  0.4215120000000  0.5122520000000  0.5355800000000 1.0
C      1  0.5189160000000  0.4559300000000  0.5419070000000 1.0
C      1  0.4601110000000  0.5890820000000  0.5056300000000 1.0
C      1  0.6081230000000  0.5056360000000  0.4864060000000 1.0
C      1  0.5214390000000  0.4920120000000  0.4399070000000 1.0
C      1  0.5277710000000  0.5312670000000  0.4768950000000 1.0
C      1  0.3830900000000  0.5228570000000  0.4654790000000 1.0
C      1  0.4463570000000  0.4738070000000  0.5342360000000 1.0
C      1  0.3894030000000  0.5607230000000  0.4994740000000 1.0
C      1  0.4858490000000  0.4508000000000  0.6048710000000 1.0
C      1  0.4919450000000  0.5052700000000  0.6170000000000 1.0
C      1  0.4526710000000  0.5486430000000  0.5314770000000 1.0
C      1  0.4734050000000  0.5096860000000  0.4571630000000 1.0
C      1  0.4627410000000  0.5754090000000  0.4795240000000 1.0
C      1  0.4297190000000  0.5176160000000  0.5818770000000 1.0
C      1  0.5525640000000  0.5227070000000  0.3998700000000 1.0
C      1  0.5653320000000  0.4363830000000  0.5520800000000 1.0
C      1  0.3789270000000  0.5479740000000  0.4769570000000 1.0
C      1  0.3787680000000  0.4998080000000  0.4836380000000 1.0
C      1  0.4629570000000  0.4317860000000  0.5646830000000 1.0
C      1  0.5958350000000  0.4974780000000  0.4442080000000 1.0
C      1  0.5294230000000  0.4841120000000  0.5423130000000 1.0
C      1  0.5672960000000  0.4166380000000  0.4984380000000 1.0
C      1  0.5208940000000  0.5841010000000  0.5635000000000 1.0
C      1  0.4875030000000  0.4642740000000  0.4751920000000 1.0
C      1  0.5232640000000  0.5083580000000  0.4927320000000 1.0
C      1  0.5324700000000  0.4991180000000  0.5917760000000 1.0
C      1  0.5165510000000  0.4894970000000  0.4088030000000 1.0
C      1  0.4862830000000  0.5082790000000  0.5651430000000 1.0
C      1  0.4933180000000  0.5074830000000  0.3998050000000 1.0
C      1  0.5471410000000  0.5595350000000  0.5140620000000 1.0
C      1  0.4809660000000  0.5502880000000  0.4831630000000 1.0
C      1  0.4955920000000  0.5349220000000  0.6133850000000 1.0
C      1  0.4091410000000  0.4500800000000  0.5522230000000 1.0
C      1  0.4050670000000  0.4922750000000  0.4326660000000 1.0
C      1  0.5746680000000  0.5263400000000  0.4876700000000 1.0
C      1  0.4988410000000  0.3998680000000  0.4767610000000 1.0
C      1  0.4641800000000  0.4167730000000  0.4728690000000 1.0
C      1  0.4312530000000  0.5783730000000  0.5448190000000 1.0
END
