TITL C-951333-8791-584 3.62536023569509e-06 125000 -1222.71204152214 0 0 196 (C1) n - 1
REM
REM in /home/bkarasulu/work/CARBON/AIRSS/Generating-Clusters/EDIP-Nigel-Params/with-SteepDescent/Only-C1/SD-CG/HFTN-CG
REM
REM
REM
REM
REM
REM ./C.cell (11c1c37f851c82e70ff6c80c92926a4b)
REM
REM compiler GCC version 9.2.1 20190827 (Red Hat 9.2.1-1)
REM options -cpp -mtune=generic -march=x86-64 -g -O0 -fpre-include=/usr/include/finclude/math-vector-fortran.h
REM seed 315796461 1943373179 -807445630 179316460 -1033858113 -255351700 -884505390 1762045773 -1181459498 42968273 571702843 -1608636949 620951109 -1906902802 -84702876 644418737 1648147249 1334909131 -1591384230 -1466233548 1714177822 -880241680 19794872 1941260672 -734549320 -1003852109 -2023612740 -1874704260 -600573410 -425399859 -323752826 1689127306 -332893934
REM
CELL 1.54180   50.00000   50.00000   50.00000   90.00000   90.00000   90.00000
LATT -1
SFAC C  
C      1  0.5189780000000  0.4972030000000  0.6015570000000 1.0
C      1  0.4659540000000  0.5841190000000  0.4974390000000 1.0
C      1  0.4075090000000  0.4148960000000  0.4732330000000 1.0
C      1  0.4905970000000  0.5168780000000  0.3869460000000 1.0
C      1  0.4392690000000  0.4117100000000  0.5470430000000 1.0
C      1  0.5244380000000  0.4611310000000  0.5070290000000 1.0
C      1  0.5097570000000  0.6179040000000  0.5403330000000 1.0
C      1  0.5968280000000  0.4929210000000  0.5067270000000 1.0
C      1  0.4261860000000  0.5071300000000  0.4158020000000 1.0
C      1  0.4396130000000  0.5248260000000  0.4831180000000 1.0
C      1  0.5171520000000  0.4236190000000  0.4815000000000 1.0
C      1  0.4859990000000  0.4879840000000  0.3837050000000 1.0
C      1  0.4365290000000  0.4487100000000  0.4941870000000 1.0
C      1  0.5595170000000  0.4692420000000  0.5734570000000 1.0
C      1  0.5443460000000  0.4024710000000  0.5227860000000 1.0
C      1  0.5144820000000  0.6284660000000  0.4884590000000 1.0
C      1  0.4708620000000  0.5261000000000  0.5692860000000 1.0
C      1  0.5167210000000  0.5214090000000  0.4003350000000 1.0
C      1  0.5713490000000  0.5364650000000  0.4892860000000 1.0
C      1  0.5336400000000  0.4467530000000  0.4117400000000 1.0
C      1  0.5685700000000  0.5533270000000  0.4412180000000 1.0
C      1  0.5761170000000  0.4493430000000  0.5248320000000 1.0
C      1  0.5400050000000  0.5413670000000  0.4964630000000 1.0
C      1  0.5564580000000  0.3963490000000  0.4769780000000 1.0
C      1  0.4254190000000  0.5248960000000  0.5853710000000 1.0
C      1  0.4967120000000  0.4979030000000  0.6194110000000 1.0
C      1  0.5571960000000  0.4526920000000  0.4308190000000 1.0
C      1  0.5291780000000  0.5388430000000  0.5652780000000 1.0
C      1  0.4452250000000  0.5722380000000  0.4421300000000 1.0
C      1  0.4756270000000  0.4488310000000  0.4580690000000 1.0
C      1  0.4806320000000  0.4729650000000  0.6184810000000 1.0
C      1  0.4791670000000  0.4513490000000  0.5553260000000 1.0
C      1  0.4809820000000  0.6107000000000  0.5342910000000 1.0
C      1  0.4876030000000  0.5842910000000  0.5214150000000 1.0
C      1  0.4194350000000  0.4994430000000  0.4435320000000 1.0
C      1  0.5571840000000  0.4512910000000  0.5484310000000 1.0
C      1  0.5080880000000  0.4809670000000  0.5794890000000 1.0
C      1  0.5525470000000  0.5573260000000  0.5694810000000 1.0
C      1  0.3927530000000  0.5182290000000  0.5099780000000 1.0
C      1  0.5870130000000  0.4856330000000  0.4523960000000 1.0
C      1  0.3890980000000  0.5048940000000  0.5356530000000 1.0
C      1  0.5264000000000  0.5140210000000  0.5036170000000 1.0
C      1  0.4288620000000  0.4819020000000  0.5232560000000 1.0
C      1  0.5397860000000  0.4055800000000  0.5519330000000 1.0
C      1  0.5772170000000  0.5397530000000  0.5705720000000 1.0
C      1  0.4769190000000  0.4781130000000  0.5714580000000 1.0
C      1  0.5877470000000  0.4305870000000  0.5028330000000 1.0
C      1  0.4174670000000  0.4792660000000  0.6020920000000 1.0
C      1  0.3996640000000  0.5455810000000  0.5113890000000 1.0
C      1  0.5425560000000  0.4602980000000  0.4815610000000 1.0
C      1  0.4709440000000  0.5017030000000  0.5524070000000 1.0
C      1  0.5244760000000  0.6236530000000  0.5155170000000 1.0
C      1  0.4897430000000  0.5641440000000  0.5448190000000 1.0
C      1  0.4023200000000  0.4629630000000  0.5591940000000 1.0
C      1  0.4597640000000  0.5668730000000  0.5880790000000 1.0
C      1  0.5903450000000  0.5608620000000  0.4941240000000 1.0
C      1  0.4156120000000  0.4698720000000  0.4435430000000 1.0
C      1  0.5140700000000  0.5399130000000  0.5906640000000 1.0
C      1  0.5294840000000  0.4704080000000  0.3934930000000 1.0
C      1  0.5993880000000  0.5219130000000  0.5108920000000 1.0
C      1  0.5716890000000  0.5298410000000  0.4584060000000 1.0
C      1  0.4916610000000  0.5857750000000  0.4598180000000 1.0
C      1  0.4878410000000  0.4651200000000  0.4142900000000 1.0
C      1  0.4796230000000  0.5328690000000  0.5081010000000 1.0
C      1  0.4734570000000  0.5396410000000  0.3972610000000 1.0
C      1  0.4021240000000  0.4256420000000  0.5212600000000 1.0
C      1  0.4921700000000  0.5799830000000  0.5712940000000 1.0
C      1  0.4538670000000  0.5529250000000  0.4742530000000 1.0
C      1  0.4275460000000  0.5806070000000  0.4899590000000 1.0
C      1  0.4050250000000  0.5109190000000  0.5692460000000 1.0
C      1  0.5027450000000  0.5665450000000  0.5969970000000 1.0
C      1  0.4343620000000  0.3870280000000  0.4768590000000 1.0
C      1  0.5118370000000  0.3899530000000  0.4535100000000 1.0
C      1  0.4874600000000  0.6261990000000  0.4836050000000 1.0
C      1  0.5033600000000  0.4348530000000  0.4181810000000 1.0
C      1  0.6047590000000  0.4822490000000  0.5326130000000 1.0
C      1  0.4278430000000  0.5496450000000  0.4388340000000 1.0
C      1  0.5266660000000  0.3943450000000  0.4808760000000 1.0
C      1  0.4743310000000  0.6031100000000  0.4761910000000 1.0
C      1  0.5200890000000  0.5941980000000  0.5554910000000 1.0
C      1  0.5272420000000  0.4124840000000  0.4389740000000 1.0
C      1  0.5495510000000  0.5009280000000  0.5166880000000 1.0
C      1  0.5199140000000  0.6017430000000  0.4615830000000 1.0
C      1  0.5045330000000  0.4592130000000  0.4547080000000 1.0
C      1  0.5692390000000  0.5198810000000  0.4039360000000 1.0
C      1  0.5455640000000  0.5105170000000  0.6001580000000 1.0
C      1  0.4434350000000  0.4522770000000  0.5957050000000 1.0
C      1  0.4113170000000  0.5525000000000  0.5356090000000 1.0
C      1  0.4774830000000  0.3942500000000  0.4924950000000 1.0
C      1  0.5135750000000  0.5468200000000  0.5396280000000 1.0
C      1  0.4344020000000  0.5034530000000  0.6034550000000 1.0
C      1  0.5241950000000  0.5754450000000  0.4154360000000 1.0
C      1  0.5204680000000  0.4885850000000  0.5534370000000 1.0
C      1  0.5692550000000  0.5813670000000  0.5271820000000 1.0
C      1  0.3980500000000  0.5167950000000  0.4579770000000 1.0
C      1  0.4101390000000  0.4329780000000  0.4952800000000 1.0
C      1  0.5044300000000  0.4850200000000  0.5016700000000 1.0
C      1  0.4348690000000  0.4135210000000  0.4640760000000 1.0
C      1  0.3950510000000  0.4617450000000  0.4602410000000 1.0
C      1  0.5953950000000  0.5386580000000  0.5456230000000 1.0
C      1  0.5895040000000  0.4439540000000  0.4741140000000 1.0
C      1  0.5518700000000  0.5729850000000  0.4525450000000 1.0
C      1  0.4837210000000  0.3969990000000  0.4597140000000 1.0
C      1  0.5126700000000  0.5409630000000  0.4241840000000 1.0
C      1  0.5449640000000  0.4489730000000  0.5911330000000 1.0
C      1  0.5487750000000  0.5113790000000  0.4508990000000 1.0
C      1  0.4611290000000  0.6045310000000  0.5539050000000 1.0
C      1  0.5292320000000  0.4599470000000  0.5394490000000 1.0
C      1  0.4887840000000  0.4000690000000  0.5468870000000 1.0
C      1  0.5703250000000  0.4359850000000  0.4513960000000 1.0
C      1  0.4603800000000  0.4769960000000  0.5969540000000 1.0
C      1  0.4016840000000  0.4790240000000  0.5351570000000 1.0
C      1  0.4465070000000  0.5446360000000  0.5723510000000 1.0
C      1  0.5349640000000  0.5363110000000  0.3817180000000 1.0
C      1  0.5405980000000  0.5105940000000  0.5617020000000 1.0
C      1  0.5014120000000  0.5646160000000  0.4777540000000 1.0
C      1  0.4820780000000  0.5439180000000  0.4255610000000 1.0
C      1  0.4391000000000  0.4542420000000  0.4345460000000 1.0
C      1  0.5081580000000  0.4340620000000  0.5077020000000 1.0
C      1  0.4974120000000  0.4995680000000  0.5369500000000 1.0
C      1  0.4655650000000  0.4323540000000  0.5919380000000 1.0
C      1  0.4908430000000  0.4454890000000  0.6050140000000 1.0
C      1  0.5279170000000  0.4937640000000  0.4119860000000 1.0
C      1  0.6166180000000  0.5348210000000  0.4553530000000 1.0
C      1  0.5563480000000  0.4259220000000  0.5648390000000 1.0
C      1  0.6029660000000  0.4534100000000  0.5304840000000 1.0
C      1  0.5270300000000  0.5516550000000  0.4709690000000 1.0
C      1  0.5316340000000  0.5597540000000  0.5197350000000 1.0
C      1  0.5428280000000  0.5605220000000  0.3980190000000 1.0
C      1  0.5495920000000  0.5824110000000  0.5526780000000 1.0
C      1  0.5646930000000  0.5889050000000  0.4984670000000 1.0
C      1  0.6174050000000  0.5479130000000  0.4807040000000 1.0
C      1  0.5146740000000  0.4519580000000  0.5858020000000 1.0
C      1  0.4736290000000  0.5705080000000  0.4384730000000 1.0
C      1  0.4327110000000  0.5949720000000  0.5145310000000 1.0
C      1  0.4080720000000  0.5442300000000  0.4600210000000 1.0
C      1  0.4217820000000  0.4356960000000  0.5399280000000 1.0
C      1  0.5886870000000  0.5009470000000  0.5512070000000 1.0
C      1  0.4957660000000  0.5050490000000  0.4522030000000 1.0
C      1  0.5365350000000  0.5911020000000  0.4886520000000 1.0
C      1  0.4823770000000  0.4469240000000  0.5056870000000 1.0
C      1  0.4812180000000  0.5455910000000  0.4828080000000 1.0
C      1  0.5922760000000  0.5625210000000  0.5261800000000 1.0
C      1  0.5724300000000  0.4767230000000  0.4271640000000 1.0
C      1  0.4645160000000  0.4392650000000  0.4849390000000 1.0
C      1  0.5591500000000  0.4845260000000  0.4721190000000 1.0
C      1  0.4441790000000  0.5862600000000  0.5393970000000 1.0
C      1  0.3874580000000  0.5050310000000  0.4835510000000 1.0
C      1  0.4412710000000  0.3935520000000  0.5255350000000 1.0
C      1  0.5733890000000  0.5143830000000  0.5901900000000 1.0
C      1  0.4858300000000  0.4916850000000  0.4779540000000 1.0
C      1  0.5553030000000  0.5005440000000  0.4226750000000 1.0
C      1  0.5039110000000  0.5241560000000  0.5225790000000 1.0
C      1  0.4559000000000  0.5169990000000  0.5078530000000 1.0
C      1  0.5361220000000  0.5912150000000  0.4369490000000 1.0
C      1  0.5819840000000  0.4883320000000  0.5776550000000 1.0
C      1  0.5225620000000  0.3873950000000  0.5103760000000 1.0
C      1  0.5560960000000  0.4112210000000  0.4512180000000 1.0
C      1  0.4264200000000  0.5361250000000  0.4124710000000 1.0
C      1  0.4584640000000  0.4692880000000  0.4188010000000 1.0
C      1  0.4533810000000  0.4968500000000  0.4127330000000 1.0
C      1  0.5280380000000  0.4430400000000  0.4619530000000 1.0
C      1  0.5671480000000  0.4070630000000  0.5030800000000 1.0
C      1  0.6179000000000  0.4880840000000  0.4870710000000 1.0
C      1  0.4121640000000  0.5558790000000  0.4874040000000 1.0
C      1  0.4449280000000  0.4251310000000  0.4388010000000 1.0
C      1  0.4758490000000  0.4214690000000  0.4403000000000 1.0
C      1  0.4863300000000  0.5263510000000  0.5958930000000 1.0
C      1  0.4684490000000  0.4545000000000  0.5288020000000 1.0
C      1  0.4006310000000  0.4835940000000  0.5792810000000 1.0
C      1  0.5686200000000  0.4932050000000  0.4978270000000 1.0
C      1  0.5613610000000  0.5108500000000  0.5407630000000 1.0
C      1  0.5183910000000  0.5855590000000  0.5120810000000 1.0
C      1  0.4652680000000  0.4156580000000  0.5618930000000 1.0
C      1  0.4346030000000  0.5602170000000  0.5486200000000 1.0
C      1  0.5087390000000  0.4417260000000  0.5573860000000 1.0
C      1  0.4969590000000  0.4012360000000  0.5162880000000 1.0
C      1  0.4706640000000  0.5172820000000  0.4392750000000 1.0
C      1  0.4459590000000  0.5060120000000  0.4584960000000 1.0
C      1  0.4577370000000  0.4800120000000  0.4725580000000 1.0
C      1  0.3979650000000  0.4775320000000  0.4836490000000 1.0
C      1  0.5581040000000  0.5201310000000  0.3777130000000 1.0
C      1  0.6062600000000  0.4686110000000  0.4676250000000 1.0
C      1  0.5648290000000  0.5475110000000  0.4129550000000 1.0
C      1  0.5060900000000  0.4819530000000  0.4344470000000 1.0
C      1  0.5960750000000  0.5157260000000  0.4507710000000 1.0
C      1  0.4510010000000  0.3850740000000  0.5003170000000 1.0
C      1  0.5213240000000  0.5274240000000  0.4515510000000 1.0
C      1  0.5071730000000  0.4710830000000  0.3762340000000 1.0
C      1  0.4458900000000  0.5417750000000  0.3929060000000 1.0
C      1  0.4766850000000  0.5552920000000  0.6082520000000 1.0
C      1  0.4264300000000  0.4866240000000  0.4931450000000 1.0
C      1  0.5118250000000  0.4121210000000  0.5602730000000 1.0
C      1  0.6256120000000  0.5250650000000  0.4969770000000 1.0
C      1  0.4399430000000  0.4547070000000  0.5235850000000 1.0
C      1  0.4481940000000  0.5029360000000  0.5320180000000 1.0
END
