TITL C-951343-2256-215 -2.9323872916442e-06 125000 -510.087107018702 0 0 84 (C1) n - 1
REM
REM in /home/bkarasulu/work/CARBON/AIRSS/Generating-Clusters/EDIP-Nigel-Params/with-SteepDescent/Only-C1/SD-CG/HFTN-CG
REM
REM
REM
REM
REM
REM ./C.cell (11c1c37f851c82e70ff6c80c92926a4b)
REM
REM compiler GCC version 9.2.1 20190827 (Red Hat 9.2.1-1)
REM options -cpp -mtune=generic -march=x86-64 -g -O0 -fpre-include=/usr/include/finclude/math-vector-fortran.h
REM seed 1754863922 -1594424774 1986073706 604812077 1062784729 -1930180230 597351312 866841816 1464490846 -1370409571 210193151 1410339537 -3490550 -1173831013 -1011717600 -2104597573 -1777085541 814028155 -371835425 -1221982023 -1292812912 -399045802 -1171385056 1687194923 2145944271 -623553506 -44057324 -1437368234 2001536828 1630757676 -346001572 -612348918 539185945
REM
CELL 1.54180   50.00000   50.00000   50.00000   90.00000   90.00000   90.00000
LATT -1
SFAC C  
C      1  0.5463680000000  0.5213700000000  0.5419260000000 1.0
C      1  0.4563070000000  0.5512320000000  0.4679290000000 1.0
C      1  0.5097670000000  0.4461780000000  0.5675720000000 1.0
C      1  0.5433600000000  0.4992910000000  0.4228000000000 1.0
C      1  0.4530220000000  0.4915470000000  0.4377400000000 1.0
C      1  0.5440890000000  0.5638490000000  0.4989600000000 1.0
C      1  0.4986190000000  0.4724340000000  0.4702820000000 1.0
C      1  0.4718430000000  0.5430950000000  0.4450370000000 1.0
C      1  0.4560640000000  0.4303120000000  0.4939700000000 1.0
C      1  0.5038810000000  0.5895710000000  0.5094160000000 1.0
C      1  0.5303910000000  0.5821240000000  0.5167260000000 1.0
C      1  0.4191380000000  0.4678520000000  0.5001580000000 1.0
C      1  0.4528650000000  0.5648250000000  0.5139470000000 1.0
C      1  0.5260220000000  0.4297720000000  0.4708500000000 1.0
C      1  0.4621960000000  0.4762100000000  0.5639310000000 1.0
C      1  0.5415530000000  0.5372040000000  0.4536350000000 1.0
C      1  0.4888060000000  0.5107340000000  0.5434810000000 1.0
C      1  0.5497540000000  0.4737850000000  0.4617380000000 1.0
C      1  0.5021650000000  0.5071000000000  0.5181880000000 1.0
C      1  0.5035850000000  0.5507540000000  0.5116270000000 1.0
C      1  0.4577280000000  0.4725850000000  0.5200330000000 1.0
C      1  0.4720870000000  0.5149190000000  0.4365050000000 1.0
C      1  0.4249510000000  0.5170790000000  0.5235430000000 1.0
C      1  0.4450030000000  0.4459600000000  0.5194310000000 1.0
C      1  0.4970320000000  0.4172260000000  0.5165660000000 1.0
C      1  0.5175340000000  0.5202040000000  0.4619720000000 1.0
C      1  0.5259270000000  0.4914650000000  0.4751180000000 1.0
C      1  0.5335190000000  0.4498510000000  0.4500700000000 1.0
C      1  0.5661400000000  0.5512100000000  0.5101140000000 1.0
C      1  0.5915150000000  0.5137800000000  0.5243540000000 1.0
C      1  0.4860920000000  0.5414820000000  0.5753230000000 1.0
C      1  0.5138590000000  0.5378710000000  0.4271180000000 1.0
C      1  0.5651300000000  0.5196430000000  0.4481390000000 1.0
C      1  0.4994550000000  0.4198510000000  0.4695650000000 1.0
C      1  0.5359900000000  0.4350570000000  0.4976300000000 1.0
C      1  0.5096060000000  0.5723870000000  0.4627480000000 1.0
C      1  0.4608690000000  0.5198120000000  0.5385460000000 1.0
C      1  0.5707310000000  0.4921140000000  0.4993750000000 1.0
C      1  0.4872320000000  0.5610580000000  0.5547800000000 1.0
C      1  0.5095270000000  0.4963230000000  0.5799780000000 1.0
C      1  0.4853330000000  0.4327600000000  0.5593010000000 1.0
C      1  0.4871270000000  0.4520130000000  0.4275120000000 1.0
C      1  0.4911970000000  0.4855040000000  0.5579450000000 1.0
C      1  0.4677420000000  0.4713930000000  0.4695920000000 1.0
C      1  0.5836090000000  0.4862660000000  0.5271170000000 1.0
C      1  0.5163410000000  0.5620850000000  0.5464260000000 1.0
C      1  0.5721820000000  0.5338350000000  0.5314590000000 1.0
C      1  0.4641310000000  0.4668760000000  0.4280890000000 1.0
C      1  0.4243620000000  0.4609870000000  0.4708310000000 1.0
C      1  0.4580170000000  0.4474500000000  0.5557830000000 1.0
C      1  0.4871240000000  0.5144820000000  0.4935510000000 1.0
C      1  0.5630500000000  0.4914170000000  0.4413980000000 1.0
C      1  0.5342400000000  0.4834520000000  0.5830510000000 1.0
C      1  0.4125020000000  0.4980930000000  0.5022410000000 1.0
C      1  0.5516420000000  0.4680030000000  0.5676400000000 1.0
C      1  0.4981370000000  0.5130080000000  0.4237850000000 1.0
C      1  0.5411530000000  0.4953720000000  0.5010140000000 1.0
C      1  0.4639960000000  0.5724280000000  0.4866000000000 1.0
C      1  0.4504850000000  0.4452110000000  0.4688550000000 1.0
C      1  0.4285060000000  0.4878790000000  0.4570670000000 1.0
C      1  0.5359690000000  0.4598450000000  0.5268670000000 1.0
C      1  0.5314730000000  0.5400200000000  0.5607060000000 1.0
C      1  0.4973420000000  0.5396330000000  0.4796910000000 1.0
C      1  0.4915370000000  0.5830330000000  0.4845840000000 1.0
C      1  0.5045810000000  0.4659490000000  0.5335660000000 1.0
C      1  0.5378450000000  0.5626770000000  0.4703390000000 1.0
C      1  0.4752630000000  0.5504090000000  0.5291180000000 1.0
C      1  0.4306190000000  0.5441960000000  0.5083620000000 1.0
C      1  0.4191790000000  0.5098470000000  0.4751180000000 1.0
C      1  0.4964690000000  0.5580340000000  0.4394030000000 1.0
C      1  0.5105980000000  0.5267810000000  0.5785810000000 1.0
C      1  0.5660090000000  0.4821380000000  0.5484420000000 1.0
C      1  0.5613890000000  0.4463040000000  0.5018110000000 1.0
C      1  0.5703180000000  0.4666810000000  0.4834970000000 1.0
C      1  0.5163990000000  0.4912880000000  0.4284390000000 1.0
C      1  0.4531830000000  0.4845720000000  0.4938190000000 1.0
C      1  0.5363620000000  0.4466910000000  0.5551990000000 1.0
C      1  0.4477870000000  0.4908000000000  0.5416660000000 1.0
C      1  0.4590400000000  0.5124970000000  0.4958530000000 1.0
C      1  0.5082890000000  0.4653290000000  0.4422040000000 1.0
C      1  0.5299470000000  0.5157740000000  0.5174310000000 1.0
C      1  0.4400110000000  0.5310100000000  0.4827750000000 1.0
C      1  0.4831560000000  0.4179780000000  0.4924470000000 1.0
C      1  0.4866390000000  0.4408850000000  0.5300080000000 1.0
END
