TITL C-950532-2784-75 1.13004884613169e-06 125000 -382.150131728054 0 0 63 (C1) n - 1
REM
REM in /home/bkarasulu/work/CARBON/AIRSS/Generating-Clusters/EDIP-Nigel-Params/with-SteepDescent/Only-C1/SD-CG/HFTN-CG
REM
REM
REM
REM
REM
REM ./C.cell (11c1c37f851c82e70ff6c80c92926a4b)
REM
REM compiler GCC version 9.2.1 20190827 (Red Hat 9.2.1-1)
REM options -cpp -mtune=generic -march=x86-64 -g -O0 -fpre-include=/usr/include/finclude/math-vector-fortran.h
REM seed 1071513065 -1898979721 1562978543 1977536343 1614361324 -193995010 44516590 -1714316703 -963741164 -2085134229 -1023132851 2095343132 -1014539754 141580943 478182080 -1364327435 414021520 -1893540285 -1405674035 292966555 -1531943263 -378526019 -626315774 -1146464158 1531300657 -267088853 -495912912 677316538 1182963967 310856702 1140420645 594674668 50814575
REM
CELL 1.54180   50.00000   50.00000   50.00000   90.00000   90.00000   90.00000
LATT -1
SFAC C  
C      1  0.5748230000000  0.4941410000000  0.5081530000000 1.0
C      1  0.5385880000000  0.4679480000000  0.5087890000000 1.0
C      1  0.4713010000000  0.5134250000000  0.5497220000000 1.0
C      1  0.4865600000000  0.5335640000000  0.5335380000000 1.0
C      1  0.4598520000000  0.5109200000000  0.4354560000000 1.0
C      1  0.5394570000000  0.4469980000000  0.4661950000000 1.0
C      1  0.4370980000000  0.4676840000000  0.5019720000000 1.0
C      1  0.5579660000000  0.5168570000000  0.5173520000000 1.0
C      1  0.4716030000000  0.4612660000000  0.5374660000000 1.0
C      1  0.5115590000000  0.4349140000000  0.5316620000000 1.0
C      1  0.5316450000000  0.4381540000000  0.5109830000000 1.0
C      1  0.5094370000000  0.5176200000000  0.4290500000000 1.0
C      1  0.5237530000000  0.4922680000000  0.4659700000000 1.0
C      1  0.5188780000000  0.5151970000000  0.4871750000000 1.0
C      1  0.5768050000000  0.5058940000000  0.4606760000000 1.0
C      1  0.4391990000000  0.4909190000000  0.4397910000000 1.0
C      1  0.4711840000000  0.5561570000000  0.4623220000000 1.0
C      1  0.4612440000000  0.4232050000000  0.5050710000000 1.0
C      1  0.4612470000000  0.4266230000000  0.4754080000000 1.0
C      1  0.4361240000000  0.4385850000000  0.5020610000000 1.0
C      1  0.4782250000000  0.4954250000000  0.4787190000000 1.0
C      1  0.5498370000000  0.5085900000000  0.5457030000000 1.0
C      1  0.5265380000000  0.5563360000000  0.4515090000000 1.0
C      1  0.4869290000000  0.4981450000000  0.4314540000000 1.0
C      1  0.4850810000000  0.5105460000000  0.5750180000000 1.0
C      1  0.4484190000000  0.4777560000000  0.5276490000000 1.0
C      1  0.5440560000000  0.4729870000000  0.4786200000000 1.0
C      1  0.4253770000000  0.4996650000000  0.4638890000000 1.0
C      1  0.5068770000000  0.5311760000000  0.5736600000000 1.0
C      1  0.5422730000000  0.5346460000000  0.4910420000000 1.0
C      1  0.4543160000000  0.5321370000000  0.4559840000000 1.0
C      1  0.5203410000000  0.4358590000000  0.4840550000000 1.0
C      1  0.4436760000000  0.5326610000000  0.5088360000000 1.0
C      1  0.4430590000000  0.5094850000000  0.5490590000000 1.0
C      1  0.5341490000000  0.5039600000000  0.4400110000000 1.0
C      1  0.4760930000000  0.4498090000000  0.4672790000000 1.0
C      1  0.4783150000000  0.5631990000000  0.4911800000000 1.0
C      1  0.4917890000000  0.4839700000000  0.5809450000000 1.0
C      1  0.5489650000000  0.5438420000000  0.4628920000000 1.0
C      1  0.4942760000000  0.4521300000000  0.4910900000000 1.0
C      1  0.4320730000000  0.5125270000000  0.5236170000000 1.0
C      1  0.5143250000000  0.5208030000000  0.5235420000000 1.0
C      1  0.5319360000000  0.5221210000000  0.5631010000000 1.0
C      1  0.5511360000000  0.4801190000000  0.5498120000000 1.0
C      1  0.5299200000000  0.5576990000000  0.5043320000000 1.0
C      1  0.5172000000000  0.5700010000000  0.5484930000000 1.0
C      1  0.4941280000000  0.4815390000000  0.4560520000000 1.0
C      1  0.5031580000000  0.5399010000000  0.4481310000000 1.0
C      1  0.4956740000000  0.5533110000000  0.5560370000000 1.0
C      1  0.4928250000000  0.5257650000000  0.4764520000000 1.0
C      1  0.5579960000000  0.5211030000000  0.4464790000000 1.0
C      1  0.4285340000000  0.5279030000000  0.4670940000000 1.0
C      1  0.5717610000000  0.4858050000000  0.4793850000000 1.0
C      1  0.5323320000000  0.5532670000000  0.5319650000000 1.0
C      1  0.4835420000000  0.4404540000000  0.5180580000000 1.0
C      1  0.4931580000000  0.4716050000000  0.5554660000000 1.0
C      1  0.5637750000000  0.4717730000000  0.5248690000000 1.0
C      1  0.5140580000000  0.4869110000000  0.5202630000000 1.0
C      1  0.4482470000000  0.4815630000000  0.4763060000000 1.0
C      1  0.5188560000000  0.4597680000000  0.5478050000000 1.0
C      1  0.5057520000000  0.5685150000000  0.4951440000000 1.0
C      1  0.4930380000000  0.4803250000000  0.5002830000000 1.0
C      1  0.4696630000000  0.5425570000000  0.5099100000000 1.0
END
