TITL C-951346-9544-223 -2.64039237783667e-06 125000 -575.122706986429 0 0 94 (C1) n - 1
REM
REM in /home/bkarasulu/work/CARBON/AIRSS/Generating-Clusters/EDIP-Nigel-Params/with-SteepDescent/Only-C1/SD-CG/HFTN-CG
REM
REM
REM
REM
REM
REM ./C.cell (11c1c37f851c82e70ff6c80c92926a4b)
REM
REM compiler GCC version 9.2.1 20190827 (Red Hat 9.2.1-1)
REM options -cpp -mtune=generic -march=x86-64 -g -O0 -fpre-include=/usr/include/finclude/math-vector-fortran.h
REM seed 77946474 -979823576 -1708297878 762893636 1367819896 -217692262 -1277881170 -651097495 216325625 1594450836 1591668632 554380010 -1361429353 -415938746 1074075670 -9007287 995575701 1138548814 597738267 -1124582547 729292037 1032423054 1393697818 755606941 -1268377810 -37466258 -914018384 1868878881 -230227603 -993424919 -1651820255 -291495898 -91785848
REM
CELL 1.54180   50.00000   50.00000   50.00000   90.00000   90.00000   90.00000
LATT -1
SFAC C  
C      1  0.5223910000000  0.4247000000000  0.4840240000000 1.0
C      1  0.5661470000000  0.5198860000000  0.4501610000000 1.0
C      1  0.4135080000000  0.4961780000000  0.5407170000000 1.0
C      1  0.5724000000000  0.4789440000000  0.4808230000000 1.0
C      1  0.5225630000000  0.5673130000000  0.4619680000000 1.0
C      1  0.4243820000000  0.5328750000000  0.5096160000000 1.0
C      1  0.5113200000000  0.4405580000000  0.4064930000000 1.0
C      1  0.4459750000000  0.5380520000000  0.5307610000000 1.0
C      1  0.5569220000000  0.4648580000000  0.5551110000000 1.0
C      1  0.5134130000000  0.4175490000000  0.5120380000000 1.0
C      1  0.4436780000000  0.5881710000000  0.4829510000000 1.0
C      1  0.4658410000000  0.5139510000000  0.5225560000000 1.0
C      1  0.5204990000000  0.4831400000000  0.4889220000000 1.0
C      1  0.4550530000000  0.4578060000000  0.5239710000000 1.0
C      1  0.4148840000000  0.5050100000000  0.5143620000000 1.0
C      1  0.4745120000000  0.4905500000000  0.4302220000000 1.0
C      1  0.4828140000000  0.4414150000000  0.5580030000000 1.0
C      1  0.4684210000000  0.4815500000000  0.5368310000000 1.0
C      1  0.5831790000000  0.4914600000000  0.5254150000000 1.0
C      1  0.5300370000000  0.4635310000000  0.5687430000000 1.0
C      1  0.4826860000000  0.4193040000000  0.5101960000000 1.0
C      1  0.4943570000000  0.4711590000000  0.4904230000000 1.0
C      1  0.4664630000000  0.5313870000000  0.4423280000000 1.0
C      1  0.4479490000000  0.4928400000000  0.5745530000000 1.0
C      1  0.4689730000000  0.4595490000000  0.4376950000000 1.0
C      1  0.4592170000000  0.5648340000000  0.5269610000000 1.0
C      1  0.5481930000000  0.4347590000000  0.4805710000000 1.0
C      1  0.5642820000000  0.4524090000000  0.4953990000000 1.0
C      1  0.4691070000000  0.4257990000000  0.4747240000000 1.0
C      1  0.5523000000000  0.4659180000000  0.4130790000000 1.0
C      1  0.4730340000000  0.4875860000000  0.4766530000000 1.0
C      1  0.5099600000000  0.5618210000000  0.5449890000000 1.0
C      1  0.4258000000000  0.4861760000000  0.4946070000000 1.0
C      1  0.5790130000000  0.5113240000000  0.5680890000000 1.0
C      1  0.5112160000000  0.5179010000000  0.4206900000000 1.0
C      1  0.5502200000000  0.4526210000000  0.5270580000000 1.0
C      1  0.5465530000000  0.4794060000000  0.4377990000000 1.0
C      1  0.5044340000000  0.5465440000000  0.4596310000000 1.0
C      1  0.5118540000000  0.5410510000000  0.5658290000000 1.0
C      1  0.4566570000000  0.5202810000000  0.5702460000000 1.0
C      1  0.4530110000000  0.5500060000000  0.4625270000000 1.0
C      1  0.4387950000000  0.5310130000000  0.4814240000000 1.0
C      1  0.4714160000000  0.4751250000000  0.5686120000000 1.0
C      1  0.4939190000000  0.5399520000000  0.4329570000000 1.0
C      1  0.4891970000000  0.5361560000000  0.4835430000000 1.0
C      1  0.5394360000000  0.5083130000000  0.5884080000000 1.0
C      1  0.5306100000000  0.5070300000000  0.4438220000000 1.0
C      1  0.4937840000000  0.4947910000000  0.5791300000000 1.0
C      1  0.5212730000000  0.5090360000000  0.4747070000000 1.0
C      1  0.4218190000000  0.5187080000000  0.4596830000000 1.0
C      1  0.5771080000000  0.5493240000000  0.5366310000000 1.0
C      1  0.5531520000000  0.5185550000000  0.4940750000000 1.0
C      1  0.5219260000000  0.4871390000000  0.5837970000000 1.0
C      1  0.5772430000000  0.5002500000000  0.4993760000000 1.0
C      1  0.5407950000000  0.4805580000000  0.5110860000000 1.0
C      1  0.4984640000000  0.4775270000000  0.5336200000000 1.0
C      1  0.4496080000000  0.5827120000000  0.5083480000000 1.0
C      1  0.4834220000000  0.5698200000000  0.5398200000000 1.0
C      1  0.5055720000000  0.5351740000000  0.5064960000000 1.0
C      1  0.5661180000000  0.5357020000000  0.5607940000000 1.0
C      1  0.4679180000000  0.4330250000000  0.5331710000000 1.0
C      1  0.4866480000000  0.5239470000000  0.5737480000000 1.0
C      1  0.5418400000000  0.5799110000000  0.4769520000000 1.0
C      1  0.4929140000000  0.5235880000000  0.5298810000000 1.0
C      1  0.5698740000000  0.4899880000000  0.4526890000000 1.0
C      1  0.4890190000000  0.5027210000000  0.4555720000000 1.0
C      1  0.4653810000000  0.5156070000000  0.4907650000000 1.0
C      1  0.5471230000000  0.5319230000000  0.5211900000000 1.0
C      1  0.5413300000000  0.5774100000000  0.5078730000000 1.0
C      1  0.5706720000000  0.5694130000000  0.5157500000000 1.0
C      1  0.4957530000000  0.4424060000000  0.4815680000000 1.0
C      1  0.4358660000000  0.4589200000000  0.5015390000000 1.0
C      1  0.5402920000000  0.4412030000000  0.4057380000000 1.0
C      1  0.5659970000000  0.4930170000000  0.5482460000000 1.0
C      1  0.5098460000000  0.5026140000000  0.5441990000000 1.0
C      1  0.4294280000000  0.4780800000000  0.4459460000000 1.0
C      1  0.4149540000000  0.4911520000000  0.4678940000000 1.0
C      1  0.4442880000000  0.4432290000000  0.4773990000000 1.0
C      1  0.4519140000000  0.4667900000000  0.4606110000000 1.0
C      1  0.5662900000000  0.5357130000000  0.4747470000000 1.0
C      1  0.5388660000000  0.5302490000000  0.5710960000000 1.0
C      1  0.5250940000000  0.4366580000000  0.5311280000000 1.0
C      1  0.5685930000000  0.5650790000000  0.4827820000000 1.0
C      1  0.4232390000000  0.4868260000000  0.5637760000000 1.0
C      1  0.4957500000000  0.4944320000000  0.4097740000000 1.0
C      1  0.5139050000000  0.4708480000000  0.4092500000000 1.0
C      1  0.5397340000000  0.5046970000000  0.5344720000000 1.0
C      1  0.5085070000000  0.4537510000000  0.5488520000000 1.0
C      1  0.4982810000000  0.4249900000000  0.4257250000000 1.0
C      1  0.4390730000000  0.5051780000000  0.4336480000000 1.0
C      1  0.4444100000000  0.5764000000000  0.4588500000000 1.0
C      1  0.5250400000000  0.5536640000000  0.5192530000000 1.0
C      1  0.4375000000000  0.5371730000000  0.5587050000000 1.0
C      1  0.4777890000000  0.4323370000000  0.4431440000000 1.0
END
