TITL C-950536-5891-42 3.49516500107305e-07 125000 -289.799130623273 0 0 48 (C1) n - 1
REM
REM in /home/bkarasulu/work/CARBON/AIRSS/Generating-Clusters/EDIP-Nigel-Params/with-SteepDescent/Only-C1/SD-CG/HFTN-CG
REM
REM
REM
REM
REM
REM ./C.cell (11c1c37f851c82e70ff6c80c92926a4b)
REM
REM compiler GCC version 9.2.1 20190827 (Red Hat 9.2.1-1)
REM options -cpp -mtune=generic -march=x86-64 -g -O0 -fpre-include=/usr/include/finclude/math-vector-fortran.h
REM seed -2008877519 842047734 -685819518 -1728252679 -1102442070 337495434 96741918 -888708185 1414549216 -1637420965 -1428231599 126844983 282136327 -1737697968 1808921117 -1497038104 1434143278 32615525 1015587341 1787566021 1961685245 30757231 1903076299 -1892030279 107208668 -805406643 668833377 -1558413872 -328337427 475900087 178623182 -2131705945 -1036994835
REM
CELL 1.54180   50.00000   50.00000   50.00000   90.00000   90.00000   90.00000
LATT -1
SFAC C  
C      1  0.4387770000000  0.4688610000000  0.5109500000000 1.0
C      1  0.5563900000000  0.5206780000000  0.5120930000000 1.0
C      1  0.4420100000000  0.5170110000000  0.4881520000000 1.0
C      1  0.5433570000000  0.4606560000000  0.5428940000000 1.0
C      1  0.4669000000000  0.5160280000000  0.5537870000000 1.0
C      1  0.4366260000000  0.4833760000000  0.5351430000000 1.0
C      1  0.4953320000000  0.4476980000000  0.4712190000000 1.0
C      1  0.4885870000000  0.4691400000000  0.5478980000000 1.0
C      1  0.5367080000000  0.4394940000000  0.5268440000000 1.0
C      1  0.4645050000000  0.4532480000000  0.5077180000000 1.0
C      1  0.4879510000000  0.4715320000000  0.5184630000000 1.0
C      1  0.4536200000000  0.5063040000000  0.5298700000000 1.0
C      1  0.5330120000000  0.5528350000000  0.4787120000000 1.0
C      1  0.4595100000000  0.5336640000000  0.4682800000000 1.0
C      1  0.4794440000000  0.5534670000000  0.4794020000000 1.0
C      1  0.5022710000000  0.4773320000000  0.4656320000000 1.0
C      1  0.4792620000000  0.5514080000000  0.5090500000000 1.0
C      1  0.5304730000000  0.4443100000000  0.4992580000000 1.0
C      1  0.4765340000000  0.4993150000000  0.5091170000000 1.0
C      1  0.5039060000000  0.5628800000000  0.5445970000000 1.0
C      1  0.5063420000000  0.5475500000000  0.4665060000000 1.0
C      1  0.5494690000000  0.5083780000000  0.5364620000000 1.0
C      1  0.5024710000000  0.5264920000000  0.4458130000000 1.0
C      1  0.4518310000000  0.5524730000000  0.5183190000000 1.0
C      1  0.5223520000000  0.4903940000000  0.4854200000000 1.0
C      1  0.5113240000000  0.4806730000000  0.4380390000000 1.0
C      1  0.4391610000000  0.5280100000000  0.5154530000000 1.0
C      1  0.5539830000000  0.4475360000000  0.4834810000000 1.0
C      1  0.5066370000000  0.4896620000000  0.5544390000000 1.0
C      1  0.5492650000000  0.5084360000000  0.4477140000000 1.0
C      1  0.4752620000000  0.5154590000000  0.4510670000000 1.0
C      1  0.5503240000000  0.4933350000000  0.4726340000000 1.0
C      1  0.4357560000000  0.4860270000000  0.4859540000000 1.0
C      1  0.5159160000000  0.5200990000000  0.4944200000000 1.0
C      1  0.5227040000000  0.5062240000000  0.4387340000000 1.0
C      1  0.5108180000000  0.5363550000000  0.5469190000000 1.0
C      1  0.4946880000000  0.5156010000000  0.5578680000000 1.0
C      1  0.5189390000000  0.4709510000000  0.5088530000000 1.0
C      1  0.4545940000000  0.4735390000000  0.4665890000000 1.0
C      1  0.5646520000000  0.4694300000000  0.4718060000000 1.0
C      1  0.5675210000000  0.5045830000000  0.4915750000000 1.0
C      1  0.4939880000000  0.5730030000000  0.5216630000000 1.0
C      1  0.5346600000000  0.4868640000000  0.5467420000000 1.0
C      1  0.4667120000000  0.4485210000000  0.4782950000000 1.0
C      1  0.5100540000000  0.4289020000000  0.4863240000000 1.0
C      1  0.4943700000000  0.5239370000000  0.5147640000000 1.0
C      1  0.5441810000000  0.5452980000000  0.5035750000000 1.0
C      1  0.4768500000000  0.4930320000000  0.4714960000000 1.0
END
