TITL C-951344-124-576 -9.77447253143647e-08 125000 -62.9043824171302 0 0 12 (C1) n - 1
REM
REM in /home/bkarasulu/work/CARBON/AIRSS/Generating-Clusters/EDIP-Nigel-Params/with-SteepDescent/Only-C1/SD-CG/HFTN-CG
REM
REM
REM
REM
REM
REM ./C.cell (11c1c37f851c82e70ff6c80c92926a4b)
REM
REM compiler GCC version 9.2.1 20190827 (Red Hat 9.2.1-1)
REM options -cpp -mtune=generic -march=x86-64 -g -O0 -fpre-include=/usr/include/finclude/math-vector-fortran.h
REM seed -1643929718 -1153013891 -1707156048 -661956023 1137498759 -474184179 2058535021 1608035087 1616145277 1004694733 -634284300 -1367331107 -1118855627 -1074167216 1870448447 310560012 1235867308 -868627019 -1909092259 -2004605213 1196076764 -650616009 -2030209441 -1554629537 138712337 471188844 -316440233 -1168425137 -1912509502 -763951983 981844557 -1712421506 -1566928231
REM
CELL 1.54180   50.00000   50.00000   50.00000   90.00000   90.00000   90.00000
LATT -1
SFAC C  
C      1  0.5409550000000  0.5243720000000  0.5189810000000 1.0
C      1  0.4739120000000  0.5067260000000  0.4966820000000 1.0
C      1  0.5803660000000  0.5512480000000  0.5395600000000 1.0
C      1  0.4620760000000  0.4571470000000  0.4707310000000 1.0
C      1  0.4699390000000  0.5325100000000  0.5010520000000 1.0
C      1  0.5047510000000  0.4705160000000  0.4889540000000 1.0
C      1  0.4534660000000  0.4922380000000  0.4828530000000 1.0
C      1  0.4437530000000  0.4669570000000  0.4890090000000 1.0
C      1  0.5206690000000  0.5106360000000  0.5090540000000 1.0
C      1  0.5608410000000  0.5379850000000  0.5297240000000 1.0
C      1  0.4885610000000  0.4529530000000  0.4769190000000 1.0
C      1  0.5007120000000  0.4967130000000  0.4964810000000 1.0
END
