TITL C-951346-9544-639 -2.71527476452276e-06 125000 -885.842439004589 0 0 142 (C1) n - 1
REM
REM in /home/bkarasulu/work/CARBON/AIRSS/Generating-Clusters/EDIP-Nigel-Params/with-SteepDescent/Only-C1/SD-CG/HFTN-CG
REM
REM
REM
REM
REM
REM ./C.cell (11c1c37f851c82e70ff6c80c92926a4b)
REM
REM compiler GCC version 9.2.1 20190827 (Red Hat 9.2.1-1)
REM options -cpp -mtune=generic -march=x86-64 -g -O0 -fpre-include=/usr/include/finclude/math-vector-fortran.h
REM seed 117789085 -338365512 -1190459181 1738259365 -176932483 -1885179806 -851148558 -659866717 -1700015089 -111049588 -1069623771 531916993 308809326 -759828773 -1665282358 1403395173 1804006530 832528720 1959065869 -1700035164 402757199 204451517 -864843189 -1484211609 2082604853 1128586157 -254465468 -1348990680 750794424 -751429873 1969184062 2103719140 1910603883
REM
CELL 1.54180   50.00000   50.00000   50.00000   90.00000   90.00000   90.00000
LATT -1
SFAC C  
C      1  0.5996920000000  0.5122170000000  0.5285740000000 1.0
C      1  0.5775390000000  0.4618470000000  0.5370020000000 1.0
C      1  0.5676700000000  0.4641330000000  0.4634960000000 1.0
C      1  0.4823460000000  0.4513730000000  0.4699260000000 1.0
C      1  0.4556950000000  0.4959540000000  0.5866570000000 1.0
C      1  0.5092330000000  0.4115470000000  0.4683580000000 1.0
C      1  0.4950580000000  0.5531820000000  0.5150810000000 1.0
C      1  0.4700480000000  0.4464630000000  0.4165200000000 1.0
C      1  0.5934750000000  0.5590720000000  0.5224800000000 1.0
C      1  0.5166030000000  0.5331570000000  0.5006880000000 1.0
C      1  0.4009000000000  0.4842150000000  0.4971490000000 1.0
C      1  0.5335280000000  0.4588740000000  0.5592330000000 1.0
C      1  0.4107820000000  0.5053310000000  0.4540950000000 1.0
C      1  0.4394910000000  0.5563330000000  0.5242670000000 1.0
C      1  0.4756950000000  0.5871380000000  0.5392780000000 1.0
C      1  0.4796140000000  0.5005060000000  0.5088570000000 1.0
C      1  0.5008870000000  0.4120970000000  0.5180130000000 1.0
C      1  0.5659830000000  0.5830690000000  0.4923190000000 1.0
C      1  0.4211150000000  0.4420840000000  0.5398920000000 1.0
C      1  0.4256140000000  0.5312790000000  0.4529040000000 1.0
C      1  0.4426510000000  0.3958970000000  0.5020690000000 1.0
C      1  0.5703850000000  0.5755120000000  0.5192980000000 1.0
C      1  0.4685220000000  0.5296310000000  0.4741270000000 1.0
C      1  0.4157740000000  0.4921980000000  0.5469030000000 1.0
C      1  0.5493980000000  0.4946450000000  0.4049390000000 1.0
C      1  0.5434430000000  0.5280660000000  0.5143320000000 1.0
C      1  0.5757560000000  0.5376410000000  0.5642450000000 1.0
C      1  0.4972400000000  0.4987790000000  0.3951310000000 1.0
C      1  0.5310150000000  0.5331680000000  0.4164680000000 1.0
C      1  0.3967690000000  0.5320120000000  0.4907130000000 1.0
C      1  0.4198570000000  0.4101330000000  0.5042460000000 1.0
C      1  0.4034970000000  0.4556460000000  0.4894210000000 1.0
C      1  0.5817090000000  0.4929150000000  0.5431030000000 1.0
C      1  0.4732050000000  0.5124740000000  0.4020890000000 1.0
C      1  0.5114080000000  0.5909690000000  0.4769170000000 1.0
C      1  0.5976240000000  0.5271430000000  0.4540020000000 1.0
C      1  0.5030970000000  0.5226740000000  0.4314940000000 1.0
C      1  0.4119760000000  0.4358530000000  0.5120740000000 1.0
C      1  0.4824750000000  0.5687700000000  0.4464820000000 1.0
C      1  0.4429840000000  0.5621240000000  0.4955860000000 1.0
C      1  0.4549070000000  0.5294080000000  0.4466540000000 1.0
C      1  0.4625010000000  0.5051230000000  0.4291640000000 1.0
C      1  0.5083880000000  0.5025240000000  0.4971440000000 1.0
C      1  0.4203110000000  0.5464790000000  0.4781100000000 1.0
C      1  0.5180870000000  0.5371790000000  0.5950790000000 1.0
C      1  0.4401830000000  0.5213350000000  0.5966560000000 1.0
C      1  0.4631450000000  0.5430910000000  0.5971400000000 1.0
C      1  0.4525090000000  0.4299180000000  0.4313150000000 1.0
C      1  0.4990550000000  0.4216330000000  0.5620310000000 1.0
C      1  0.5292470000000  0.4611930000000  0.4713160000000 1.0
C      1  0.4274820000000  0.5352630000000  0.5724460000000 1.0
C      1  0.4872100000000  0.4711910000000  0.5513120000000 1.0
C      1  0.4430350000000  0.4845530000000  0.4265300000000 1.0
C      1  0.4592660000000  0.5633670000000  0.5451510000000 1.0
C      1  0.5724420000000  0.5083180000000  0.5663200000000 1.0
C      1  0.5020580000000  0.5886090000000  0.5523100000000 1.0
C      1  0.5043710000000  0.4941110000000  0.5603530000000 1.0
C      1  0.5342240000000  0.5900110000000  0.4592800000000 1.0
C      1  0.4882910000000  0.4383010000000  0.5844750000000 1.0
C      1  0.4503610000000  0.4833300000000  0.4768480000000 1.0
C      1  0.3937620000000  0.5051540000000  0.4778210000000 1.0
C      1  0.5044520000000  0.4421640000000  0.5148150000000 1.0
C      1  0.4914380000000  0.4016790000000  0.4907030000000 1.0
C      1  0.4835820000000  0.5898320000000  0.5117810000000 1.0
C      1  0.5286060000000  0.5360990000000  0.5577320000000 1.0
C      1  0.5504020000000  0.5584040000000  0.5641670000000 1.0
C      1  0.5916920000000  0.5270040000000  0.5010890000000 1.0
C      1  0.5054390000000  0.5507080000000  0.4481740000000 1.0
C      1  0.4672990000000  0.4525400000000  0.5669920000000 1.0
C      1  0.5568980000000  0.4429590000000  0.5491340000000 1.0
C      1  0.5206370000000  0.4584870000000  0.4117770000000 1.0
C      1  0.4342030000000  0.5159820000000  0.5498720000000 1.0
C      1  0.5071710000000  0.4416360000000  0.4586000000000 1.0
C      1  0.4869230000000  0.5199240000000  0.5608750000000 1.0
C      1  0.5592140000000  0.5215500000000  0.4173830000000 1.0
C      1  0.5352240000000  0.4024690000000  0.4725150000000 1.0
C      1  0.4780640000000  0.5404280000000  0.4082410000000 1.0
C      1  0.5817800000000  0.4696280000000  0.4891070000000 1.0
C      1  0.5300590000000  0.4893910000000  0.5428530000000 1.0
C      1  0.5513880000000  0.5141790000000  0.4668200000000 1.0
C      1  0.5617110000000  0.4367310000000  0.4553030000000 1.0
C      1  0.5442960000000  0.5160350000000  0.5421970000000 1.0
C      1  0.5241400000000  0.5612290000000  0.4254590000000 1.0
C      1  0.5772480000000  0.4813660000000  0.4414640000000 1.0
C      1  0.5217130000000  0.4917440000000  0.4680360000000 1.0
C      1  0.5473110000000  0.5435970000000  0.4638270000000 1.0
C      1  0.5727110000000  0.5106490000000  0.4449560000000 1.0
C      1  0.4467450000000  0.4567530000000  0.4951170000000 1.0
C      1  0.4571930000000  0.4353490000000  0.4761030000000 1.0
C      1  0.4153440000000  0.4536180000000  0.4592620000000 1.0
C      1  0.4669300000000  0.4524040000000  0.5162610000000 1.0
C      1  0.5023090000000  0.5713950000000  0.5749490000000 1.0
C      1  0.5268250000000  0.5653090000000  0.5898800000000 1.0
C      1  0.5109640000000  0.4560540000000  0.5906910000000 1.0
C      1  0.4288820000000  0.4813120000000  0.4532720000000 1.0
C      1  0.5456690000000  0.5777080000000  0.4358390000000 1.0
C      1  0.5633150000000  0.5161790000000  0.4955640000000 1.0
C      1  0.5495880000000  0.5768420000000  0.5399300000000 1.0
C      1  0.5225540000000  0.5839090000000  0.5319500000000 1.0
C      1  0.4336580000000  0.5273480000000  0.5210750000000 1.0
C      1  0.5076040000000  0.4481700000000  0.5455780000000 1.0
C      1  0.5205570000000  0.4868830000000  0.4064810000000 1.0
C      1  0.6092960000000  0.5212510000000  0.4789430000000 1.0
C      1  0.5550170000000  0.4351470000000  0.5039420000000 1.0
C      1  0.5117020000000  0.5928020000000  0.5062050000000 1.0
C      1  0.5882850000000  0.5552610000000  0.4545260000000 1.0
C      1  0.5208070000000  0.5477630000000  0.4744240000000 1.0
C      1  0.4441890000000  0.4676480000000  0.5792890000000 1.0
C      1  0.4847810000000  0.4977350000000  0.6019480000000 1.0
C      1  0.4487500000000  0.5576160000000  0.5727270000000 1.0
C      1  0.4764330000000  0.4782840000000  0.4615090000000 1.0
C      1  0.5463210000000  0.4500120000000  0.4230550000000 1.0
C      1  0.5267490000000  0.4040770000000  0.5283250000000 1.0
C      1  0.4971540000000  0.4563630000000  0.4290290000000 1.0
C      1  0.4603590000000  0.5060620000000  0.5588310000000 1.0
C      1  0.5672460000000  0.5560320000000  0.4330860000000 1.0
C      1  0.5968610000000  0.5389700000000  0.5430390000000 1.0
C      1  0.5003240000000  0.4914820000000  0.4455310000000 1.0
C      1  0.4794850000000  0.4119230000000  0.5415040000000 1.0
C      1  0.4628580000000  0.4081700000000  0.4870590000000 1.0
C      1  0.4633710000000  0.5531500000000  0.4303210000000 1.0
C      1  0.5703240000000  0.5582410000000  0.4785930000000 1.0
C      1  0.4718760000000  0.5565630000000  0.4877230000000 1.0
C      1  0.5673940000000  0.4897390000000  0.5015920000000 1.0
C      1  0.4586250000000  0.4351180000000  0.5412420000000 1.0
C      1  0.4228650000000  0.4659260000000  0.5576820000000 1.0
C      1  0.5644070000000  0.4721190000000  0.4169900000000 1.0
C      1  0.4033360000000  0.5244360000000  0.5182400000000 1.0
C      1  0.5500540000000  0.4201170000000  0.5291720000000 1.0
C      1  0.5256460000000  0.4836260000000  0.5138510000000 1.0
C      1  0.4557800000000  0.5106860000000  0.4940660000000 1.0
C      1  0.4526520000000  0.4665270000000  0.4071730000000 1.0
C      1  0.4725090000000  0.4784430000000  0.5267170000000 1.0
C      1  0.5296710000000  0.4557030000000  0.5014770000000 1.0
C      1  0.5810930000000  0.4489680000000  0.5096060000000 1.0
C      1  0.5084330000000  0.4850250000000  0.5886940000000 1.0
C      1  0.5562110000000  0.4195790000000  0.4777760000000 1.0
C      1  0.4837110000000  0.5873020000000  0.4680550000000 1.0
C      1  0.3975210000000  0.4956560000000  0.5239180000000 1.0
C      1  0.4891580000000  0.5270600000000  0.5908610000000 1.0
C      1  0.4368760000000  0.4323190000000  0.4546170000000 1.0
C      1  0.4995430000000  0.5452370000000  0.5469560000000 1.0
END
