TITL C-950531-5884-257 6.89721989389531e-07 125000 -282.438857922047 0 0 47 (C1) n - 1
REM
REM in /home/bkarasulu/work/CARBON/AIRSS/Generating-Clusters/EDIP-Nigel-Params/with-SteepDescent/Only-C1/SD-CG/HFTN-CG
REM
REM
REM
REM
REM
REM ./C.cell (11c1c37f851c82e70ff6c80c92926a4b)
REM
REM compiler GCC version 9.2.1 20190827 (Red Hat 9.2.1-1)
REM options -cpp -mtune=generic -march=x86-64 -g -O0 -fpre-include=/usr/include/finclude/math-vector-fortran.h
REM seed 1713792286 -2105904968 -1638538181 -1445047207 1274968362 419500170 1496580861 -514739725 -84495936 -1218970871 1579267993 -1932928558 2062490984 -657841263 -242878840 1548925920 -365319394 1184976274 1533466839 676222051 -129415870 -1008171800 1266580753 762570399 -518056277 -987563492 994735582 -1021876001 -1466741917 158743245 -1519972774 588421329 -659673646
REM
CELL 1.54180   50.00000   50.00000   50.00000   90.00000   90.00000   90.00000
LATT -1
SFAC C  
C      1  0.5434920000000  0.5051890000000  0.4858050000000 1.0
C      1  0.4899120000000  0.5602610000000  0.4616010000000 1.0
C      1  0.4299530000000  0.5336800000000  0.4807620000000 1.0
C      1  0.5658030000000  0.4520390000000  0.5105430000000 1.0
C      1  0.4412540000000  0.4581090000000  0.4920250000000 1.0
C      1  0.5605920000000  0.5084300000000  0.5107650000000 1.0
C      1  0.4555530000000  0.4792640000000  0.5329060000000 1.0
C      1  0.5104040000000  0.5553960000000  0.5098270000000 1.0
C      1  0.4996860000000  0.4382300000000  0.4820760000000 1.0
C      1  0.5240640000000  0.5321100000000  0.5508490000000 1.0
C      1  0.4535420000000  0.5201190000000  0.4413640000000 1.0
C      1  0.4813290000000  0.4676550000000  0.4485880000000 1.0
C      1  0.4860320000000  0.5017870000000  0.4807150000000 1.0
C      1  0.5040820000000  0.5662630000000  0.4842580000000 1.0
C      1  0.5344530000000  0.5454010000000  0.5260770000000 1.0
C      1  0.5073380000000  0.5143030000000  0.4966370000000 1.0
C      1  0.4396160000000  0.5126120000000  0.4642730000000 1.0
C      1  0.4940890000000  0.5351420000000  0.5492310000000 1.0
C      1  0.4566950000000  0.5054090000000  0.4891890000000 1.0
C      1  0.4616180000000  0.5536510000000  0.5179230000000 1.0
C      1  0.4979150000000  0.5411710000000  0.4423070000000 1.0
C      1  0.5299180000000  0.5309580000000  0.4781370000000 1.0
C      1  0.4536800000000  0.4414360000000  0.4752980000000 1.0
C      1  0.5480200000000  0.4466430000000  0.4893400000000 1.0
C      1  0.5237440000000  0.5332070000000  0.4504710000000 1.0
C      1  0.5148490000000  0.4942980000000  0.5175870000000 1.0
C      1  0.4789500000000  0.4448730000000  0.4647070000000 1.0
C      1  0.5523450000000  0.4606060000000  0.4658540000000 1.0
C      1  0.5425710000000  0.4918360000000  0.5290220000000 1.0
C      1  0.4809150000000  0.5170050000000  0.4365570000000 1.0
C      1  0.5142710000000  0.4862940000000  0.5658410000000 1.0
C      1  0.5208020000000  0.4450440000000  0.4990190000000 1.0
C      1  0.5485670000000  0.4613710000000  0.5310830000000 1.0
C      1  0.4420740000000  0.5421560000000  0.5037740000000 1.0
C      1  0.4556400000000  0.5022030000000  0.5492830000000 1.0
C      1  0.4875050000000  0.5520790000000  0.5270270000000 1.0
C      1  0.5362430000000  0.5043560000000  0.5568110000000 1.0
C      1  0.5015220000000  0.4544190000000  0.5490120000000 1.0
C      1  0.4927020000000  0.4938660000000  0.4524320000000 1.0
C      1  0.5597600000000  0.5357360000000  0.5177060000000 1.0
C      1  0.4457040000000  0.4820140000000  0.5053750000000 1.0
C      1  0.5225880000000  0.4462760000000  0.5287280000000 1.0
C      1  0.4736710000000  0.5191580000000  0.5610040000000 1.0
C      1  0.5440560000000  0.4867950000000  0.4622730000000 1.0
C      1  0.5212680000000  0.4912420000000  0.4465560000000 1.0
C      1  0.4743790000000  0.4580350000000  0.5380240000000 1.0
C      1  0.4968340000000  0.4918730000000  0.5413620000000 1.0
END
