TITL C-951338-5626-239 -1.9443295988097e-06 125000 -951.249616724266 0 0 152 (C1) n - 1
REM
REM in /home/bkarasulu/work/CARBON/AIRSS/Generating-Clusters/EDIP-Nigel-Params/with-SteepDescent/Only-C1/SD-CG/HFTN-CG
REM
REM
REM
REM
REM
REM ./C.cell (11c1c37f851c82e70ff6c80c92926a4b)
REM
REM compiler GCC version 9.2.1 20190827 (Red Hat 9.2.1-1)
REM options -cpp -mtune=generic -march=x86-64 -g -O0 -fpre-include=/usr/include/finclude/math-vector-fortran.h
REM seed 1642241262 853601958 -2130653422 1348903207 -927557704 -186997777 492064902 -3062754 -2005461749 251090816 -604460580 -748869844 -1995327252 -1830487890 891997116 -1606692781 -1177669629 -1373156840 361617415 1343322412 148745967 687321470 149494406 -1634099299 633521248 -1986620987 -64209396 -406057102 1658557226 1493887827 1878205814 -103920726 836802545
REM
CELL 1.54180   50.00000   50.00000   50.00000   90.00000   90.00000   90.00000
LATT -1
SFAC C  
C      1  0.5140350000000  0.5767400000000  0.4497550000000 1.0
C      1  0.4491260000000  0.4195160000000  0.4526710000000 1.0
C      1  0.4985060000000  0.4810270000000  0.4482840000000 1.0
C      1  0.5050360000000  0.3874950000000  0.4864910000000 1.0
C      1  0.4197850000000  0.5236930000000  0.4806750000000 1.0
C      1  0.4947460000000  0.4754190000000  0.4980170000000 1.0
C      1  0.4732990000000  0.5780850000000  0.5722580000000 1.0
C      1  0.5284500000000  0.5831250000000  0.5343370000000 1.0
C      1  0.4988270000000  0.4954560000000  0.5546400000000 1.0
C      1  0.4257480000000  0.5620380000000  0.4510380000000 1.0
C      1  0.5547710000000  0.4309380000000  0.5616670000000 1.0
C      1  0.4486150000000  0.5683050000000  0.4683030000000 1.0
C      1  0.5307520000000  0.4523200000000  0.4831710000000 1.0
C      1  0.4737360000000  0.3916450000000  0.4941410000000 1.0
C      1  0.4993380000000  0.5127410000000  0.3942130000000 1.0
C      1  0.5226520000000  0.4766500000000  0.5535290000000 1.0
C      1  0.6019210000000  0.4532130000000  0.5129560000000 1.0
C      1  0.5048710000000  0.4375600000000  0.4236600000000 1.0
C      1  0.4787520000000  0.4223250000000  0.5674790000000 1.0
C      1  0.4578330000000  0.4135190000000  0.5488740000000 1.0
C      1  0.4525500000000  0.5493210000000  0.4132090000000 1.0
C      1  0.5623440000000  0.4999430000000  0.4396560000000 1.0
C      1  0.5522100000000  0.5782790000000  0.5553100000000 1.0
C      1  0.4682940000000  0.5133490000000  0.4376890000000 1.0
C      1  0.4319320000000  0.5400280000000  0.5552120000000 1.0
C      1  0.5878220000000  0.4602820000000  0.4911940000000 1.0
C      1  0.4506270000000  0.4959890000000  0.5149000000000 1.0
C      1  0.5627460000000  0.4867440000000  0.4151950000000 1.0
C      1  0.5450000000000  0.4679550000000  0.5946780000000 1.0
C      1  0.4993540000000  0.5431840000000  0.5927060000000 1.0
C      1  0.4525120000000  0.4691290000000  0.5275360000000 1.0
C      1  0.4925260000000  0.5526500000000  0.4923870000000 1.0
C      1  0.5091300000000  0.5486980000000  0.4607500000000 1.0
C      1  0.5832390000000  0.5424580000000  0.4472540000000 1.0
C      1  0.5985190000000  0.4982100000000  0.5310590000000 1.0
C      1  0.4870700000000  0.5837270000000  0.4365020000000 1.0
C      1  0.5755600000000  0.5367890000000  0.5594220000000 1.0
C      1  0.5295350000000  0.5171240000000  0.5092590000000 1.0
C      1  0.5562890000000  0.5787910000000  0.4608410000000 1.0
C      1  0.5162150000000  0.5684790000000  0.5887140000000 1.0
C      1  0.4193360000000  0.4403800000000  0.5306350000000 1.0
C      1  0.4753380000000  0.4058570000000  0.5206200000000 1.0
C      1  0.4793530000000  0.4882730000000  0.4245130000000 1.0
C      1  0.5852590000000  0.4952650000000  0.4579290000000 1.0
C      1  0.4551960000000  0.5844690000000  0.5494220000000 1.0
C      1  0.5842600000000  0.5079380000000  0.5054410000000 1.0
C      1  0.4798750000000  0.4660950000000  0.5471140000000 1.0
C      1  0.4793170000000  0.5586030000000  0.4212690000000 1.0
C      1  0.4953800000000  0.5118610000000  0.5288590000000 1.0
C      1  0.5878180000000  0.5559300000000  0.4936350000000 1.0
C      1  0.4764000000000  0.5128750000000  0.4808290000000 1.0
C      1  0.4679820000000  0.5434140000000  0.4760930000000 1.0
C      1  0.5030960000000  0.4001190000000  0.5319470000000 1.0
C      1  0.3962800000000  0.5267010000000  0.5234030000000 1.0
C      1  0.5085320000000  0.5482750000000  0.5500140000000 1.0
C      1  0.5244240000000  0.4751440000000  0.5016510000000 1.0
C      1  0.5732750000000  0.5607680000000  0.5423080000000 1.0
C      1  0.4483870000000  0.5091420000000  0.3851910000000 1.0
C      1  0.4602510000000  0.5058570000000  0.5738710000000 1.0
C      1  0.5434650000000  0.4683720000000  0.4148610000000 1.0
C      1  0.5862520000000  0.5097380000000  0.5552700000000 1.0
C      1  0.5507620000000  0.4396120000000  0.5326270000000 1.0
C      1  0.4321560000000  0.4753220000000  0.4155040000000 1.0
C      1  0.5574180000000  0.5106890000000  0.5927780000000 1.0
C      1  0.4708420000000  0.5510870000000  0.5844190000000 1.0
C      1  0.5772420000000  0.4932670000000  0.5782960000000 1.0
C      1  0.5131290000000  0.5206690000000  0.5746170000000 1.0
C      1  0.4315540000000  0.4972180000000  0.4904600000000 1.0
C      1  0.5359790000000  0.5705090000000  0.4300600000000 1.0
C      1  0.4309860000000  0.5663970000000  0.5422710000000 1.0
C      1  0.5394710000000  0.5421530000000  0.4191600000000 1.0
C      1  0.5557860000000  0.5295290000000  0.4420410000000 1.0
C      1  0.4422800000000  0.5248080000000  0.4282290000000 1.0
C      1  0.5548090000000  0.4402950000000  0.4707370000000 1.0
C      1  0.5654100000000  0.5527880000000  0.5145190000000 1.0
C      1  0.5176760000000  0.5461420000000  0.5123810000000 1.0
C      1  0.4524850000000  0.4944700000000  0.4688330000000 1.0
C      1  0.4086940000000  0.5409510000000  0.5025530000000 1.0
C      1  0.4351200000000  0.4471430000000  0.4587590000000 1.0
C      1  0.4877580000000  0.4631830000000  0.4706080000000 1.0
C      1  0.4573450000000  0.4640880000000  0.4728410000000 1.0
C      1  0.4169810000000  0.5194310000000  0.5405260000000 1.0
C      1  0.4968970000000  0.3994480000000  0.4575940000000 1.0
C      1  0.6005090000000  0.5289970000000  0.4906310000000 1.0
C      1  0.5198790000000  0.4036390000000  0.5085710000000 1.0
C      1  0.5438960000000  0.4200190000000  0.4501350000000 1.0
C      1  0.4213780000000  0.4630010000000  0.4382220000000 1.0
C      1  0.5475140000000  0.4137230000000  0.5148240000000 1.0
C      1  0.4712190000000  0.4109210000000  0.4706110000000 1.0
C      1  0.5017190000000  0.5052020000000  0.4658520000000 1.0
C      1  0.4369520000000  0.5806470000000  0.4931530000000 1.0
C      1  0.4791940000000  0.5035430000000  0.5936680000000 1.0
C      1  0.4829470000000  0.4336190000000  0.5069270000000 1.0
C      1  0.4800940000000  0.4283280000000  0.4112160000000 1.0
C      1  0.4986360000000  0.4455110000000  0.5325240000000 1.0
C      1  0.4116800000000  0.4739800000000  0.4953860000000 1.0
C      1  0.5712490000000  0.4684820000000  0.5488100000000 1.0
C      1  0.5041270000000  0.4222960000000  0.5521140000000 1.0
C      1  0.5812080000000  0.5652520000000  0.4655530000000 1.0
C      1  0.4680450000000  0.4487050000000  0.3960290000000 1.0
C      1  0.4746950000000  0.4514860000000  0.5743260000000 1.0
C      1  0.5025850000000  0.5770960000000  0.5632860000000 1.0
C      1  0.5017850000000  0.5981020000000  0.5245770000000 1.0
C      1  0.5258260000000  0.4598010000000  0.5292130000000 1.0
C      1  0.4753400000000  0.5570220000000  0.5172900000000 1.0
C      1  0.5444860000000  0.5634830000000  0.5807650000000 1.0
C      1  0.4248590000000  0.5342040000000  0.4524710000000 1.0
C      1  0.5683880000000  0.4552140000000  0.5777700000000 1.0
C      1  0.5155690000000  0.4653780000000  0.4152880000000 1.0
C      1  0.4268600000000  0.5618800000000  0.5127670000000 1.0
C      1  0.5544080000000  0.5358410000000  0.5785010000000 1.0
C      1  0.5054260000000  0.4386180000000  0.4758180000000 1.0
C      1  0.5283960000000  0.5077610000000  0.4798780000000 1.0
C      1  0.4971130000000  0.4608890000000  0.5933530000000 1.0
C      1  0.5270870000000  0.4293280000000  0.5707000000000 1.0
C      1  0.4753120000000  0.6063870000000  0.4820090000000 1.0
C      1  0.5589530000000  0.5230890000000  0.5145970000000 1.0
C      1  0.5137840000000  0.4232150000000  0.4493700000000 1.0
C      1  0.4566220000000  0.5995180000000  0.5035560000000 1.0
C      1  0.5786920000000  0.4858540000000  0.4850620000000 1.0
C      1  0.5360280000000  0.5329880000000  0.4652620000000 1.0
C      1  0.4610570000000  0.4160830000000  0.4276410000000 1.0
C      1  0.4202220000000  0.4912940000000  0.5468930000000 1.0
C      1  0.5226300000000  0.4580840000000  0.5779380000000 1.0
C      1  0.4714310000000  0.5236480000000  0.3922080000000 1.0
C      1  0.4561360000000  0.4496360000000  0.5034700000000 1.0
C      1  0.4314770000000  0.5047230000000  0.4078570000000 1.0
C      1  0.5006530000000  0.4885560000000  0.6024260000000 1.0
C      1  0.5563170000000  0.4013600000000  0.4683770000000 1.0
C      1  0.5019290000000  0.4831400000000  0.3941840000000 1.0
C      1  0.5408130000000  0.5856950000000  0.4839500000000 1.0
C      1  0.4406390000000  0.4853030000000  0.5667240000000 1.0
C      1  0.4600940000000  0.5331650000000  0.5630180000000 1.0
C      1  0.4451460000000  0.4569290000000  0.5733500000000 1.0
C      1  0.4820080000000  0.5376070000000  0.5389530000000 1.0
C      1  0.5991200000000  0.5218490000000  0.4615550000000 1.0
C      1  0.5014280000000  0.6029500000000  0.4950040000000 1.0
C      1  0.4922110000000  0.5361690000000  0.4356180000000 1.0
C      1  0.4167460000000  0.4464510000000  0.4828740000000 1.0
C      1  0.4306680000000  0.4316950000000  0.5046160000000 1.0
C      1  0.4661400000000  0.5910130000000  0.4573030000000 1.0
C      1  0.5134750000000  0.5251800000000  0.4176970000000 1.0
C      1  0.4381520000000  0.4355550000000  0.5524430000000 1.0
C      1  0.5981710000000  0.4688950000000  0.5357600000000 1.0
C      1  0.4135780000000  0.4693650000000  0.5258610000000 1.0
C      1  0.4791570000000  0.4991560000000  0.5074420000000 1.0
C      1  0.5241030000000  0.6074740000000  0.4798780000000 1.0
C      1  0.5318510000000  0.4966500000000  0.5990790000000 1.0
C      1  0.4598410000000  0.4671320000000  0.4164460000000 1.0
C      1  0.5391860000000  0.5678440000000  0.5090010000000 1.0
C      1  0.4725980000000  0.5857400000000  0.5249320000000 1.0
C      1  0.5660370000000  0.4114270000000  0.4930990000000 1.0
END
