TITL C-951348-1603-98 0.000361592153462258 125000 -115.911481525275 0 0 21 (C1) n - 1
REM
REM in /home/bkarasulu/work/CARBON/AIRSS/Generating-Clusters/EDIP-Nigel-Params/with-SteepDescent/Only-C1/SD-CG/HFTN-CG
REM
REM
REM
REM
REM
REM ./C.cell (11c1c37f851c82e70ff6c80c92926a4b)
REM
REM compiler GCC version 9.2.1 20190827 (Red Hat 9.2.1-1)
REM options -cpp -mtune=generic -march=x86-64 -g -O0 -fpre-include=/usr/include/finclude/math-vector-fortran.h
REM seed -1506016718 416706303 931259179 1395153611 476186697 -698935942 -1331130186 -1634126618 -696045471 -1856920056 517379260 1685500426 -1504793944 -2091299200 -554726515 1227437615 -324729212 -551559514 975980618 2002064379 1011451744 -1948698865 38975369 -698247448 1763198501 1666131853 1159610314 908095225 -496710392 -500509699 -1458660747 532874045 -2056301543
REM
CELL 1.54180   50.00000   50.00000   50.00000   90.00000   90.00000   90.00000
LATT -1
SFAC C  
C      1  0.5139120000000  0.4993100000000  0.4424470000000 1.0
C      1  0.4911070000000  0.5554520000000  0.5248490000000 1.0
C      1  0.5110920000000  0.4743210000000  0.4540070000000 1.0
C      1  0.5387830000000  0.5280150000000  0.5737890000000 1.0
C      1  0.5219190000000  0.5268670000000  0.5522210000000 1.0
C      1  0.4752330000000  0.5386690000000  0.5096240000000 1.0
C      1  0.5075530000000  0.5028060000000  0.5469850000000 1.0
C      1  0.4871610000000  0.4903490000000  0.5050580000000 1.0
C      1  0.5000000000000  0.5225430000000  0.4437570000000 1.0
C      1  0.4676570000000  0.4707150000000  0.4632260000000 1.0
C      1  0.4927530000000  0.4046470000000  0.4497130000000 1.0
C      1  0.5101610000000  0.5500300000000  0.5428800000000 1.0
C      1  0.4882210000000  0.4572950000000  0.4488240000000 1.0
C      1  0.4910160000000  0.4301300000000  0.4515680000000 1.0
C      1  0.5108190000000  0.4793480000000  0.5167370000000 1.0
C      1  0.4850150000000  0.4918820000000  0.4751830000000 1.0
C      1  0.4753530000000  0.5120870000000  0.5178650000000 1.0
C      1  0.4811010000000  0.5195110000000  0.4640690000000 1.0
C      1  0.4765210000000  0.5403080000000  0.4819940000000 1.0
C      1  0.5174810000000  0.4772370000000  0.5435720000000 1.0
C      1  0.5571420000000  0.5284770000000  0.5916330000000 1.0
END
