TITL C-951333-8791-598 -2.76411190280855e-06 125000 -1157.7978159677 0 0 186 (C1) n - 1
REM
REM in /home/bkarasulu/work/CARBON/AIRSS/Generating-Clusters/EDIP-Nigel-Params/with-SteepDescent/Only-C1/SD-CG/HFTN-CG
REM
REM
REM
REM
REM
REM ./C.cell (11c1c37f851c82e70ff6c80c92926a4b)
REM
REM compiler GCC version 9.2.1 20190827 (Red Hat 9.2.1-1)
REM options -cpp -mtune=generic -march=x86-64 -g -O0 -fpre-include=/usr/include/finclude/math-vector-fortran.h
REM seed -453894505 1873810510 -1738936049 515543441 -1216112284 560424593 -1024499179 -228269797 -1292191507 1066971265 392480473 -186420843 -723789367 -1894073812 1054243916 -1174442346 212753858 -1607908865 1394620443 1716841144 1694493116 1060801776 1479667300 -352530653 -189914360 -751680213 -977283255 -1986878739 -2025746029 -343171185 1275176266 -1690929985 -1183743322
REM
CELL 1.54180   50.00000   50.00000   50.00000   90.00000   90.00000   90.00000
LATT -1
SFAC C  
C      1  0.5677980000000  0.4570610000000  0.5866480000000 1.0
C      1  0.5626900000000  0.4837400000000  0.5982970000000 1.0
C      1  0.6200160000000  0.5345640000000  0.4884820000000 1.0
C      1  0.6029310000000  0.4955420000000  0.4592560000000 1.0
C      1  0.4893620000000  0.5588140000000  0.5217200000000 1.0
C      1  0.5511380000000  0.4869640000000  0.4132510000000 1.0
C      1  0.5739490000000  0.4495490000000  0.5381130000000 1.0
C      1  0.4470660000000  0.4534140000000  0.4468130000000 1.0
C      1  0.4444250000000  0.4098610000000  0.4619020000000 1.0
C      1  0.5679660000000  0.5577230000000  0.5251510000000 1.0
C      1  0.5093320000000  0.6108380000000  0.4967790000000 1.0
C      1  0.4405040000000  0.4197170000000  0.5535610000000 1.0
C      1  0.5147140000000  0.4236960000000  0.4258470000000 1.0
C      1  0.4927250000000  0.4454390000000  0.5781860000000 1.0
C      1  0.4659270000000  0.4592740000000  0.4867560000000 1.0
C      1  0.4238230000000  0.5735990000000  0.4838520000000 1.0
C      1  0.5508060000000  0.5691610000000  0.4295460000000 1.0
C      1  0.5610850000000  0.4015810000000  0.5392920000000 1.0
C      1  0.6125890000000  0.5574310000000  0.5025940000000 1.0
C      1  0.4280940000000  0.4352340000000  0.4611060000000 1.0
C      1  0.6286960000000  0.5128830000000  0.5066890000000 1.0
C      1  0.4497630000000  0.5026670000000  0.5977580000000 1.0
C      1  0.5964830000000  0.4935030000000  0.5174590000000 1.0
C      1  0.5410750000000  0.5130370000000  0.5222590000000 1.0
C      1  0.4663660000000  0.4577290000000  0.5896430000000 1.0
C      1  0.5115640000000  0.5612480000000  0.5409000000000 1.0
C      1  0.5220830000000  0.5399630000000  0.5577520000000 1.0
C      1  0.4756780000000  0.5939330000000  0.4685970000000 1.0
C      1  0.4510610000000  0.5321130000000  0.4664320000000 1.0
C      1  0.4067430000000  0.4649160000000  0.4241230000000 1.0
C      1  0.5589470000000  0.5073280000000  0.4997760000000 1.0
C      1  0.4912850000000  0.5976520000000  0.5561650000000 1.0
C      1  0.4465420000000  0.5799520000000  0.5424690000000 1.0
C      1  0.5676960000000  0.4926280000000  0.5614150000000 1.0
C      1  0.5294270000000  0.4477120000000  0.5076660000000 1.0
C      1  0.5201340000000  0.5875590000000  0.5507170000000 1.0
C      1  0.5825820000000  0.4661830000000  0.5611470000000 1.0
C      1  0.4060210000000  0.4571590000000  0.5413310000000 1.0
C      1  0.5657980000000  0.5839960000000  0.5383370000000 1.0
C      1  0.5330010000000  0.4450620000000  0.4221190000000 1.0
C      1  0.5296710000000  0.5608600000000  0.4892780000000 1.0
C      1  0.5178130000000  0.4864720000000  0.5543610000000 1.0
C      1  0.4706580000000  0.5913080000000  0.4386130000000 1.0
C      1  0.4343520000000  0.4546970000000  0.4205640000000 1.0
C      1  0.3952190000000  0.5265250000000  0.5256390000000 1.0
C      1  0.4948560000000  0.5109950000000  0.4605070000000 1.0
C      1  0.4639020000000  0.4314890000000  0.5044660000000 1.0
C      1  0.4783990000000  0.4519960000000  0.4412030000000 1.0
C      1  0.4720480000000  0.5923780000000  0.5324620000000 1.0
C      1  0.4759730000000  0.5470850000000  0.4565270000000 1.0
C      1  0.4169530000000  0.4278350000000  0.5370920000000 1.0
C      1  0.5556360000000  0.5503600000000  0.4756730000000 1.0
C      1  0.4692850000000  0.4086450000000  0.4459220000000 1.0
C      1  0.5646380000000  0.4261600000000  0.5544880000000 1.0
C      1  0.5113900000000  0.4364410000000  0.5314770000000 1.0
C      1  0.5485460000000  0.4012580000000  0.5139080000000 1.0
C      1  0.4531310000000  0.4535940000000  0.5400350000000 1.0
C      1  0.5436890000000  0.4890150000000  0.5405300000000 1.0
C      1  0.5629910000000  0.5744900000000  0.5660310000000 1.0
C      1  0.4848640000000  0.5369940000000  0.6050380000000 1.0
C      1  0.4535560000000  0.5227540000000  0.4086080000000 1.0
C      1  0.5335530000000  0.5936760000000  0.5006720000000 1.0
C      1  0.4684370000000  0.6155420000000  0.5131620000000 1.0
C      1  0.5153330000000  0.5657070000000  0.4638340000000 1.0
C      1  0.4317120000000  0.4987520000000  0.5416090000000 1.0
C      1  0.5017970000000  0.4595790000000  0.5512180000000 1.0
C      1  0.5183900000000  0.4116560000000  0.4519270000000 1.0
C      1  0.5511950000000  0.4653080000000  0.5214860000000 1.0
C      1  0.4145340000000  0.5627290000000  0.4600060000000 1.0
C      1  0.4736210000000  0.4909650000000  0.4958040000000 1.0
C      1  0.4680670000000  0.4817550000000  0.6058860000000 1.0
C      1  0.4894030000000  0.4507800000000  0.4699730000000 1.0
C      1  0.4302480000000  0.6003570000000  0.4856660000000 1.0
C      1  0.5144090000000  0.5430970000000  0.4424740000000 1.0
C      1  0.5492040000000  0.5377670000000  0.5409590000000 1.0
C      1  0.5310660000000  0.5177860000000  0.6190240000000 1.0
C      1  0.5023710000000  0.4954300000000  0.4851170000000 1.0
C      1  0.4705560000000  0.4978870000000  0.4465200000000 1.0
C      1  0.5061550000000  0.4633800000000  0.3872430000000 1.0
C      1  0.4777790000000  0.4785220000000  0.4258340000000 1.0
C      1  0.4848540000000  0.4189900000000  0.5232850000000 1.0
C      1  0.5327700000000  0.5319920000000  0.3991280000000 1.0
C      1  0.4453740000000  0.5569480000000  0.4948640000000 1.0
C      1  0.4478410000000  0.4818630000000  0.4608850000000 1.0
C      1  0.4881170000000  0.4163970000000  0.5713780000000 1.0
C      1  0.4824030000000  0.5566040000000  0.4080290000000 1.0
C      1  0.5345750000000  0.4635840000000  0.4555960000000 1.0
C      1  0.4273370000000  0.5403810000000  0.4486710000000 1.0
C      1  0.4770540000000  0.5143400000000  0.5453120000000 1.0
C      1  0.5057200000000  0.5741760000000  0.4082320000000 1.0
C      1  0.4856350000000  0.4449630000000  0.3925790000000 1.0
C      1  0.5777140000000  0.4646150000000  0.4203410000000 1.0
C      1  0.4378820000000  0.4983970000000  0.4026710000000 1.0
C      1  0.6023080000000  0.5200770000000  0.5345240000000 1.0
C      1  0.5987430000000  0.5253530000000  0.4686330000000 1.0
C      1  0.4936770000000  0.3910660000000  0.5129320000000 1.0
C      1  0.5178630000000  0.3739210000000  0.4864230000000 1.0
C      1  0.4861610000000  0.4299890000000  0.4204280000000 1.0
C      1  0.5949210000000  0.4432230000000  0.5175110000000 1.0
C      1  0.5274260000000  0.4175710000000  0.5493140000000 1.0
C      1  0.6179020000000  0.4612360000000  0.5158310000000 1.0
C      1  0.4302780000000  0.4700780000000  0.5281480000000 1.0
C      1  0.4650300000000  0.5621860000000  0.4313820000000 1.0
C      1  0.5119480000000  0.5147760000000  0.5092990000000 1.0
C      1  0.6212800000000  0.4844980000000  0.4981580000000 1.0
C      1  0.5363240000000  0.5812360000000  0.5753200000000 1.0
C      1  0.3835440000000  0.5041310000000  0.4855230000000 1.0
C      1  0.5119100000000  0.4022240000000  0.5675120000000 1.0
C      1  0.5962400000000  0.5480220000000  0.5235040000000 1.0
C      1  0.4246550000000  0.4441030000000  0.4890190000000 1.0
C      1  0.3860790000000  0.5005780000000  0.5391030000000 1.0
C      1  0.4133900000000  0.4935670000000  0.4180310000000 1.0
C      1  0.5048800000000  0.5136900000000  0.5574920000000 1.0
C      1  0.4423050000000  0.5460520000000  0.5800990000000 1.0
C      1  0.4021080000000  0.4637500000000  0.4568410000000 1.0
C      1  0.4793020000000  0.4669630000000  0.5356090000000 1.0
C      1  0.5025990000000  0.5168330000000  0.6170630000000 1.0
C      1  0.5409560000000  0.5978530000000  0.5301280000000 1.0
C      1  0.5304490000000  0.3797230000000  0.5107360000000 1.0
C      1  0.4288660000000  0.5070440000000  0.5042460000000 1.0
C      1  0.4946820000000  0.4898020000000  0.6125020000000 1.0
C      1  0.5054620000000  0.5439220000000  0.5006230000000 1.0
C      1  0.4755420000000  0.5647490000000  0.4819660000000 1.0
C      1  0.4403220000000  0.5459550000000  0.4227430000000 1.0
C      1  0.5275150000000  0.5555760000000  0.4181240000000 1.0
C      1  0.4168210000000  0.5402860000000  0.5403210000000 1.0
C      1  0.5672300000000  0.5216570000000  0.4351910000000 1.0
C      1  0.4517030000000  0.5726510000000  0.5711250000000 1.0
C      1  0.5479200000000  0.6007230000000  0.4749490000000 1.0
C      1  0.5610800000000  0.4405260000000  0.4244480000000 1.0
C      1  0.4953380000000  0.5958920000000  0.4241980000000 1.0
C      1  0.3957690000000  0.5126640000000  0.4613350000000 1.0
C      1  0.5681500000000  0.5629250000000  0.4513970000000 1.0
C      1  0.5022790000000  0.6077490000000  0.4693830000000 1.0
C      1  0.5670860000000  0.5369510000000  0.5646160000000 1.0
C      1  0.5240720000000  0.5598100000000  0.5897560000000 1.0
C      1  0.5573990000000  0.5162900000000  0.4073900000000 1.0
C      1  0.5880470000000  0.5419740000000  0.4434940000000 1.0
C      1  0.4619280000000  0.4572070000000  0.3832480000000 1.0
C      1  0.4826680000000  0.4935030000000  0.5245970000000 1.0
C      1  0.5141000000000  0.4649250000000  0.4794640000000 1.0
C      1  0.5727370000000  0.4942450000000  0.4508020000000 1.0
C      1  0.5314610000000  0.4868800000000  0.4362150000000 1.0
C      1  0.5861280000000  0.5162860000000  0.5597780000000 1.0
C      1  0.4535230000000  0.5137470000000  0.4906380000000 1.0
C      1  0.5626920000000  0.4790480000000  0.4969800000000 1.0
C      1  0.5982860000000  0.4649450000000  0.4449910000000 1.0
C      1  0.4547420000000  0.5023480000000  0.5600620000000 1.0
C      1  0.5253240000000  0.5931890000000  0.4569890000000 1.0
C      1  0.4208170000000  0.4228730000000  0.5088270000000 1.0
C      1  0.4437450000000  0.4607620000000  0.5699880000000 1.0
C      1  0.4421870000000  0.5537050000000  0.5275790000000 1.0
C      1  0.4218060000000  0.4736290000000  0.4955200000000 1.0
C      1  0.3849740000000  0.4738820000000  0.5237070000000 1.0
C      1  0.4183650000000  0.5342460000000  0.5685050000000 1.0
C      1  0.5394740000000  0.4910360000000  0.6132040000000 1.0
C      1  0.4568140000000  0.5306180000000  0.6000410000000 1.0
C      1  0.5178350000000  0.4485100000000  0.5949080000000 1.0
C      1  0.4794440000000  0.5803090000000  0.5778930000000 1.0
C      1  0.4170080000000  0.4925520000000  0.4556040000000 1.0
C      1  0.5203410000000  0.5124140000000  0.4460500000000 1.0
C      1  0.4536140000000  0.4729130000000  0.4062870000000 1.0
C      1  0.4506510000000  0.4082980000000  0.4905630000000 1.0
C      1  0.4915850000000  0.3849850000000  0.4832630000000 1.0
C      1  0.5622160000000  0.4692320000000  0.4678420000000 1.0
C      1  0.5099540000000  0.4899170000000  0.3831640000000 1.0
C      1  0.5494280000000  0.4257480000000  0.4958360000000 1.0
C      1  0.4073110000000  0.4994520000000  0.5606820000000 1.0
C      1  0.4921210000000  0.4068880000000  0.4640770000000 1.0
C      1  0.5707640000000  0.5263380000000  0.4816370000000 1.0
C      1  0.5080480000000  0.5163100000000  0.3923390000000 1.0
C      1  0.4958880000000  0.5619170000000  0.5950580000000 1.0
C      1  0.4689940000000  0.5401330000000  0.5323370000000 1.0
C      1  0.5658890000000  0.4283250000000  0.4501910000000 1.0
C      1  0.5434410000000  0.4408480000000  0.5828760000000 1.0
C      1  0.4564040000000  0.6100740000000  0.4859570000000 1.0
C      1  0.4692250000000  0.4135560000000  0.5489720000000 1.0
C      1  0.5885660000000  0.4402610000000  0.4646200000000 1.0
C      1  0.4933660000000  0.6285770000000  0.5116800000000 1.0
C      1  0.5425730000000  0.4213860000000  0.4662690000000 1.0
C      1  0.4128350000000  0.4693820000000  0.5698750000000 1.0
C      1  0.4040500000000  0.5230770000000  0.4978380000000 1.0
C      1  0.3908580000000  0.4760570000000  0.4924620000000 1.0
C      1  0.4817730000000  0.5291050000000  0.3982700000000 1.0
C      1  0.5784910000000  0.4378290000000  0.4935190000000 1.0
C      1  0.5174310000000  0.4729880000000  0.6107160000000 1.0
END
