TITL C-950534-5965-601 -9.11853645246383e-08 125000 -873.143394954428 0 0 138 (C1) n - 1
REM
REM in /home/bkarasulu/work/CARBON/AIRSS/Generating-Clusters/EDIP-Nigel-Params/with-SteepDescent/Only-C1/SD-CG/HFTN-CG
REM
REM
REM
REM
REM
REM ./C.cell (11c1c37f851c82e70ff6c80c92926a4b)
REM
REM compiler GCC version 9.2.1 20190827 (Red Hat 9.2.1-1)
REM options -cpp -mtune=generic -march=x86-64 -g -O0 -fpre-include=/usr/include/finclude/math-vector-fortran.h
REM seed -948309231 1693669702 -1613285798 -760999395 -2144015417 1803955426 -2036323037 -1951319254 1387500816 1944307834 259237810 1847079770 -505327531 -698640790 -761849668 -1272988658 -512693008 -718451944 671167955 -166840036 1743653607 360257843 1848669736 -1821578448 673689991 -291495504 -1955201861 943294032 -12101474 -1289453997 762530195 1253188342 292774976
REM
CELL 1.54180   50.00000   50.00000   50.00000   90.00000   90.00000   90.00000
LATT -1
SFAC C  
C      1  0.4690470000000  0.5299680000000  0.5753930000000 1.0
C      1  0.4359250000000  0.5701860000000  0.4664320000000 1.0
C      1  0.5015210000000  0.4245630000000  0.4422840000000 1.0
C      1  0.4249420000000  0.5328890000000  0.4370020000000 1.0
C      1  0.4514440000000  0.5155410000000  0.4679040000000 1.0
C      1  0.5797190000000  0.4387300000000  0.4877020000000 1.0
C      1  0.4936830000000  0.5030620000000  0.5122280000000 1.0
C      1  0.4750600000000  0.4078900000000  0.5396910000000 1.0
C      1  0.5298660000000  0.5783560000000  0.4488840000000 1.0
C      1  0.5478560000000  0.4150340000000  0.5216290000000 1.0
C      1  0.4451670000000  0.4880910000000  0.5099520000000 1.0
C      1  0.4867820000000  0.5119790000000  0.5925850000000 1.0
C      1  0.5292270000000  0.4609860000000  0.4677520000000 1.0
C      1  0.4279940000000  0.4901060000000  0.5883800000000 1.0
C      1  0.5191860000000  0.5539410000000  0.5707290000000 1.0
C      1  0.4192450000000  0.5558890000000  0.4897940000000 1.0
C      1  0.4621080000000  0.4753610000000  0.5328240000000 1.0
C      1  0.4128150000000  0.5251280000000  0.4870710000000 1.0
C      1  0.4436110000000  0.5528320000000  0.4455230000000 1.0
C      1  0.5206130000000  0.4843440000000  0.5458920000000 1.0
C      1  0.5131270000000  0.4629320000000  0.4145030000000 1.0
C      1  0.4985280000000  0.4828180000000  0.4918190000000 1.0
C      1  0.4540630000000  0.5404680000000  0.3982200000000 1.0
C      1  0.5639270000000  0.5045600000000  0.5426820000000 1.0
C      1  0.5606190000000  0.5344150000000  0.5786180000000 1.0
C      1  0.4055760000000  0.5104160000000  0.5473620000000 1.0
C      1  0.5723270000000  0.4968120000000  0.4367870000000 1.0
C      1  0.4601020000000  0.5881020000000  0.4708340000000 1.0
C      1  0.4529720000000  0.4743050000000  0.4839980000000 1.0
C      1  0.4210970000000  0.5071870000000  0.5121640000000 1.0
C      1  0.5347540000000  0.5119610000000  0.5421180000000 1.0
C      1  0.5885840000000  0.5450090000000  0.5081820000000 1.0
C      1  0.5270530000000  0.5727180000000  0.5509140000000 1.0
C      1  0.4948240000000  0.5602490000000  0.4175510000000 1.0
C      1  0.5801740000000  0.5648660000000  0.4658110000000 1.0
C      1  0.4952300000000  0.4984650000000  0.4654140000000 1.0
C      1  0.5025410000000  0.4441090000000  0.5264270000000 1.0
C      1  0.4755230000000  0.5591020000000  0.5776210000000 1.0
C      1  0.4282820000000  0.5054030000000  0.5640030000000 1.0
C      1  0.4809010000000  0.5924020000000  0.4496410000000 1.0
C      1  0.4314420000000  0.4348750000000  0.4655190000000 1.0
C      1  0.4564610000000  0.4227420000000  0.4633890000000 1.0
C      1  0.5760030000000  0.4532060000000  0.4624430000000 1.0
C      1  0.5989580000000  0.4998370000000  0.4770150000000 1.0
C      1  0.5120830000000  0.4128040000000  0.4665210000000 1.0
C      1  0.5457930000000  0.5663400000000  0.5297450000000 1.0
C      1  0.5391080000000  0.5057730000000  0.4647290000000 1.0
C      1  0.4232550000000  0.5128770000000  0.4599650000000 1.0
C      1  0.5961070000000  0.5662560000000  0.4895550000000 1.0
C      1  0.4721840000000  0.5817860000000  0.4967820000000 1.0
C      1  0.4341810000000  0.5241240000000  0.4104770000000 1.0
C      1  0.4988990000000  0.4670310000000  0.5994880000000 1.0
C      1  0.5472370000000  0.4419670000000  0.4531220000000 1.0
C      1  0.5319530000000  0.4842830000000  0.4086030000000 1.0
C      1  0.5329600000000  0.5280000000000  0.5712020000000 1.0
C      1  0.4458010000000  0.4653920000000  0.5579470000000 1.0
C      1  0.5209060000000  0.5567560000000  0.4309610000000 1.0
C      1  0.5690800000000  0.5378330000000  0.4691810000000 1.0
C      1  0.4320160000000  0.4242320000000  0.5414370000000 1.0
C      1  0.5566110000000  0.5212170000000  0.4463800000000 1.0
C      1  0.5214420000000  0.5114390000000  0.4110050000000 1.0
C      1  0.4643410000000  0.4540970000000  0.4230700000000 1.0
C      1  0.4819110000000  0.5395610000000  0.4022150000000 1.0
C      1  0.4948100000000  0.5141320000000  0.4005280000000 1.0
C      1  0.4522850000000  0.5874980000000  0.5372200000000 1.0
C      1  0.4845960000000  0.4963590000000  0.5389260000000 1.0
C      1  0.4280760000000  0.4615420000000  0.4726820000000 1.0
C      1  0.5003080000000  0.5621770000000  0.5897690000000 1.0
C      1  0.5061550000000  0.5276850000000  0.5023440000000 1.0
C      1  0.4447630000000  0.4779220000000  0.4299670000000 1.0
C      1  0.5117630000000  0.4285390000000  0.5689580000000 1.0
C      1  0.4670710000000  0.5399100000000  0.4735080000000 1.0
C      1  0.4036590000000  0.4648920000000  0.5334690000000 1.0
C      1  0.6045830000000  0.4370180000000  0.5002770000000 1.0
C      1  0.5739320000000  0.5302970000000  0.5537810000000 1.0
C      1  0.6004750000000  0.4381790000000  0.5267490000000 1.0
C      1  0.4546640000000  0.4172150000000  0.5593560000000 1.0
C      1  0.5509840000000  0.4401760000000  0.5383910000000 1.0
C      1  0.5409240000000  0.4179400000000  0.4696180000000 1.0
C      1  0.4777680000000  0.5484280000000  0.5303970000000 1.0
C      1  0.4222970000000  0.4503800000000  0.5481610000000 1.0
C      1  0.5456180000000  0.4986410000000  0.4940340000000 1.0
C      1  0.5224970000000  0.4008720000000  0.5274500000000 1.0
C      1  0.5855880000000  0.4823120000000  0.4587780000000 1.0
C      1  0.4798610000000  0.4901350000000  0.3918080000000 1.0
C      1  0.4222650000000  0.4813250000000  0.4512490000000 1.0
C      1  0.4683880000000  0.6035230000000  0.5175550000000 1.0
C      1  0.4504110000000  0.4731250000000  0.5959660000000 1.0
C      1  0.4741360000000  0.5231260000000  0.5468790000000 1.0
C      1  0.5048970000000  0.5546660000000  0.5178720000000 1.0
C      1  0.5008540000000  0.5741430000000  0.4949050000000 1.0
C      1  0.5276760000000  0.4733120000000  0.4961490000000 1.0
C      1  0.5648170000000  0.4833070000000  0.5641920000000 1.0
C      1  0.4753550000000  0.4503460000000  0.5175300000000 1.0
C      1  0.5383080000000  0.4412650000000  0.5665460000000 1.0
C      1  0.5095330000000  0.3876440000000  0.5066130000000 1.0
C      1  0.5033660000000  0.4189880000000  0.5418110000000 1.0
C      1  0.4953620000000  0.3985010000000  0.4850590000000 1.0
C      1  0.4328300000000  0.5633700000000  0.5157930000000 1.0
C      1  0.5241580000000  0.4822670000000  0.5945740000000 1.0
C      1  0.5430560000000  0.5833950000000  0.5049780000000 1.0
C      1  0.5165930000000  0.5106510000000  0.5908920000000 1.0
C      1  0.5364610000000  0.5325130000000  0.4255000000000 1.0
C      1  0.4532080000000  0.4915930000000  0.3828110000000 1.0
C      1  0.5350000000000  0.5238570000000  0.5069250000000 1.0
C      1  0.4383220000000  0.4955030000000  0.4062790000000 1.0
C      1  0.4404040000000  0.5256270000000  0.5803350000000 1.0
C      1  0.5798500000000  0.4478900000000  0.5421960000000 1.0
C      1  0.4674990000000  0.4092590000000  0.4879990000000 1.0
C      1  0.4648130000000  0.4916010000000  0.4605000000000 1.0
C      1  0.5534080000000  0.4785850000000  0.4259460000000 1.0
C      1  0.4780240000000  0.5818170000000  0.4239670000000 1.0
C      1  0.5907830000000  0.5145640000000  0.5001900000000 1.0
C      1  0.5722110000000  0.5518490000000  0.5331810000000 1.0
C      1  0.4741770000000  0.4345560000000  0.4431670000000 1.0
C      1  0.4747170000000  0.5711520000000  0.5496700000000 1.0
C      1  0.3979620000000  0.4914390000000  0.5264830000000 1.0
C      1  0.5241280000000  0.4847140000000  0.4509330000000 1.0
C      1  0.4603420000000  0.4226590000000  0.5163310000000 1.0
C      1  0.4765840000000  0.4860470000000  0.6021330000000 1.0
C      1  0.5858230000000  0.4653200000000  0.5627520000000 1.0
C      1  0.4782070000000  0.4607440000000  0.4910040000000 1.0
C      1  0.5011600000000  0.5848870000000  0.5430030000000 1.0
C      1  0.5231160000000  0.4397960000000  0.4292240000000 1.0
C      1  0.5710360000000  0.4973630000000  0.5132820000000 1.0
C      1  0.5584360000000  0.4186740000000  0.4934350000000 1.0
C      1  0.5165120000000  0.5983460000000  0.5002600000000 1.0
C      1  0.4602610000000  0.5551020000000  0.5058130000000 1.0
C      1  0.5082300000000  0.5948070000000  0.4568070000000 1.0
C      1  0.4624020000000  0.4428560000000  0.5743760000000 1.0
C      1  0.4918520000000  0.4473340000000  0.5789480000000 1.0
C      1  0.5482870000000  0.5474920000000  0.4909480000000 1.0
C      1  0.5267810000000  0.4614900000000  0.5253760000000 1.0
C      1  0.5531150000000  0.5789030000000  0.4681640000000 1.0
C      1  0.4958070000000  0.5285840000000  0.4736450000000 1.0
C      1  0.4985800000000  0.6075770000000  0.5238670000000 1.0
C      1  0.4858550000000  0.4646330000000  0.4051680000000 1.0
C      1  0.5372220000000  0.4720570000000  0.5695760000000 1.0
END
