TITL C-950532-2784-142 -2.56187800149659e-06 125000 -718.78733956805 0 0 116 (C1) n - 1
REM
REM in /home/bkarasulu/work/CARBON/AIRSS/Generating-Clusters/EDIP-Nigel-Params/with-SteepDescent/Only-C1/SD-CG/HFTN-CG
REM
REM
REM
REM
REM
REM ./C.cell (11c1c37f851c82e70ff6c80c92926a4b)
REM
REM compiler GCC version 9.2.1 20190827 (Red Hat 9.2.1-1)
REM options -cpp -mtune=generic -march=x86-64 -g -O0 -fpre-include=/usr/include/finclude/math-vector-fortran.h
REM seed 1599016505 -763667528 1576621281 -872740827 -2110091527 1555057684 1960922387 1246015144 -1767015273 273851533 -1485457023 -730164526 -2045904588 -189658988 1470038837 -103295930 254838207 1615478086 -1465929949 -1205673800 1305393630 -1199923555 -1469547719 -1740676665 712661304 -567765825 -773060153 585001453 -1333623845 -1217317266 -1225507622 -207068228 1132481103
REM
CELL 1.54180   50.00000   50.00000   50.00000   90.00000   90.00000   90.00000
LATT -1
SFAC C  
C      1  0.4238640000000  0.5000100000000  0.4650090000000 1.0
C      1  0.5496960000000  0.4585810000000  0.5563280000000 1.0
C      1  0.5312540000000  0.6010560000000  0.5085850000000 1.0
C      1  0.4263870000000  0.4703180000000  0.5419240000000 1.0
C      1  0.4973460000000  0.4121800000000  0.4472850000000 1.0
C      1  0.4646060000000  0.4453620000000  0.5625950000000 1.0
C      1  0.5721180000000  0.4746140000000  0.5117140000000 1.0
C      1  0.5025820000000  0.4804260000000  0.5082170000000 1.0
C      1  0.5467500000000  0.4861710000000  0.5665980000000 1.0
C      1  0.5672370000000  0.5735480000000  0.4905420000000 1.0
C      1  0.5833100000000  0.5104430000000  0.4574210000000 1.0
C      1  0.4226710000000  0.4607620000000  0.4385970000000 1.0
C      1  0.4470770000000  0.4132690000000  0.4986240000000 1.0
C      1  0.5663180000000  0.4517340000000  0.5304110000000 1.0
C      1  0.4122750000000  0.4950920000000  0.5336520000000 1.0
C      1  0.5143310000000  0.4860900000000  0.4620680000000 1.0
C      1  0.5064920000000  0.5652700000000  0.5173160000000 1.0
C      1  0.5516950000000  0.5351710000000  0.5064130000000 1.0
C      1  0.4181400000000  0.5515060000000  0.4637370000000 1.0
C      1  0.5100650000000  0.5376790000000  0.4775090000000 1.0
C      1  0.5419850000000  0.5578490000000  0.5585760000000 1.0
C      1  0.5515920000000  0.4368320000000  0.4709740000000 1.0
C      1  0.5918300000000  0.4933070000000  0.5224290000000 1.0
C      1  0.4699170000000  0.5435620000000  0.5419530000000 1.0
C      1  0.4288100000000  0.5830540000000  0.4945480000000 1.0
C      1  0.5092330000000  0.5088530000000  0.5176480000000 1.0
C      1  0.4766050000000  0.5898420000000  0.5647330000000 1.0
C      1  0.4614840000000  0.5628300000000  0.4974460000000 1.0
C      1  0.4505620000000  0.4728640000000  0.5593720000000 1.0
C      1  0.4814810000000  0.5493470000000  0.5153980000000 1.0
C      1  0.5110950000000  0.4134020000000  0.4891120000000 1.0
C      1  0.4309360000000  0.4545710000000  0.5177370000000 1.0
C      1  0.4266020000000  0.5224620000000  0.5347210000000 1.0
C      1  0.5027700000000  0.5407690000000  0.5838380000000 1.0
C      1  0.4655960000000  0.4913200000000  0.5394550000000 1.0
C      1  0.4751900000000  0.4091910000000  0.4636090000000 1.0
C      1  0.5190870000000  0.5184590000000  0.5901460000000 1.0
C      1  0.5138310000000  0.5660550000000  0.4273120000000 1.0
C      1  0.5431960000000  0.4951150000000  0.4765670000000 1.0
C      1  0.5510590000000  0.4923630000000  0.4257600000000 1.0
C      1  0.4364570000000  0.5421010000000  0.4450920000000 1.0
C      1  0.5876880000000  0.5311880000000  0.4770540000000 1.0
C      1  0.4612320000000  0.5552180000000  0.4393480000000 1.0
C      1  0.5180220000000  0.4007470000000  0.4638420000000 1.0
C      1  0.4480870000000  0.5909700000000  0.4742300000000 1.0
C      1  0.4979520000000  0.4395860000000  0.4366290000000 1.0
C      1  0.5825530000000  0.4651870000000  0.4856210000000 1.0
C      1  0.4068460000000  0.4896840000000  0.5048760000000 1.0
C      1  0.5777240000000  0.4381910000000  0.4811450000000 1.0
C      1  0.5663280000000  0.4697810000000  0.4384510000000 1.0
C      1  0.5401950000000  0.4345630000000  0.5200590000000 1.0
C      1  0.5461950000000  0.4880730000000  0.5052720000000 1.0
C      1  0.4301760000000  0.5331520000000  0.5062470000000 1.0
C      1  0.5494520000000  0.4454310000000  0.4425080000000 1.0
C      1  0.5559350000000  0.5500000000000  0.4486970000000 1.0
C      1  0.4926160000000  0.4122290000000  0.5394280000000 1.0
C      1  0.5139550000000  0.5605750000000  0.5639090000000 1.0
C      1  0.4730530000000  0.5080040000000  0.4877650000000 1.0
C      1  0.5068830000000  0.5933170000000  0.5251440000000 1.0
C      1  0.4750290000000  0.5346760000000  0.5871420000000 1.0
C      1  0.5705950000000  0.4838090000000  0.4649390000000 1.0
C      1  0.4182130000000  0.5561870000000  0.4913190000000 1.0
C      1  0.5831690000000  0.5130840000000  0.5406070000000 1.0
C      1  0.4870770000000  0.5028170000000  0.4623140000000 1.0
C      1  0.4750030000000  0.5777780000000  0.4751930000000 1.0
C      1  0.5232380000000  0.4520740000000  0.4307570000000 1.0
C      1  0.4299160000000  0.5053110000000  0.4937770000000 1.0
C      1  0.5240070000000  0.4472020000000  0.5435940000000 1.0
C      1  0.5389530000000  0.4057570000000  0.5254920000000 1.0
C      1  0.5269570000000  0.5830070000000  0.4748340000000 1.0
C      1  0.4926000000000  0.4857720000000  0.5513970000000 1.0
C      1  0.5552840000000  0.5850920000000  0.5132010000000 1.0
C      1  0.5820370000000  0.5303010000000  0.5146020000000 1.0
C      1  0.4696260000000  0.5073500000000  0.4376580000000 1.0
C      1  0.4140190000000  0.4620500000000  0.4941460000000 1.0
C      1  0.4907980000000  0.4448160000000  0.5771610000000 1.0
C      1  0.4611400000000  0.4841770000000  0.5039780000000 1.0
C      1  0.5241470000000  0.5600140000000  0.4940410000000 1.0
C      1  0.4652030000000  0.5658570000000  0.5583710000000 1.0
C      1  0.5044860000000  0.4913140000000  0.4105500000000 1.0
C      1  0.4737400000000  0.4565260000000  0.4311860000000 1.0
C      1  0.4971800000000  0.4759330000000  0.5795930000000 1.0
C      1  0.5239830000000  0.4907020000000  0.5855420000000 1.0
C      1  0.4767630000000  0.4861140000000  0.5977550000000 1.0
C      1  0.5534070000000  0.5685640000000  0.5355910000000 1.0
C      1  0.5390250000000  0.5116220000000  0.5216960000000 1.0
C      1  0.5623140000000  0.5187330000000  0.4375260000000 1.0
C      1  0.5511750000000  0.5331220000000  0.5658180000000 1.0
C      1  0.4938730000000  0.5591190000000  0.4593160000000 1.0
C      1  0.4535980000000  0.5194100000000  0.5477730000000 1.0
C      1  0.5343520000000  0.5718020000000  0.4475210000000 1.0
C      1  0.5437760000000  0.5257540000000  0.4766450000000 1.0
C      1  0.4464000000000  0.4444820000000  0.4319910000000 1.0
C      1  0.4749130000000  0.4576200000000  0.4882220000000 1.0
C      1  0.5753360000000  0.5560550000000  0.4701320000000 1.0
C      1  0.4382070000000  0.4303210000000  0.4565930000000 1.0
C      1  0.5066830000000  0.4622210000000  0.4824350000000 1.0
C      1  0.4763900000000  0.4841940000000  0.4184200000000 1.0
C      1  0.4766260000000  0.5345890000000  0.4272410000000 1.0
C      1  0.4522610000000  0.4906010000000  0.5848050000000 1.0
C      1  0.5113070000000  0.5181950000000  0.4041990000000 1.0
C      1  0.5033380000000  0.5875710000000  0.5555570000000 1.0
C      1  0.4527900000000  0.5191860000000  0.5773940000000 1.0
C      1  0.5548990000000  0.5100520000000  0.5496970000000 1.0
C      1  0.4239320000000  0.4710640000000  0.4657220000000 1.0
C      1  0.5090640000000  0.4269820000000  0.5603970000000 1.0
C      1  0.5228690000000  0.4812420000000  0.4313770000000 1.0
C      1  0.4589260000000  0.4281730000000  0.4773490000000 1.0
C      1  0.5117150000000  0.4007400000000  0.5169780000000 1.0
C      1  0.4399640000000  0.5133250000000  0.4442750000000 1.0
C      1  0.4447450000000  0.4291550000000  0.5207540000000 1.0
C      1  0.5047320000000  0.4674260000000  0.5334620000000 1.0
C      1  0.5038930000000  0.5391690000000  0.4211870000000 1.0
C      1  0.4671180000000  0.4286770000000  0.5389870000000 1.0
C      1  0.4929790000000  0.5254800000000  0.5003040000000 1.0
C      1  0.5278080000000  0.4383080000000  0.4902860000000 1.0
END
