TITL C-950527-2551-215 -5.39254050375784e-08 125000 -821.738696032276 0 0 129 (C1) n - 1
REM
REM in /home/bkarasulu/work/CARBON/AIRSS/Generating-Clusters/EDIP-Nigel-Params/with-SteepDescent/Only-C1/SD-CG/HFTN-CG
REM
REM
REM
REM
REM
REM ./C.cell (11c1c37f851c82e70ff6c80c92926a4b)
REM
REM compiler GCC version 9.2.1 20190827 (Red Hat 9.2.1-1)
REM options -cpp -mtune=generic -march=x86-64 -g -O0 -fpre-include=/usr/include/finclude/math-vector-fortran.h
REM seed -219295628 -1996403108 1699525547 -1583627921 777745090 -183984425 -1340735103 2108255282 -168390286 -129838465 832179160 1268692663 1606413915 662994436 6344792 1798277178 390970477 836426529 -2034907583 202056326 -1428518569 426516621 1982860621 -1665661172 453131747 -871720869 1266214670 -266528850 -1571890494 1442267130 1916637384 814516600 -619653495
REM
CELL 1.54180   50.00000   50.00000   50.00000   90.00000   90.00000   90.00000
LATT -1
SFAC C  
C      1  0.4588190000000  0.5855260000000  0.4466090000000 1.0
C      1  0.4789760000000  0.5837580000000  0.5414900000000 1.0
C      1  0.5042540000000  0.5785190000000  0.4335430000000 1.0
C      1  0.5181060000000  0.4513430000000  0.4221940000000 1.0
C      1  0.5326580000000  0.5341500000000  0.5207530000000 1.0
C      1  0.5173760000000  0.4313910000000  0.4453470000000 1.0
C      1  0.4967920000000  0.4329830000000  0.4674660000000 1.0
C      1  0.4888200000000  0.5087120000000  0.4656440000000 1.0
C      1  0.4447390000000  0.5278920000000  0.5610110000000 1.0
C      1  0.5280630000000  0.5469720000000  0.4738540000000 1.0
C      1  0.5059190000000  0.5490980000000  0.5265380000000 1.0
C      1  0.5614070000000  0.4653000000000  0.4838720000000 1.0
C      1  0.4563770000000  0.4962960000000  0.4108490000000 1.0
C      1  0.5322450000000  0.4602050000000  0.5547880000000 1.0
C      1  0.5313480000000  0.5910920000000  0.4719700000000 1.0
C      1  0.4791150000000  0.5675780000000  0.5902000000000 1.0
C      1  0.5318590000000  0.5364060000000  0.4458040000000 1.0
C      1  0.5689670000000  0.5602730000000  0.4794910000000 1.0
C      1  0.4718340000000  0.5219270000000  0.4105460000000 1.0
C      1  0.4452990000000  0.5799820000000  0.4704890000000 1.0
C      1  0.5836920000000  0.4479720000000  0.5357550000000 1.0
C      1  0.4892170000000  0.4556370000000  0.5339300000000 1.0
C      1  0.4841160000000  0.5495820000000  0.5051530000000 1.0
C      1  0.5208350000000  0.5963030000000  0.5203450000000 1.0
C      1  0.5916940000000  0.4918770000000  0.5081030000000 1.0
C      1  0.5817400000000  0.5352500000000  0.5315720000000 1.0
C      1  0.4415650000000  0.5589400000000  0.5586790000000 1.0
C      1  0.4639820000000  0.5045690000000  0.4828590000000 1.0
C      1  0.4503760000000  0.4258650000000  0.4770530000000 1.0
C      1  0.5349010000000  0.5827610000000  0.4994670000000 1.0
C      1  0.5065080000000  0.4202130000000  0.4960340000000 1.0
C      1  0.5604080000000  0.5366150000000  0.5735610000000 1.0
C      1  0.4982090000000  0.5503510000000  0.5996290000000 1.0
C      1  0.4590540000000  0.4228220000000  0.5046110000000 1.0
C      1  0.4391190000000  0.4852550000000  0.5826610000000 1.0
C      1  0.5241820000000  0.5676360000000  0.5630590000000 1.0
C      1  0.4985900000000  0.5556240000000  0.4746610000000 1.0
C      1  0.5812190000000  0.4762290000000  0.5318190000000 1.0
C      1  0.5474900000000  0.4534400000000  0.4126270000000 1.0
C      1  0.4731240000000  0.4754340000000  0.5185760000000 1.0
C      1  0.5790060000000  0.5202350000000  0.5572090000000 1.0
C      1  0.5127810000000  0.4777970000000  0.4945010000000 1.0
C      1  0.4380830000000  0.4522220000000  0.4710990000000 1.0
C      1  0.5795730000000  0.5319960000000  0.4814170000000 1.0
C      1  0.5437100000000  0.4095370000000  0.5251810000000 1.0
C      1  0.4210460000000  0.4972280000000  0.4813730000000 1.0
C      1  0.4837880000000  0.4074190000000  0.5108160000000 1.0
C      1  0.4404540000000  0.5583510000000  0.5287810000000 1.0
C      1  0.4703050000000  0.5185030000000  0.5720520000000 1.0
C      1  0.4411200000000  0.5357570000000  0.4484050000000 1.0
C      1  0.4419320000000  0.5282380000000  0.5264670000000 1.0
C      1  0.4414940000000  0.4595730000000  0.4424350000000 1.0
C      1  0.5007200000000  0.4415650000000  0.4010550000000 1.0
C      1  0.5346170000000  0.5201870000000  0.5729040000000 1.0
C      1  0.5331170000000  0.5108720000000  0.5397100000000 1.0
C      1  0.4654150000000  0.5747200000000  0.5663780000000 1.0
C      1  0.4706880000000  0.4231090000000  0.4557650000000 1.0
C      1  0.4643680000000  0.5719460000000  0.5168030000000 1.0
C      1  0.5043700000000  0.5032340000000  0.5428950000000 1.0
C      1  0.4047470000000  0.5169690000000  0.5244920000000 1.0
C      1  0.4744150000000  0.5704150000000  0.4285510000000 1.0
C      1  0.4796670000000  0.4322700000000  0.5531810000000 1.0
C      1  0.5622430000000  0.4345840000000  0.5210990000000 1.0
C      1  0.4650800000000  0.4733830000000  0.4898980000000 1.0
C      1  0.4133190000000  0.5447910000000  0.4865080000000 1.0
C      1  0.4931610000000  0.5281650000000  0.5569290000000 1.0
C      1  0.5591290000000  0.4457740000000  0.4387670000000 1.0
C      1  0.4693470000000  0.4904830000000  0.5801820000000 1.0
C      1  0.5321300000000  0.4897170000000  0.4518040000000 1.0
C      1  0.4884920000000  0.5354740000000  0.4545460000000 1.0
C      1  0.4864750000000  0.5008630000000  0.5203120000000 1.0
C      1  0.5509240000000  0.5737260000000  0.4572850000000 1.0
C      1  0.5490400000000  0.4781630000000  0.5718560000000 1.0
C      1  0.5109910000000  0.4448150000000  0.5148300000000 1.0
C      1  0.4358210000000  0.5067740000000  0.4553810000000 1.0
C      1  0.5532810000000  0.4152940000000  0.4786320000000 1.0
C      1  0.4982420000000  0.5193480000000  0.4015880000000 1.0
C      1  0.5326190000000  0.4042900000000  0.4976990000000 1.0
C      1  0.4662850000000  0.4746900000000  0.3959400000000 1.0
C      1  0.5416050000000  0.4746220000000  0.5045000000000 1.0
C      1  0.5860270000000  0.5202810000000  0.5073890000000 1.0
C      1  0.5168950000000  0.5017900000000  0.4770770000000 1.0
C      1  0.4339580000000  0.4354240000000  0.5738800000000 1.0
C      1  0.5165710000000  0.4990640000000  0.4071780000000 1.0
C      1  0.5273790000000  0.4923300000000  0.5873380000000 1.0
C      1  0.5280260000000  0.5599310000000  0.4291840000000 1.0
C      1  0.4269030000000  0.4620150000000  0.5685320000000 1.0
C      1  0.4903670000000  0.4636490000000  0.4740260000000 1.0
C      1  0.4678830000000  0.5409830000000  0.4343310000000 1.0
C      1  0.4144180000000  0.4987780000000  0.5441480000000 1.0
C      1  0.5575650000000  0.5522000000000  0.5285880000000 1.0
C      1  0.5082740000000  0.5767510000000  0.5390690000000 1.0
C      1  0.4923390000000  0.4086190000000  0.5396910000000 1.0
C      1  0.4236940000000  0.4562530000000  0.5187630000000 1.0
C      1  0.4757750000000  0.4513820000000  0.4083710000000 1.0
C      1  0.4530530000000  0.4867650000000  0.4388120000000 1.0
C      1  0.5112660000000  0.4808550000000  0.4307090000000 1.0
C      1  0.5035670000000  0.5843020000000  0.4631290000000 1.0
C      1  0.5126500000000  0.5423230000000  0.5753920000000 1.0
C      1  0.5604660000000  0.5714030000000  0.5055890000000 1.0
C      1  0.4554610000000  0.5892400000000  0.4950760000000 1.0
C      1  0.4684750000000  0.5220250000000  0.5088560000000 1.0
C      1  0.5495080000000  0.5118650000000  0.4405220000000 1.0
C      1  0.5212960000000  0.4142590000000  0.5453570000000 1.0
C      1  0.5450590000000  0.4216740000000  0.4499680000000 1.0
C      1  0.4148230000000  0.4701400000000  0.5429350000000 1.0
C      1  0.4499550000000  0.4279350000000  0.5522220000000 1.0
C      1  0.5390860000000  0.4539080000000  0.5250340000000 1.0
C      1  0.4848570000000  0.4839200000000  0.4477100000000 1.0
C      1  0.5052130000000  0.4744860000000  0.5528490000000 1.0
C      1  0.5690430000000  0.4369310000000  0.4920290000000 1.0
C      1  0.4105640000000  0.5191700000000  0.4970130000000 1.0
C      1  0.4617110000000  0.4411460000000  0.4324660000000 1.0
C      1  0.4397530000000  0.4315610000000  0.5247730000000 1.0
C      1  0.4966760000000  0.4741600000000  0.5827410000000 1.0
C      1  0.5047180000000  0.6155760000000  0.5117430000000 1.0
C      1  0.4341690000000  0.5532720000000  0.4701850000000 1.0
C      1  0.5458470000000  0.5041700000000  0.4106120000000 1.0
C      1  0.5313080000000  0.5244430000000  0.4918980000000 1.0
C      1  0.4239760000000  0.5084790000000  0.5700280000000 1.0
C      1  0.4955710000000  0.4406380000000  0.5798330000000 1.0
C      1  0.5565110000000  0.4789760000000  0.4047700000000 1.0
C      1  0.5768620000000  0.5100850000000  0.4617830000000 1.0
C      1  0.5660960000000  0.4933100000000  0.5515760000000 1.0
C      1  0.5233240000000  0.4342950000000  0.5681250000000 1.0
C      1  0.5837970000000  0.4851870000000  0.4800130000000 1.0
C      1  0.5526190000000  0.5615180000000  0.5574840000000 1.0
C      1  0.5478690000000  0.4651900000000  0.4585210000000 1.0
C      1  0.4221840000000  0.4684670000000  0.4908400000000 1.0
END
