TITL C-950534-5965-243 -2.86854604108532e-06 125000 -478.626203749242 0 0 78 (C1) n - 1
REM
REM in /home/bkarasulu/work/CARBON/AIRSS/Generating-Clusters/EDIP-Nigel-Params/with-SteepDescent/Only-C1/SD-CG/HFTN-CG
REM
REM
REM
REM
REM
REM ./C.cell (11c1c37f851c82e70ff6c80c92926a4b)
REM
REM compiler GCC version 9.2.1 20190827 (Red Hat 9.2.1-1)
REM options -cpp -mtune=generic -march=x86-64 -g -O0 -fpre-include=/usr/include/finclude/math-vector-fortran.h
REM seed 653359618 -514828238 -854068167 685527390 -1128218147 1097109762 2001508210 707320936 -651781751 2144873158 -415746116 -1944783460 1701636130 1311531820 787026831 -419697451 -1545942164 138566937 1705740961 779501507 1961556789 -984432674 1296403742 -1170458954 2023101645 -1295685336 1256064531 1314320630 -981692455 -122296049 1723579921 -113617028 -1313782581
REM
CELL 1.54180   50.00000   50.00000   50.00000   90.00000   90.00000   90.00000
LATT -1
SFAC C  
C      1  0.5437280000000  0.4523270000000  0.4272530000000 1.0
C      1  0.5345270000000  0.4536490000000  0.5215640000000 1.0
C      1  0.5363200000000  0.4850910000000  0.5250720000000 1.0
C      1  0.4934930000000  0.5365290000000  0.5014310000000 1.0
C      1  0.4796950000000  0.4326510000000  0.4872520000000 1.0
C      1  0.5128770000000  0.5363120000000  0.4613770000000 1.0
C      1  0.5257750000000  0.5260520000000  0.5389370000000 1.0
C      1  0.4533020000000  0.4824290000000  0.4465940000000 1.0
C      1  0.5092850000000  0.4817840000000  0.4860030000000 1.0
C      1  0.4809620000000  0.5720690000000  0.4671520000000 1.0
C      1  0.5045340000000  0.5769600000000  0.5408880000000 1.0
C      1  0.5020380000000  0.5566860000000  0.5597290000000 1.0
C      1  0.4844560000000  0.5654350000000  0.4970520000000 1.0
C      1  0.5532240000000  0.4556560000000  0.5446050000000 1.0
C      1  0.5222370000000  0.4558780000000  0.4789950000000 1.0
C      1  0.4935010000000  0.4456790000000  0.4397960000000 1.0
C      1  0.5614190000000  0.5068380000000  0.5522460000000 1.0
C      1  0.4609460000000  0.5024780000000  0.5377310000000 1.0
C      1  0.4619590000000  0.5143890000000  0.4730730000000 1.0
C      1  0.5792560000000  0.5226630000000  0.5089590000000 1.0
C      1  0.5519490000000  0.4527570000000  0.4709000000000 1.0
C      1  0.4720710000000  0.4732820000000  0.5735150000000 1.0
C      1  0.5422690000000  0.5009230000000  0.4469060000000 1.0
C      1  0.5172490000000  0.4560240000000  0.5756840000000 1.0
C      1  0.5089820000000  0.4404970000000  0.5288810000000 1.0
C      1  0.5692650000000  0.4764420000000  0.4770970000000 1.0
C      1  0.4630830000000  0.5344070000000  0.4338320000000 1.0
C      1  0.5234600000000  0.5207330000000  0.4386210000000 1.0
C      1  0.4620070000000  0.5000490000000  0.5679920000000 1.0
C      1  0.5221970000000  0.5296630000000  0.5071250000000 1.0
C      1  0.4219460000000  0.5089490000000  0.5033070000000 1.0
C      1  0.4871300000000  0.4955100000000  0.5262020000000 1.0
C      1  0.5571860000000  0.4377240000000  0.4472300000000 1.0
C      1  0.4843200000000  0.5348140000000  0.4154260000000 1.0
C      1  0.5016380000000  0.4362450000000  0.4676560000000 1.0
C      1  0.4378020000000  0.5450110000000  0.4740270000000 1.0
C      1  0.5318890000000  0.5681530000000  0.4717630000000 1.0
C      1  0.5093130000000  0.4365330000000  0.5568970000000 1.0
C      1  0.5439660000000  0.4668260000000  0.5701370000000 1.0
C      1  0.4617700000000  0.4537730000000  0.5561290000000 1.0
C      1  0.4165340000000  0.4950910000000  0.4791320000000 1.0
C      1  0.5525830000000  0.5016210000000  0.4757610000000 1.0
C      1  0.5204350000000  0.5146560000000  0.5814220000000 1.0
C      1  0.4583500000000  0.5546500000000  0.4554190000000 1.0
C      1  0.5037860000000  0.5146530000000  0.4175830000000 1.0
C      1  0.5298910000000  0.4994890000000  0.4972850000000 1.0
C      1  0.4371540000000  0.4586130000000  0.5148650000000 1.0
C      1  0.4978430000000  0.5843090000000  0.5152570000000 1.0
C      1  0.4836430000000  0.4483310000000  0.5125500000000 1.0
C      1  0.5117470000000  0.4961570000000  0.5421780000000 1.0
C      1  0.4800000000000  0.4721210000000  0.4373520000000 1.0
C      1  0.4775600000000  0.5426020000000  0.5639880000000 1.0
C      1  0.5647870000000  0.5293180000000  0.4839180000000 1.0
C      1  0.4589090000000  0.4452730000000  0.5296040000000 1.0
C      1  0.5628420000000  0.5263370000000  0.5326760000000 1.0
C      1  0.5930860000000  0.4984300000000  0.5074020000000 1.0
C      1  0.4447300000000  0.5529010000000  0.5227560000000 1.0
C      1  0.4818830000000  0.5184880000000  0.5784480000000 1.0
C      1  0.5239940000000  0.5431470000000  0.5725860000000 1.0
C      1  0.4480020000000  0.5097120000000  0.4372570000000 1.0
C      1  0.5907420000000  0.4747870000000  0.4949390000000 1.0
C      1  0.4546710000000  0.5449830000000  0.5478330000000 1.0
C      1  0.4583490000000  0.4880830000000  0.4898960000000 1.0
C      1  0.4364510000000  0.4503670000000  0.4860040000000 1.0
C      1  0.5444460000000  0.4968720000000  0.5722220000000 1.0
C      1  0.5168590000000  0.4450570000000  0.4237910000000 1.0
C      1  0.5019690000000  0.4812320000000  0.5721600000000 1.0
C      1  0.4907210000000  0.5209920000000  0.4771090000000 1.0
C      1  0.4850950000000  0.4782670000000  0.5027110000000 1.0
C      1  0.4535040000000  0.4294860000000  0.4780300000000 1.0
C      1  0.4361160000000  0.5348430000000  0.5009060000000 1.0
C      1  0.4387400000000  0.4898400000000  0.5195450000000 1.0
C      1  0.5477870000000  0.4799380000000  0.4292670000000 1.0
C      1  0.4307720000000  0.4728900000000  0.4664350000000 1.0
C      1  0.4606140000000  0.5739010000000  0.5119960000000 1.0
C      1  0.4933950000000  0.4885380000000  0.4189620000000 1.0
C      1  0.5072500000000  0.5665060000000  0.4545640000000 1.0
C      1  0.5417310000000  0.5476510000000  0.4911540000000 1.0
END
