TITL C-951348-1603-435 5.31105270667744e-07 125000 -295.942831312195 0 0 49 (C1) n - 1
REM
REM in /home/bkarasulu/work/CARBON/AIRSS/Generating-Clusters/EDIP-Nigel-Params/with-SteepDescent/Only-C1/SD-CG/HFTN-CG
REM
REM
REM
REM
REM
REM ./C.cell (11c1c37f851c82e70ff6c80c92926a4b)
REM
REM compiler GCC version 9.2.1 20190827 (Red Hat 9.2.1-1)
REM options -cpp -mtune=generic -march=x86-64 -g -O0 -fpre-include=/usr/include/finclude/math-vector-fortran.h
REM seed 300609985 1639038941 -961643936 -1335420609 -908598642 -255700830 -1161237478 -864849645 1543441554 -1156275894 34801731 990752404 2110534258 -1994100872 -1020809274 -2076848633 261336849 1905059288 1019683780 -1017737249 -1387575263 398830204 412320387 995523104 -867169339 1507813805 100144716 -1305613465 -234331894 -573215750 -549261469 -1887522841 1095758877
REM
CELL 1.54180   50.00000   50.00000   50.00000   90.00000   90.00000   90.00000
LATT -1
SFAC C  
C      1  0.5226850000000  0.5197870000000  0.5727770000000 1.0
C      1  0.5089880000000  0.5440910000000  0.5076630000000 1.0
C      1  0.4838470000000  0.5360220000000  0.5218820000000 1.0
C      1  0.4800510000000  0.4401330000000  0.5124720000000 1.0
C      1  0.4670320000000  0.4652610000000  0.5235350000000 1.0
C      1  0.5339980000000  0.5079360000000  0.5316100000000 1.0
C      1  0.4738440000000  0.5232940000000  0.5667760000000 1.0
C      1  0.4955730000000  0.4961750000000  0.4981220000000 1.0
C      1  0.4869850000000  0.5448450000000  0.5506460000000 1.0
C      1  0.5555540000000  0.4654930000000  0.4845820000000 1.0
C      1  0.4728650000000  0.4436770000000  0.4832560000000 1.0
C      1  0.5415800000000  0.5025280000000  0.5584570000000 1.0
C      1  0.5504980000000  0.4643630000000  0.5139070000000 1.0
C      1  0.5613260000000  0.4955780000000  0.4753350000000 1.0
C      1  0.4567920000000  0.5390720000000  0.5082190000000 1.0
C      1  0.4845570000000  0.5057260000000  0.5237940000000 1.0
C      1  0.5664170000000  0.5105980000000  0.5010090000000 1.0
C      1  0.4937160000000  0.4781000000000  0.5637270000000 1.0
C      1  0.5276260000000  0.4677050000000  0.4708700000000 1.0
C      1  0.5548290000000  0.5385880000000  0.5029240000000 1.0
C      1  0.4825150000000  0.4743160000000  0.4430060000000 1.0
C      1  0.5581790000000  0.4923340000000  0.5242310000000 1.0
C      1  0.5013500000000  0.5426410000000  0.4568030000000 1.0
C      1  0.5324870000000  0.5376640000000  0.5249690000000 1.0
C      1  0.5176120000000  0.5345310000000  0.4347730000000 1.0
C      1  0.4553670000000  0.4864220000000  0.4442680000000 1.0
C      1  0.4978520000000  0.4934100000000  0.4256260000000 1.0
C      1  0.5330940000000  0.4961220000000  0.4618470000000 1.0
C      1  0.4610370000000  0.5154430000000  0.4367480000000 1.0
C      1  0.4746820000000  0.5277090000000  0.4619960000000 1.0
C      1  0.5178430000000  0.5478720000000  0.4803540000000 1.0
C      1  0.4462950000000  0.4550870000000  0.4803240000000 1.0
C      1  0.5167780000000  0.5440260000000  0.5558190000000 1.0
C      1  0.5203920000000  0.4582150000000  0.5197440000000 1.0
C      1  0.5138560000000  0.4707400000000  0.5451750000000 1.0
C      1  0.4796810000000  0.5132120000000  0.4150100000000 1.0
C      1  0.5459520000000  0.5501050000000  0.4783510000000 1.0
C      1  0.4459330000000  0.5121040000000  0.5200040000000 1.0
C      1  0.5067330000000  0.4695490000000  0.4943510000000 1.0
C      1  0.5071560000000  0.4321580000000  0.5190230000000 1.0
C      1  0.4557910000000  0.5046690000000  0.5501720000000 1.0
C      1  0.4960800000000  0.5056310000000  0.5770900000000 1.0
C      1  0.4810800000000  0.5039280000000  0.4762490000000 1.0
C      1  0.4408160000000  0.4801550000000  0.4683980000000 1.0
C      1  0.4573170000000  0.5420750000000  0.4802160000000 1.0
C      1  0.5225260000000  0.5064550000000  0.4362150000000 1.0
C      1  0.4670590000000  0.4763420000000  0.5510880000000 1.0
C      1  0.4531760000000  0.4850400000000  0.5044570000000 1.0
C      1  0.4925960000000  0.4530760000000  0.4621330000000 1.0
END
