TITL C-950527-2551-280 -2.84283532502389e-06 125000 -720.917717043442 0 0 115 (C1) n - 1
REM
REM in /home/bkarasulu/work/CARBON/AIRSS/Generating-Clusters/EDIP-Nigel-Params/with-SteepDescent/Only-C1/SD-CG/HFTN-CG
REM
REM
REM
REM
REM
REM ./C.cell (11c1c37f851c82e70ff6c80c92926a4b)
REM
REM compiler GCC version 9.2.1 20190827 (Red Hat 9.2.1-1)
REM options -cpp -mtune=generic -march=x86-64 -g -O0 -fpre-include=/usr/include/finclude/math-vector-fortran.h
REM seed 2047618423 -930319264 926962856 1303800707 1682027443 345940460 -1121023478 524264033 912427590 -2008616004 -1334805698 -918609919 -55103471 -1851061304 1052565741 -872623918 -987106889 1691402801 -1618957416 1451110005 883314401 1531116424 393087613 1117805224 -99030599 -48345445 1848491467 -2038421718 1828504829 -439253502 1694658924 154740043 285760287
REM
CELL 1.54180   50.00000   50.00000   50.00000   90.00000   90.00000   90.00000
LATT -1
SFAC C  
C      1  0.4944440000000  0.4817140000000  0.5451790000000 1.0
C      1  0.5374320000000  0.4319820000000  0.4635370000000 1.0
C      1  0.5282070000000  0.5387150000000  0.4597670000000 1.0
C      1  0.4275230000000  0.4412540000000  0.4837660000000 1.0
C      1  0.5615280000000  0.5131640000000  0.4355940000000 1.0
C      1  0.4536870000000  0.5643010000000  0.4455410000000 1.0
C      1  0.4958550000000  0.4171480000000  0.4749480000000 1.0
C      1  0.5028460000000  0.5816730000000  0.4736890000000 1.0
C      1  0.5001390000000  0.5736110000000  0.5607350000000 1.0
C      1  0.5195800000000  0.5503660000000  0.5630340000000 1.0
C      1  0.4246800000000  0.4368660000000  0.5115510000000 1.0
C      1  0.4395830000000  0.5463950000000  0.5215500000000 1.0
C      1  0.4911050000000  0.4734150000000  0.5746280000000 1.0
C      1  0.4477320000000  0.4930330000000  0.5666570000000 1.0
C      1  0.4965040000000  0.5868120000000  0.4470240000000 1.0
C      1  0.4263010000000  0.5245660000000  0.5364930000000 1.0
C      1  0.5321460000000  0.4923480000000  0.4021030000000 1.0
C      1  0.5027670000000  0.5360770000000  0.4428130000000 1.0
C      1  0.5203510000000  0.4351900000000  0.4381740000000 1.0
C      1  0.4673450000000  0.4898080000000  0.5082960000000 1.0
C      1  0.4179840000000  0.4868220000000  0.4672860000000 1.0
C      1  0.4598300000000  0.5395730000000  0.5762790000000 1.0
C      1  0.5182470000000  0.4543320000000  0.5078330000000 1.0
C      1  0.5735650000000  0.4737350000000  0.4970480000000 1.0
C      1  0.5781670000000  0.5611430000000  0.5269530000000 1.0
C      1  0.5647430000000  0.4594160000000  0.5217240000000 1.0
C      1  0.5278540000000  0.4245030000000  0.5113450000000 1.0
C      1  0.4731710000000  0.5324990000000  0.4030430000000 1.0
C      1  0.4584530000000  0.4346130000000  0.5752970000000 1.0
C      1  0.5059590000000  0.5829720000000  0.5317400000000 1.0
C      1  0.5402120000000  0.5886240000000  0.5173410000000 1.0
C      1  0.5687200000000  0.5082770000000  0.5740410000000 1.0
C      1  0.5401360000000  0.4617160000000  0.5761230000000 1.0
C      1  0.5898320000000  0.5433520000000  0.5451700000000 1.0
C      1  0.4909230000000  0.4566910000000  0.5284230000000 1.0
C      1  0.4706850000000  0.4927570000000  0.5855670000000 1.0
C      1  0.4147430000000  0.5322040000000  0.4803080000000 1.0
C      1  0.4813330000000  0.5214870000000  0.5862860000000 1.0
C      1  0.4947550000000  0.5501720000000  0.4167100000000 1.0
C      1  0.5245690000000  0.5043690000000  0.5691010000000 1.0
C      1  0.5590430000000  0.5800080000000  0.5371730000000 1.0
C      1  0.4573970000000  0.5182840000000  0.4670440000000 1.0
C      1  0.4845400000000  0.4434630000000  0.5742460000000 1.0
C      1  0.4729920000000  0.4812300000000  0.4057250000000 1.0
C      1  0.5492420000000  0.5214080000000  0.5302380000000 1.0
C      1  0.5362330000000  0.4670260000000  0.5295040000000 1.0
C      1  0.5307630000000  0.4453320000000  0.5521810000000 1.0
C      1  0.4390800000000  0.4703530000000  0.5366160000000 1.0
C      1  0.4719120000000  0.5002240000000  0.5370110000000 1.0
C      1  0.5053260000000  0.5258500000000  0.5144390000000 1.0
C      1  0.5294840000000  0.4977630000000  0.5385240000000 1.0
C      1  0.5124790000000  0.4682480000000  0.4575630000000 1.0
C      1  0.4699340000000  0.5638270000000  0.5604830000000 1.0
C      1  0.4134590000000  0.4600910000000  0.5264610000000 1.0
C      1  0.4198650000000  0.5036530000000  0.4923840000000 1.0
C      1  0.4673090000000  0.5531560000000  0.5326290000000 1.0
C      1  0.4334820000000  0.5519730000000  0.4925360000000 1.0
C      1  0.5444590000000  0.5204120000000  0.5847520000000 1.0
C      1  0.5365240000000  0.5496340000000  0.5363660000000 1.0
C      1  0.4790670000000  0.5735380000000  0.4882400000000 1.0
C      1  0.5812250000000  0.4711270000000  0.5440870000000 1.0
C      1  0.5237380000000  0.4143400000000  0.4829960000000 1.0
C      1  0.4847410000000  0.4739600000000  0.4674390000000 1.0
C      1  0.5135650000000  0.5130510000000  0.3932570000000 1.0
C      1  0.4884350000000  0.5068320000000  0.4069890000000 1.0
C      1  0.5658010000000  0.4780900000000  0.5692420000000 1.0
C      1  0.4913340000000  0.4597460000000  0.4139520000000 1.0
C      1  0.5753810000000  0.5186820000000  0.5464590000000 1.0
C      1  0.5595040000000  0.4288540000000  0.5191710000000 1.0
C      1  0.4411400000000  0.5206270000000  0.5614330000000 1.0
C      1  0.4993040000000  0.4358840000000  0.5491200000000 1.0
C      1  0.5683970000000  0.5517790000000  0.5003260000000 1.0
C      1  0.5017720000000  0.5252120000000  0.5641490000000 1.0
C      1  0.5394040000000  0.5483920000000  0.5844360000000 1.0
C      1  0.4540710000000  0.4840570000000  0.4288860000000 1.0
C      1  0.4935420000000  0.4109740000000  0.5351440000000 1.0
C      1  0.4809380000000  0.5744220000000  0.5170220000000 1.0
C      1  0.4358860000000  0.5440600000000  0.4329570000000 1.0
C      1  0.5208830000000  0.4667970000000  0.4152810000000 1.0
C      1  0.5821950000000  0.5004420000000  0.5037030000000 1.0
C      1  0.5642300000000  0.4925060000000  0.4542920000000 1.0
C      1  0.4580130000000  0.5569630000000  0.4745370000000 1.0
C      1  0.5559490000000  0.4758590000000  0.4754230000000 1.0
C      1  0.5583640000000  0.5211190000000  0.4999540000000 1.0
C      1  0.5246240000000  0.5618070000000  0.4814450000000 1.0
C      1  0.4456710000000  0.4217050000000  0.5276650000000 1.0
C      1  0.5073420000000  0.5096630000000  0.4917600000000 1.0
C      1  0.4167510000000  0.4984180000000  0.5226900000000 1.0
C      1  0.4462440000000  0.5356680000000  0.4086690000000 1.0
C      1  0.5182060000000  0.4796160000000  0.5848630000000 1.0
C      1  0.4916230000000  0.4863220000000  0.4928590000000 1.0
C      1  0.5477400000000  0.4221010000000  0.5446170000000 1.0
C      1  0.5174270000000  0.5513600000000  0.5120560000000 1.0
C      1  0.4437540000000  0.4242510000000  0.5554630000000 1.0
C      1  0.4858780000000  0.5263510000000  0.5362080000000 1.0
C      1  0.4295780000000  0.5215620000000  0.4529810000000 1.0
C      1  0.4709550000000  0.4095670000000  0.5179510000000 1.0
C      1  0.4935680000000  0.4239590000000  0.4467630000000 1.0
C      1  0.5232410000000  0.4933670000000  0.4451540000000 1.0
C      1  0.4726930000000  0.4967410000000  0.4505450000000 1.0
C      1  0.5322200000000  0.4582130000000  0.4772520000000 1.0
C      1  0.4329580000000  0.4620270000000  0.4657900000000 1.0
C      1  0.4756290000000  0.4063060000000  0.4907030000000 1.0
C      1  0.5319090000000  0.5126820000000  0.4756050000000 1.0
C      1  0.5564370000000  0.5035620000000  0.4100550000000 1.0
C      1  0.4488770000000  0.5063290000000  0.4925920000000 1.0
C      1  0.4780910000000  0.4480900000000  0.4384550000000 1.0
C      1  0.5494280000000  0.5742580000000  0.4923580000000 1.0
C      1  0.5904760000000  0.4973990000000  0.5322830000000 1.0
C      1  0.5179760000000  0.5416280000000  0.3979800000000 1.0
C      1  0.4480480000000  0.4575510000000  0.4410530000000 1.0
C      1  0.4609330000000  0.4618590000000  0.5174250000000 1.0
C      1  0.5519370000000  0.5386410000000  0.4432480000000 1.0
C      1  0.4786010000000  0.5737530000000  0.4299400000000 1.0
C      1  0.4971500000000  0.5083040000000  0.4365070000000 1.0
END
