TITL C-951337-3020-101 -8.50188181225654e-08 125000 -365.225454209953 0 0 60 (C1) n - 1
REM
REM in /home/bkarasulu/work/CARBON/AIRSS/Generating-Clusters/EDIP-Nigel-Params/with-SteepDescent/Only-C1/SD-CG/HFTN-CG
REM
REM
REM
REM
REM
REM ./C.cell (11c1c37f851c82e70ff6c80c92926a4b)
REM
REM compiler GCC version 9.2.1 20190827 (Red Hat 9.2.1-1)
REM options -cpp -mtune=generic -march=x86-64 -g -O0 -fpre-include=/usr/include/finclude/math-vector-fortran.h
REM seed 1974990712 668306593 -579815926 -837593595 1754394446 -808035123 1644604255 -867562873 376518269 1781211548 -1361335469 1588058154 -1183393842 -1482276908 -1544412626 -1185725891 -1804796277 1391413091 1999248506 156181094 -1666061113 -195204160 1369721409 1316871931 -1239397265 -1642045358 1755720063 -1944218702 -1753336 847504050 -2096144309 -1521556953 -754333203
REM
CELL 1.54180   50.00000   50.00000   50.00000   90.00000   90.00000   90.00000
LATT -1
SFAC C  
C      1  0.4771940000000  0.5068140000000  0.4917390000000 1.0
C      1  0.5283880000000  0.5149490000000  0.4298200000000 1.0
C      1  0.4805770000000  0.5298550000000  0.4355630000000 1.0
C      1  0.5724260000000  0.4710110000000  0.4975420000000 1.0
C      1  0.5188250000000  0.4295020000000  0.4648860000000 1.0
C      1  0.4845500000000  0.5110360000000  0.5195870000000 1.0
C      1  0.4415350000000  0.4489400000000  0.4831530000000 1.0
C      1  0.4239740000000  0.5096640000000  0.4774350000000 1.0
C      1  0.4858070000000  0.4383540000000  0.4977480000000 1.0
C      1  0.4620060000000  0.5241760000000  0.5640240000000 1.0
C      1  0.5386200000000  0.4891090000000  0.4325070000000 1.0
C      1  0.4876850000000  0.5404280000000  0.4613660000000 1.0
C      1  0.4741350000000  0.4756750000000  0.5557730000000 1.0
C      1  0.5460530000000  0.4799170000000  0.5489000000000 1.0
C      1  0.4397480000000  0.5167510000000  0.5486610000000 1.0
C      1  0.5320920000000  0.5094950000000  0.4990290000000 1.0
C      1  0.5697840000000  0.5261690000000  0.4500600000000 1.0
C      1  0.5137010000000  0.5248230000000  0.5167480000000 1.0
C      1  0.5545950000000  0.4619490000000  0.5222210000000 1.0
C      1  0.4585980000000  0.4832130000000  0.4919120000000 1.0
C      1  0.4345640000000  0.4981440000000  0.5028000000000 1.0
C      1  0.4888360000000  0.5311310000000  0.5589290000000 1.0
C      1  0.4766870000000  0.4503070000000  0.4530200000000 1.0
C      1  0.4835760000000  0.4807570000000  0.5272380000000 1.0
C      1  0.4957200000000  0.5571810000000  0.5480390000000 1.0
C      1  0.5104480000000  0.4665650000000  0.5259290000000 1.0
C      1  0.4919960000000  0.4339860000000  0.4698320000000 1.0
C      1  0.4573550000000  0.4417780000000  0.5060720000000 1.0
C      1  0.4666550000000  0.5319870000000  0.4791140000000 1.0
C      1  0.4252620000000  0.4927090000000  0.5499650000000 1.0
C      1  0.4543140000000  0.5186500000000  0.4365470000000 1.0
C      1  0.4275290000000  0.4785710000000  0.5255890000000 1.0
C      1  0.5211860000000  0.5645650000000  0.5343250000000 1.0
C      1  0.4605370000000  0.5550320000000  0.4972770000000 1.0
C      1  0.5290810000000  0.4803460000000  0.4993180000000 1.0
C      1  0.4469110000000  0.5207050000000  0.5207360000000 1.0
C      1  0.5376320000000  0.4357130000000  0.5094950000000 1.0
C      1  0.4829130000000  0.5638240000000  0.5123480000000 1.0
C      1  0.5076270000000  0.5089740000000  0.5574850000000 1.0
C      1  0.5415010000000  0.4364720000000  0.4794360000000 1.0
C      1  0.5796850000000  0.4996040000000  0.4900620000000 1.0
C      1  0.5078440000000  0.4377710000000  0.5176930000000 1.0
C      1  0.5493200000000  0.4657300000000  0.4779460000000 1.0
C      1  0.5477800000000  0.5292910000000  0.5351910000000 1.0
C      1  0.5568160000000  0.4800430000000  0.4519370000000 1.0
C      1  0.5100320000000  0.5541240000000  0.5047050000000 1.0
C      1  0.5358180000000  0.5079360000000  0.5511380000000 1.0
C      1  0.4997700000000  0.4831450000000  0.5681500000000 1.0
C      1  0.5108220000000  0.5532430000000  0.4732560000000 1.0
C      1  0.4508800000000  0.4603010000000  0.5287290000000 1.0
C      1  0.5449830000000  0.5356890000000  0.4416170000000 1.0
C      1  0.5329890000000  0.5557530000000  0.4567320000000 1.0
C      1  0.5455040000000  0.5557430000000  0.5449810000000 1.0
C      1  0.4386860000000  0.5474460000000  0.5126200000000 1.0
C      1  0.5594940000000  0.5182920000000  0.5004850000000 1.0
C      1  0.4435030000000  0.5240080000000  0.4624160000000 1.0
C      1  0.5207970000000  0.4660780000000  0.5551500000000 1.0
C      1  0.5023490000000  0.5204300000000  0.4210900000000 1.0
C      1  0.4556460000000  0.4654790000000  0.4640920000000 1.0
C      1  0.5766550000000  0.5006640000000  0.4598420000000 1.0
END
