TITL C-951342-2639-546 1.10917950494499e-06 125000 -866.092975372484 0 0 141 (C1) n - 1
REM
REM in /home/bkarasulu/work/CARBON/AIRSS/Generating-Clusters/EDIP-Nigel-Params/with-SteepDescent/Only-C1/SD-CG/HFTN-CG
REM
REM
REM
REM
REM
REM ./C.cell (11c1c37f851c82e70ff6c80c92926a4b)
REM
REM compiler GCC version 9.2.1 20190827 (Red Hat 9.2.1-1)
REM options -cpp -mtune=generic -march=x86-64 -g -O0 -fpre-include=/usr/include/finclude/math-vector-fortran.h
REM seed -900501744 1543267389 -697249772 -2111856366 -1925701400 1002257234 2085284298 -1206826742 1459854843 483476255 -1937915484 893211993 -2068749333 -358043732 -1499978832 -381881324 1474129968 48124755 -195096039 786002526 2122029723 -290917374 -1359481880 -938871007 -1765409835 -1201271962 -1360987111 674307717 -1970312942 452821094 749919604 -2135635241 -1035742019
REM
CELL 1.54180   50.00000   50.00000   50.00000   90.00000   90.00000   90.00000
LATT -1
SFAC C  
C      1  0.5770510000000  0.4948950000000  0.4956310000000 1.0
C      1  0.4949210000000  0.4111630000000  0.4447040000000 1.0
C      1  0.5220740000000  0.4806260000000  0.4223270000000 1.0
C      1  0.5525730000000  0.5180510000000  0.4554990000000 1.0
C      1  0.4455720000000  0.5448710000000  0.5755180000000 1.0
C      1  0.4253180000000  0.5309480000000  0.5609740000000 1.0
C      1  0.4382090000000  0.5790860000000  0.4847140000000 1.0
C      1  0.5560990000000  0.4115070000000  0.5419710000000 1.0
C      1  0.5429740000000  0.4281780000000  0.5652330000000 1.0
C      1  0.4820830000000  0.5790770000000  0.5557300000000 1.0
C      1  0.5821700000000  0.5412370000000  0.4590920000000 1.0
C      1  0.5052440000000  0.4629030000000  0.6054900000000 1.0
C      1  0.5655310000000  0.4620570000000  0.4288070000000 1.0
C      1  0.4168080000000  0.4459020000000  0.4668820000000 1.0
C      1  0.5104000000000  0.4534290000000  0.4615230000000 1.0
C      1  0.4550070000000  0.5632590000000  0.5536280000000 1.0
C      1  0.4901780000000  0.5748300000000  0.4467330000000 1.0
C      1  0.4791950000000  0.4400080000000  0.4262240000000 1.0
C      1  0.5472930000000  0.5288630000000  0.5790120000000 1.0
C      1  0.4414020000000  0.4628110000000  0.5681340000000 1.0
C      1  0.4650280000000  0.4197570000000  0.5723420000000 1.0
C      1  0.5240270000000  0.5221780000000  0.4884470000000 1.0
C      1  0.5790450000000  0.5681920000000  0.5007450000000 1.0
C      1  0.4323850000000  0.5509200000000  0.4956370000000 1.0
C      1  0.4779210000000  0.5476590000000  0.4096820000000 1.0
C      1  0.5677240000000  0.4571180000000  0.5650630000000 1.0
C      1  0.4375660000000  0.4717870000000  0.4313510000000 1.0
C      1  0.5424230000000  0.4770920000000  0.5246140000000 1.0
C      1  0.4912590000000  0.4899250000000  0.6158550000000 1.0
C      1  0.5160260000000  0.4169680000000  0.5235540000000 1.0
C      1  0.5638820000000  0.4555400000000  0.5181650000000 1.0
C      1  0.5029050000000  0.4567330000000  0.5774450000000 1.0
C      1  0.4814760000000  0.4886020000000  0.4066830000000 1.0
C      1  0.4950450000000  0.4619880000000  0.4135780000000 1.0
C      1  0.5486730000000  0.4741640000000  0.4104430000000 1.0
C      1  0.4802270000000  0.5570960000000  0.4907100000000 1.0
C      1  0.4409980000000  0.4335320000000  0.5659490000000 1.0
C      1  0.4425240000000  0.4331560000000  0.4579060000000 1.0
C      1  0.4309230000000  0.4329570000000  0.5157540000000 1.0
C      1  0.4723750000000  0.5036430000000  0.4298920000000 1.0
C      1  0.5805080000000  0.5272520000000  0.5471830000000 1.0
C      1  0.4912380000000  0.4113950000000  0.5637830000000 1.0
C      1  0.4499690000000  0.4444870000000  0.4310950000000 1.0
C      1  0.5241330000000  0.5526160000000  0.4050890000000 1.0
C      1  0.5239440000000  0.5421120000000  0.4653130000000 1.0
C      1  0.4224380000000  0.4744410000000  0.5505830000000 1.0
C      1  0.6015320000000  0.5230570000000  0.5008690000000 1.0
C      1  0.4750980000000  0.4946940000000  0.5142390000000 1.0
C      1  0.4592840000000  0.5404740000000  0.5064500000000 1.0
C      1  0.5153820000000  0.4934050000000  0.4823000000000 1.0
C      1  0.4188280000000  0.4919020000000  0.5285350000000 1.0
C      1  0.4349810000000  0.5169410000000  0.4107470000000 1.0
C      1  0.4468120000000  0.4579280000000  0.5248320000000 1.0
C      1  0.4685300000000  0.5419850000000  0.5360210000000 1.0
C      1  0.4265030000000  0.4239960000000  0.5430290000000 1.0
C      1  0.5407210000000  0.4181950000000  0.4614890000000 1.0
C      1  0.4745180000000  0.5193940000000  0.5536740000000 1.0
C      1  0.5256010000000  0.5338770000000  0.5409700000000 1.0
C      1  0.5629300000000  0.5709750000000  0.5236460000000 1.0
C      1  0.5177200000000  0.5063910000000  0.6138310000000 1.0
C      1  0.4704800000000  0.4676940000000  0.5051180000000 1.0
C      1  0.4715050000000  0.5270390000000  0.5822410000000 1.0
C      1  0.5585050000000  0.4400400000000  0.4701770000000 1.0
C      1  0.4708570000000  0.4364090000000  0.5343850000000 1.0
C      1  0.4961100000000  0.4003180000000  0.4720870000000 1.0
C      1  0.4358270000000  0.5513660000000  0.4451670000000 1.0
C      1  0.5068130000000  0.4829880000000  0.5505080000000 1.0
C      1  0.5254430000000  0.4037160000000  0.4825270000000 1.0
C      1  0.4487910000000  0.5400250000000  0.4202750000000 1.0
C      1  0.5042890000000  0.5687930000000  0.5730620000000 1.0
C      1  0.5520170000000  0.5550830000000  0.5671270000000 1.0
C      1  0.4983320000000  0.5507540000000  0.5338860000000 1.0
C      1  0.5572060000000  0.5035860000000  0.5194780000000 1.0
C      1  0.5209170000000  0.5250760000000  0.5921820000000 1.0
C      1  0.4921310000000  0.5451100000000  0.4613010000000 1.0
C      1  0.5021580000000  0.5333840000000  0.3976120000000 1.0
C      1  0.5654330000000  0.4931700000000  0.4677260000000 1.0
C      1  0.4527680000000  0.4791330000000  0.5877980000000 1.0
C      1  0.4978200000000  0.4567460000000  0.5161720000000 1.0
C      1  0.5484880000000  0.5440920000000  0.4196490000000 1.0
C      1  0.4830030000000  0.4632600000000  0.4629770000000 1.0
C      1  0.5048160000000  0.5044590000000  0.3974150000000 1.0
C      1  0.5722860000000  0.4391850000000  0.5412730000000 1.0
C      1  0.4163110000000  0.4721830000000  0.4522680000000 1.0
C      1  0.5847790000000  0.4330710000000  0.4761440000000 1.0
C      1  0.6013660000000  0.4516290000000  0.4863300000000 1.0
C      1  0.5176270000000  0.4296210000000  0.4462930000000 1.0
C      1  0.4150420000000  0.4788680000000  0.5020990000000 1.0
C      1  0.5653200000000  0.5576360000000  0.4413310000000 1.0
C      1  0.5555040000000  0.5806310000000  0.4534860000000 1.0
C      1  0.4137490000000  0.4496730000000  0.4972970000000 1.0
C      1  0.5370210000000  0.5857170000000  0.5306010000000 1.0
C      1  0.5298590000000  0.5702440000000  0.5567730000000 1.0
C      1  0.4584490000000  0.4841330000000  0.3888610000000 1.0
C      1  0.5807070000000  0.4835270000000  0.5615610000000 1.0
C      1  0.5034580000000  0.5610790000000  0.5077030000000 1.0
C      1  0.3907600000000  0.5283370000000  0.4957160000000 1.0
C      1  0.5269570000000  0.4760060000000  0.4536420000000 1.0
C      1  0.4171420000000  0.5210660000000  0.5353490000000 1.0
C      1  0.4653640000000  0.5889980000000  0.4472880000000 1.0
C      1  0.5864270000000  0.4676720000000  0.5039100000000 1.0
C      1  0.4815510000000  0.4947070000000  0.5421620000000 1.0
C      1  0.5285220000000  0.4795260000000  0.6114150000000 1.0
C      1  0.6002630000000  0.4878890000000  0.5406810000000 1.0
C      1  0.4024030000000  0.5189290000000  0.4721340000000 1.0
C      1  0.5311190000000  0.5015710000000  0.5487910000000 1.0
C      1  0.4879810000000  0.5974800000000  0.5324250000000 1.0
C      1  0.5332400000000  0.5717400000000  0.4682740000000 1.0
C      1  0.5404970000000  0.4039030000000  0.5182580000000 1.0
C      1  0.5690320000000  0.5103980000000  0.5682790000000 1.0
C      1  0.4694150000000  0.4109440000000  0.5169930000000 1.0
C      1  0.5488630000000  0.5158810000000  0.4252000000000 1.0
C      1  0.4981770000000  0.5436120000000  0.5886530000000 1.0
C      1  0.5066670000000  0.4326500000000  0.5001810000000 1.0
C      1  0.5590710000000  0.4991500000000  0.4046450000000 1.0
C      1  0.4413630000000  0.5782100000000  0.4555290000000 1.0
C      1  0.4581550000000  0.5125420000000  0.5007510000000 1.0
C      1  0.4809510000000  0.4195470000000  0.4901300000000 1.0
C      1  0.4851510000000  0.4929360000000  0.4720910000000 1.0
C      1  0.5113330000000  0.5902070000000  0.4622790000000 1.0
C      1  0.4692490000000  0.4997840000000  0.5972180000000 1.0
C      1  0.4291710000000  0.5344960000000  0.4696070000000 1.0
C      1  0.5026510000000  0.6024560000000  0.4868240000000 1.0
C      1  0.4370360000000  0.4890740000000  0.4070560000000 1.0
C      1  0.5722170000000  0.5550660000000  0.5465930000000 1.0
C      1  0.5558870000000  0.4668120000000  0.4555990000000 1.0
C      1  0.4478890000000  0.5067930000000  0.4740780000000 1.0
C      1  0.5900950000000  0.5463420000000  0.4867510000000 1.0
C      1  0.5101290000000  0.5893170000000  0.5134130000000 1.0
C      1  0.5391950000000  0.5268270000000  0.5134570000000 1.0
C      1  0.5195800000000  0.4746920000000  0.5060510000000 1.0
C      1  0.4846230000000  0.5151830000000  0.4521830000000 1.0
C      1  0.4653930000000  0.6004750000000  0.5165500000000 1.0
C      1  0.5987520000000  0.5143380000000  0.5292470000000 1.0
C      1  0.4182760000000  0.4919600000000  0.4752130000000 1.0
C      1  0.5127550000000  0.4323050000000  0.5651780000000 1.0
C      1  0.4671420000000  0.5866760000000  0.4910620000000 1.0
C      1  0.4649860000000  0.4424630000000  0.4761330000000 1.0
C      1  0.4942000000000  0.5713220000000  0.4182710000000 1.0
C      1  0.4927650000000  0.4018550000000  0.5349620000000 1.0
C      1  0.4092170000000  0.5402100000000  0.5135750000000 1.0
END
