TITL C-951335-1172-342 -7.03854572527208e-06 125000 -1170.45517760013 0 0 188 (C1) n - 1
REM
REM in /home/bkarasulu/work/CARBON/AIRSS/Generating-Clusters/EDIP-Nigel-Params/with-SteepDescent/Only-C1/SD-CG/HFTN-CG
REM
REM
REM
REM
REM
REM ./C.cell (11c1c37f851c82e70ff6c80c92926a4b)
REM
REM compiler GCC version 9.2.1 20190827 (Red Hat 9.2.1-1)
REM options -cpp -mtune=generic -march=x86-64 -g -O0 -fpre-include=/usr/include/finclude/math-vector-fortran.h
REM seed 550900547 -1958324665 1988184284 -2073340395 -1920168790 1474748958 -1812088160 934836099 -1411030858 -1568093516 -652751693 -1176483778 -1236107509 1027437936 -648038713 -1945578246 325515432 1472273646 661955652 -1683291629 -928539909 -1119393365 -1246013469 2005221110 926335004 -857414862 1593898009 -1610774484 -583264494 400982367 2005795996 -1281708908 -253645363
REM
CELL 1.54180   50.00000   50.00000   50.00000   90.00000   90.00000   90.00000
LATT -1
SFAC C  
C      1  0.4529920000000  0.5954210000000  0.5328270000000 1.0
C      1  0.5650360000000  0.5841760000000  0.5441910000000 1.0
C      1  0.5111450000000  0.4003580000000  0.4495820000000 1.0
C      1  0.5051060000000  0.4090900000000  0.4767150000000 1.0
C      1  0.4984650000000  0.5657280000000  0.5032910000000 1.0
C      1  0.5988730000000  0.4408840000000  0.5285190000000 1.0
C      1  0.4768620000000  0.5167260000000  0.3933120000000 1.0
C      1  0.5520980000000  0.5197000000000  0.5328780000000 1.0
C      1  0.4492320000000  0.4498540000000  0.5811140000000 1.0
C      1  0.4211460000000  0.5159400000000  0.4623330000000 1.0
C      1  0.4812980000000  0.5313270000000  0.5107090000000 1.0
C      1  0.4142260000000  0.4214990000000  0.5449320000000 1.0
C      1  0.4722930000000  0.5392420000000  0.4419540000000 1.0
C      1  0.5647170000000  0.4107850000000  0.5104710000000 1.0
C      1  0.4572270000000  0.5396560000000  0.5324340000000 1.0
C      1  0.4252430000000  0.5621220000000  0.5525580000000 1.0
C      1  0.5219950000000  0.4061970000000  0.5273220000000 1.0
C      1  0.4994910000000  0.6058140000000  0.5203970000000 1.0
C      1  0.5916390000000  0.4198170000000  0.5087740000000 1.0
C      1  0.4617820000000  0.5448590000000  0.4707970000000 1.0
C      1  0.4622950000000  0.4496630000000  0.5117730000000 1.0
C      1  0.5845950000000  0.4399740000000  0.5545770000000 1.0
C      1  0.4517900000000  0.5193730000000  0.4079180000000 1.0
C      1  0.5889290000000  0.5094850000000  0.5325600000000 1.0
C      1  0.5507570000000  0.4553620000000  0.4080810000000 1.0
C      1  0.4985940000000  0.5742190000000  0.5884720000000 1.0
C      1  0.5006340000000  0.5126030000000  0.5227210000000 1.0
C      1  0.5367460000000  0.4294610000000  0.4118420000000 1.0
C      1  0.3972630000000  0.4823110000000  0.4466340000000 1.0
C      1  0.3907370000000  0.5510840000000  0.4672400000000 1.0
C      1  0.5379230000000  0.4995100000000  0.4425010000000 1.0
C      1  0.5288380000000  0.5783290000000  0.4243040000000 1.0
C      1  0.4703840000000  0.4286400000000  0.4272270000000 1.0
C      1  0.5231350000000  0.4954410000000  0.5686340000000 1.0
C      1  0.4874950000000  0.4730140000000  0.4064650000000 1.0
C      1  0.5295540000000  0.4934530000000  0.5053960000000 1.0
C      1  0.3880900000000  0.4862370000000  0.4923350000000 1.0
C      1  0.5597400000000  0.5116810000000  0.6050470000000 1.0
C      1  0.4492330000000  0.4450600000000  0.4178740000000 1.0
C      1  0.5467480000000  0.4708450000000  0.4489190000000 1.0
C      1  0.5939670000000  0.5442580000000  0.4990900000000 1.0
C      1  0.4787220000000  0.3970490000000  0.5277660000000 1.0
C      1  0.5243560000000  0.5326340000000  0.4005160000000 1.0
C      1  0.4248210000000  0.6073760000000  0.5300010000000 1.0
C      1  0.5040790000000  0.5237590000000  0.5508480000000 1.0
C      1  0.4186100000000  0.5489100000000  0.4322470000000 1.0
C      1  0.5049320000000  0.5325070000000  0.4725920000000 1.0
C      1  0.6073710000000  0.4663070000000  0.5132730000000 1.0
C      1  0.5556430000000  0.5989370000000  0.5098650000000 1.0
C      1  0.4490180000000  0.5674840000000  0.5158530000000 1.0
C      1  0.4957790000000  0.4617650000000  0.5982550000000 1.0
C      1  0.4879540000000  0.4168010000000  0.5725060000000 1.0
C      1  0.5748080000000  0.5549790000000  0.5458130000000 1.0
C      1  0.4907530000000  0.5784000000000  0.4178850000000 1.0
C      1  0.4091870000000  0.5262400000000  0.5078010000000 1.0
C      1  0.4814770000000  0.4887920000000  0.5197800000000 1.0
C      1  0.5237360000000  0.4488530000000  0.4544100000000 1.0
C      1  0.5143210000000  0.4863990000000  0.4807700000000 1.0
C      1  0.5726880000000  0.5611460000000  0.4902280000000 1.0
C      1  0.5846780000000  0.4263430000000  0.4570350000000 1.0
C      1  0.5409740000000  0.5544750000000  0.4108780000000 1.0
C      1  0.3961620000000  0.5506030000000  0.4965510000000 1.0
C      1  0.4577520000000  0.4218520000000  0.5734790000000 1.0
C      1  0.5087490000000  0.4590960000000  0.3935500000000 1.0
C      1  0.4453240000000  0.5140220000000  0.5591790000000 1.0
C      1  0.5237150000000  0.3983310000000  0.4969110000000 1.0
C      1  0.5645790000000  0.5633390000000  0.4626650000000 1.0
C      1  0.4582100000000  0.4616390000000  0.5540560000000 1.0
C      1  0.5068060000000  0.4353830000000  0.5303020000000 1.0
C      1  0.4033850000000  0.5181070000000  0.5356680000000 1.0
C      1  0.5142580000000  0.5069240000000  0.4591630000000 1.0
C      1  0.5121630000000  0.6064360000000  0.4927810000000 1.0
C      1  0.4108880000000  0.5805670000000  0.5338920000000 1.0
C      1  0.5511580000000  0.4020740000000  0.4863860000000 1.0
C      1  0.4677140000000  0.5684570000000  0.4900720000000 1.0
C      1  0.4393190000000  0.4882110000000  0.5430090000000 1.0
C      1  0.5845000000000  0.4870590000000  0.5127780000000 1.0
C      1  0.5571540000000  0.4139410000000  0.4586390000000 1.0
C      1  0.5835110000000  0.5532490000000  0.4423360000000 1.0
C      1  0.5129210000000  0.4312790000000  0.3966850000000 1.0
C      1  0.5214810000000  0.4834570000000  0.5989040000000 1.0
C      1  0.5100250000000  0.4492350000000  0.5049220000000 1.0
C      1  0.4399280000000  0.4117260000000  0.5510290000000 1.0
C      1  0.4787620000000  0.5528010000000  0.5824970000000 1.0
C      1  0.4786180000000  0.4808550000000  0.4546040000000 1.0
C      1  0.4581280000000  0.4698940000000  0.4050440000000 1.0
C      1  0.5254490000000  0.5621370000000  0.5866130000000 1.0
C      1  0.5128040000000  0.6051650000000  0.5511110000000 1.0
C      1  0.4549960000000  0.6148950000000  0.4922500000000 1.0
C      1  0.4883630000000  0.5269630000000  0.5920470000000 1.0
C      1  0.5565660000000  0.4508040000000  0.4940080000000 1.0
C      1  0.4456740000000  0.4104900000000  0.4687560000000 1.0
C      1  0.5326640000000  0.4217200000000  0.4413640000000 1.0
C      1  0.5419220000000  0.5828560000000  0.4572390000000 1.0
C      1  0.5286030000000  0.4395850000000  0.4847280000000 1.0
C      1  0.5633210000000  0.5115210000000  0.4145600000000 1.0
C      1  0.5514880000000  0.4961990000000  0.5579610000000 1.0
C      1  0.4861850000000  0.3899690000000  0.4415720000000 1.0
C      1  0.4614150000000  0.5776250000000  0.4226590000000 1.0
C      1  0.4325360000000  0.4515770000000  0.4407970000000 1.0
C      1  0.5415220000000  0.5211480000000  0.5023830000000 1.0
C      1  0.4886410000000  0.5059210000000  0.4406220000000 1.0
C      1  0.4969200000000  0.5367450000000  0.3941960000000 1.0
C      1  0.5275920000000  0.5625620000000  0.5384230000000 1.0
C      1  0.4776110000000  0.5249540000000  0.4833430000000 1.0
C      1  0.4127690000000  0.5741810000000  0.5041300000000 1.0
C      1  0.4687720000000  0.5045240000000  0.5819740000000 1.0
C      1  0.4519980000000  0.5582820000000  0.5927340000000 1.0
C      1  0.5530270000000  0.5697410000000  0.5105660000000 1.0
C      1  0.5916530000000  0.5379680000000  0.5277390000000 1.0
C      1  0.4506050000000  0.3982380000000  0.5279060000000 1.0
C      1  0.5323050000000  0.5366810000000  0.5511990000000 1.0
C      1  0.5674420000000  0.5138550000000  0.5780640000000 1.0
C      1  0.5792310000000  0.4944390000000  0.4828600000000 1.0
C      1  0.4529000000000  0.4982630000000  0.5186410000000 1.0
C      1  0.5647100000000  0.4700330000000  0.4726640000000 1.0
C      1  0.4673730000000  0.5941270000000  0.4738880000000 1.0
C      1  0.5348960000000  0.5831540000000  0.5593310000000 1.0
C      1  0.5377640000000  0.5057820000000  0.3998140000000 1.0
C      1  0.4915380000000  0.4540430000000  0.4461090000000 1.0
C      1  0.5499860000000  0.4649190000000  0.5465600000000 1.0
C      1  0.5688340000000  0.4664520000000  0.5925000000000 1.0
C      1  0.4205620000000  0.5325720000000  0.5558120000000 1.0
C      1  0.5401280000000  0.6030210000000  0.4854360000000 1.0
C      1  0.5315300000000  0.4759190000000  0.4002410000000 1.0
C      1  0.4627480000000  0.4054540000000  0.4434050000000 1.0
C      1  0.5815330000000  0.4650510000000  0.5680350000000 1.0
C      1  0.5911980000000  0.4362520000000  0.4843410000000 1.0
C      1  0.4347960000000  0.4041890000000  0.5037150000000 1.0
C      1  0.5554930000000  0.5217520000000  0.4513570000000 1.0
C      1  0.5183740000000  0.4527090000000  0.5526700000000 1.0
C      1  0.4556750000000  0.5903910000000  0.4473570000000 1.0
C      1  0.5119030000000  0.5714040000000  0.4622370000000 1.0
C      1  0.5076920000000  0.4401410000000  0.5803770000000 1.0
C      1  0.4856600000000  0.4815230000000  0.4848030000000 1.0
C      1  0.4957860000000  0.3976750000000  0.5510310000000 1.0
C      1  0.4456410000000  0.4410930000000  0.4672260000000 1.0
C      1  0.5050830000000  0.4794180000000  0.5509340000000 1.0
C      1  0.4238900000000  0.4794130000000  0.4372460000000 1.0
C      1  0.5741480000000  0.4632010000000  0.4230780000000 1.0
C      1  0.4266380000000  0.6103660000000  0.5000560000000 1.0
C      1  0.3858240000000  0.4688840000000  0.4691440000000 1.0
C      1  0.4907090000000  0.5947760000000  0.5689420000000 1.0
C      1  0.4987900000000  0.5685760000000  0.5341250000000 1.0
C      1  0.4706830000000  0.6139520000000  0.5181510000000 1.0
C      1  0.5540270000000  0.4729670000000  0.5162350000000 1.0
C      1  0.4331170000000  0.5407770000000  0.4735020000000 1.0
C      1  0.4378520000000  0.4566380000000  0.4945780000000 1.0
C      1  0.3949700000000  0.4701580000000  0.5169210000000 1.0
C      1  0.4962950000000  0.5009090000000  0.4107800000000 1.0
C      1  0.3952870000000  0.4433620000000  0.4773300000000 1.0
C      1  0.4618470000000  0.5921000000000  0.5606600000000 1.0
C      1  0.4821670000000  0.5478180000000  0.5517950000000 1.0
C      1  0.5628240000000  0.5189450000000  0.4806230000000 1.0
C      1  0.4416090000000  0.5751180000000  0.5731270000000 1.0
C      1  0.6045140000000  0.5349810000000  0.4521020000000 1.0
C      1  0.4843820000000  0.4534100000000  0.4931540000000 1.0
C      1  0.5209320000000  0.5436150000000  0.4950390000000 1.0
C      1  0.4787030000000  0.4815300000000  0.5628870000000 1.0
C      1  0.4968410000000  0.5960300000000  0.4709580000000 1.0
C      1  0.4098460000000  0.4467730000000  0.5024740000000 1.0
C      1  0.4129300000000  0.5032780000000  0.4887560000000 1.0
C      1  0.5938710000000  0.4507450000000  0.4405200000000 1.0
C      1  0.4737830000000  0.4346100000000  0.5350590000000 1.0
C      1  0.4083870000000  0.4879250000000  0.5385460000000 1.0
C      1  0.4480830000000  0.5475180000000  0.4215680000000 1.0
C      1  0.4570770000000  0.4915910000000  0.6053150000000 1.0
C      1  0.6124490000000  0.4702360000000  0.4588040000000 1.0
C      1  0.4797910000000  0.4373980000000  0.4689870000000 1.0
C      1  0.6124220000000  0.5335140000000  0.4795070000000 1.0
C      1  0.5511510000000  0.4074460000000  0.5355750000000 1.0
C      1  0.5607470000000  0.4233440000000  0.5574990000000 1.0
C      1  0.4659100000000  0.4647420000000  0.6018760000000 1.0
C      1  0.4135580000000  0.4205050000000  0.5164850000000 1.0
C      1  0.5176960000000  0.5321080000000  0.5922490000000 1.0
C      1  0.5318660000000  0.5116670000000  0.6085450000000 1.0
C      1  0.6033890000000  0.4986470000000  0.4655860000000 1.0
C      1  0.5662260000000  0.5414450000000  0.5698080000000 1.0
C      1  0.5507010000000  0.4188480000000  0.5829540000000 1.0
C      1  0.4169990000000  0.5618360000000  0.4589990000000 1.0
C      1  0.5325660000000  0.4351400000000  0.5958870000000 1.0
C      1  0.5665880000000  0.5417110000000  0.4193590000000 1.0
C      1  0.6142380000000  0.4552070000000  0.4851360000000 1.0
C      1  0.4408960000000  0.4920130000000  0.4153000000000 1.0
C      1  0.4977480000000  0.5574560000000  0.4373480000000 1.0
C      1  0.4023890000000  0.5243440000000  0.4414990000000 1.0
C      1  0.4382370000000  0.4873800000000  0.4950830000000 1.0
C      1  0.5431020000000  0.4620690000000  0.6024060000000 1.0
END
