TITL C-950531-5884-484 1.84377304418715e-06 125000 -388.458478207193 0 0 65 (C1) n - 1
REM
REM in /home/bkarasulu/work/CARBON/AIRSS/Generating-Clusters/EDIP-Nigel-Params/with-SteepDescent/Only-C1/SD-CG/HFTN-CG
REM
REM
REM
REM
REM
REM ./C.cell (11c1c37f851c82e70ff6c80c92926a4b)
REM
REM compiler GCC version 9.2.1 20190827 (Red Hat 9.2.1-1)
REM options -cpp -mtune=generic -march=x86-64 -g -O0 -fpre-include=/usr/include/finclude/math-vector-fortran.h
REM seed -1557321562 508051136 1578533465 314834151 -1183352733 -1023850897 -55898184 368948206 -1165295637 1260839214 125727262 -2061210728 1457402864 -282395307 -1397382485 616276186 -1485650657 -1910070567 -1768929477 1710917774 252063262 -1278943441 -473309668 958726733 658816803 -1142379331 -639293717 2117989351 1458381563 -112997844 135991286 1394592893 -255165115
REM
CELL 1.54180   50.00000   50.00000   50.00000   90.00000   90.00000   90.00000
LATT -1
SFAC C  
C      1  0.5382220000000  0.4644830000000  0.5563010000000 1.0
C      1  0.5697560000000  0.4576200000000  0.5258880000000 1.0
C      1  0.4856780000000  0.4767950000000  0.5247530000000 1.0
C      1  0.5500990000000  0.4951700000000  0.4558610000000 1.0
C      1  0.5098310000000  0.5090240000000  0.5004690000000 1.0
C      1  0.5120790000000  0.4522670000000  0.5591030000000 1.0
C      1  0.4910900000000  0.5263970000000  0.4232460000000 1.0
C      1  0.5038180000000  0.5510700000000  0.4264770000000 1.0
C      1  0.4726090000000  0.5387380000000  0.5320320000000 1.0
C      1  0.5367150000000  0.4712170000000  0.4437450000000 1.0
C      1  0.4845160000000  0.5676200000000  0.4955810000000 1.0
C      1  0.5100300000000  0.5385170000000  0.5616810000000 1.0
C      1  0.4840610000000  0.5068070000000  0.5166850000000 1.0
C      1  0.4403280000000  0.5503030000000  0.4970390000000 1.0
C      1  0.4574610000000  0.4784520000000  0.4517930000000 1.0
C      1  0.4873060000000  0.4615650000000  0.4358950000000 1.0
C      1  0.5066580000000  0.4636940000000  0.5088930000000 1.0
C      1  0.5299210000000  0.5400750000000  0.5410980000000 1.0
C      1  0.4888420000000  0.4359610000000  0.4494410000000 1.0
C      1  0.4847990000000  0.5546870000000  0.4696890000000 1.0
C      1  0.5064350000000  0.4697340000000  0.4803890000000 1.0
C      1  0.5018620000000  0.5001260000000  0.4731340000000 1.0
C      1  0.4413210000000  0.4893190000000  0.5277150000000 1.0
C      1  0.4602000000000  0.5511360000000  0.4549810000000 1.0
C      1  0.5685470000000  0.5305860000000  0.5147380000000 1.0
C      1  0.4626140000000  0.5577160000000  0.5122740000000 1.0
C      1  0.5304510000000  0.5390500000000  0.4640790000000 1.0
C      1  0.4493800000000  0.5234150000000  0.5733110000000 1.0
C      1  0.4465000000000  0.4618430000000  0.5375670000000 1.0
C      1  0.5541310000000  0.5242280000000  0.5406620000000 1.0
C      1  0.4490040000000  0.5035900000000  0.4415730000000 1.0
C      1  0.5568160000000  0.5136450000000  0.4889200000000 1.0
C      1  0.4780580000000  0.5183090000000  0.5707500000000 1.0
C      1  0.5582400000000  0.4459670000000  0.5489070000000 1.0
C      1  0.5560510000000  0.5551300000000  0.5042000000000 1.0
C      1  0.4278320000000  0.5064690000000  0.5465570000000 1.0
C      1  0.4520570000000  0.4747020000000  0.4802900000000 1.0
C      1  0.4613390000000  0.4476060000000  0.5172540000000 1.0
C      1  0.4871220000000  0.5516800000000  0.5529640000000 1.0
C      1  0.4368510000000  0.5506530000000  0.4703480000000 1.0
C      1  0.5337280000000  0.5163540000000  0.4469120000000 1.0
C      1  0.5384330000000  0.4948500000000  0.5065440000000 1.0
C      1  0.4642190000000  0.5281440000000  0.4362740000000 1.0
C      1  0.4557650000000  0.4984990000000  0.5003690000000 1.0
C      1  0.5536190000000  0.5501860000000  0.4760040000000 1.0
C      1  0.5089720000000  0.5059760000000  0.4355730000000 1.0
C      1  0.5152830000000  0.4285540000000  0.4546610000000 1.0
C      1  0.4847540000000  0.4906230000000  0.5748730000000 1.0
C      1  0.5767990000000  0.4838860000000  0.5339210000000 1.0
C      1  0.5099990000000  0.4371080000000  0.5175130000000 1.0
C      1  0.5505730000000  0.4634030000000  0.5041660000000 1.0
C      1  0.4887570000000  0.4705800000000  0.5545640000000 1.0
C      1  0.4336480000000  0.5331050000000  0.5522930000000 1.0
C      1  0.4723430000000  0.5122400000000  0.4708620000000 1.0
C      1  0.5088820000000  0.5722270000000  0.5085230000000 1.0
C      1  0.5494520000000  0.4463450000000  0.4819840000000 1.0
C      1  0.4560070000000  0.4478940000000  0.4892250000000 1.0
C      1  0.4620770000000  0.4616060000000  0.5625220000000 1.0
C      1  0.5098150000000  0.4288490000000  0.5435090000000 1.0
C      1  0.4700930000000  0.4323890000000  0.4703170000000 1.0
C      1  0.5112690000000  0.4772340000000  0.4278400000000 1.0
C      1  0.5092650000000  0.5568580000000  0.4538020000000 1.0
C      1  0.5495170000000  0.4951870000000  0.5366960000000 1.0
C      1  0.5310440000000  0.5594290000000  0.5195840000000 1.0
C      1  0.5270560000000  0.4531090000000  0.4651850000000 1.0
END
