TITL C-951342-2639-4 2.06864758245831e-06 125000 -744.236392436363 0 0 120 (C1) n - 1
REM
REM in /home/bkarasulu/work/CARBON/AIRSS/Generating-Clusters/EDIP-Nigel-Params/with-SteepDescent/Only-C1/SD-CG/HFTN-CG
REM
REM
REM
REM
REM
REM ./C.cell (11c1c37f851c82e70ff6c80c92926a4b)
REM
REM compiler GCC version 9.2.1 20190827 (Red Hat 9.2.1-1)
REM options -cpp -mtune=generic -march=x86-64 -g -O0 -fpre-include=/usr/include/finclude/math-vector-fortran.h
REM seed 261440556 1237803970 351039754 2032342192 1710277826 -2020842339 395944274 -1902766437 -313553276 699827917 1071873891 -242629733 1261051193 -1639858120 912667822 -1830076868 1989245807 1956816805 -308731609 -605493584 -240133369 1308399895 683397154 385995338 1046430447 420524494 1614075561 -678995685 1717485434 -1164626633 -700122215 -1990445101 -1300833485
REM
CELL 1.54180   50.00000   50.00000   50.00000   90.00000   90.00000   90.00000
LATT -1
SFAC C  
C      1  0.5252820000000  0.5243670000000  0.5753890000000 1.0
C      1  0.5056120000000  0.4822590000000  0.5934520000000 1.0
C      1  0.5618010000000  0.5495670000000  0.5059350000000 1.0
C      1  0.5361400000000  0.5130960000000  0.4071290000000 1.0
C      1  0.4868300000000  0.4016270000000  0.5595860000000 1.0
C      1  0.4739100000000  0.5395600000000  0.4669120000000 1.0
C      1  0.4511540000000  0.4695990000000  0.5318530000000 1.0
C      1  0.4846810000000  0.5724890000000  0.4289090000000 1.0
C      1  0.4546920000000  0.5155840000000  0.4715030000000 1.0
C      1  0.5494350000000  0.4580870000000  0.4630480000000 1.0
C      1  0.4223310000000  0.5286780000000  0.5469370000000 1.0
C      1  0.4505340000000  0.4957070000000  0.5736330000000 1.0
C      1  0.4617450000000  0.5797850000000  0.4438530000000 1.0
C      1  0.5623090000000  0.4626560000000  0.5084020000000 1.0
C      1  0.5837400000000  0.4595340000000  0.5277790000000 1.0
C      1  0.4777610000000  0.4759640000000  0.4860290000000 1.0
C      1  0.4574130000000  0.4619410000000  0.5034710000000 1.0
C      1  0.5520560000000  0.5122330000000  0.5759440000000 1.0
C      1  0.5166070000000  0.5031970000000  0.4948770000000 1.0
C      1  0.5009530000000  0.5082220000000  0.5834690000000 1.0
C      1  0.4674620000000  0.5406850000000  0.5631920000000 1.0
C      1  0.5729050000000  0.4860140000000  0.4901480000000 1.0
C      1  0.5463440000000  0.5897730000000  0.5260260000000 1.0
C      1  0.4679120000000  0.4627360000000  0.4055000000000 1.0
C      1  0.4564640000000  0.5611170000000  0.5159830000000 1.0
C      1  0.4545220000000  0.4689300000000  0.5812840000000 1.0
C      1  0.4668740000000  0.5456370000000  0.4251580000000 1.0
C      1  0.4474430000000  0.5144710000000  0.5012110000000 1.0
C      1  0.5798400000000  0.5134020000000  0.5329060000000 1.0
C      1  0.5320830000000  0.4413460000000  0.5781300000000 1.0
C      1  0.4694040000000  0.4231670000000  0.5570200000000 1.0
C      1  0.4414420000000  0.4706640000000  0.4506110000000 1.0
C      1  0.5120180000000  0.4480390000000  0.5092540000000 1.0
C      1  0.4644240000000  0.4884890000000  0.4607800000000 1.0
C      1  0.4344480000000  0.4461830000000  0.5427340000000 1.0
C      1  0.4400650000000  0.5279960000000  0.4258940000000 1.0
C      1  0.5551720000000  0.5605060000000  0.4486220000000 1.0
C      1  0.5206510000000  0.5287630000000  0.4259320000000 1.0
C      1  0.5454390000000  0.5803670000000  0.4693590000000 1.0
C      1  0.4365410000000  0.5419840000000  0.5039670000000 1.0
C      1  0.4063920000000  0.4802740000000  0.5121110000000 1.0
C      1  0.4965950000000  0.4023680000000  0.5045370000000 1.0
C      1  0.5018660000000  0.4574700000000  0.4814980000000 1.0
C      1  0.4161530000000  0.4751060000000  0.4652130000000 1.0
C      1  0.4636780000000  0.5806850000000  0.4940760000000 1.0
C      1  0.5414550000000  0.4366030000000  0.4425210000000 1.0
C      1  0.5419700000000  0.4171040000000  0.4869200000000 1.0
C      1  0.4585750000000  0.5657450000000  0.4684830000000 1.0
C      1  0.4832880000000  0.4958550000000  0.4372320000000 1.0
C      1  0.5657640000000  0.5677070000000  0.5306310000000 1.0
C      1  0.5342630000000  0.4638650000000  0.5234840000000 1.0
C      1  0.5587350000000  0.4416910000000  0.4865470000000 1.0
C      1  0.4782440000000  0.4670970000000  0.5453430000000 1.0
C      1  0.4411460000000  0.5496140000000  0.5560400000000 1.0
C      1  0.5709850000000  0.4796620000000  0.4611760000000 1.0
C      1  0.5129730000000  0.4893340000000  0.4444380000000 1.0
C      1  0.5462900000000  0.4869070000000  0.5635450000000 1.0
C      1  0.5288480000000  0.4112650000000  0.5354480000000 1.0
C      1  0.4692570000000  0.4450830000000  0.4270130000000 1.0
C      1  0.4149440000000  0.4601650000000  0.4910440000000 1.0
C      1  0.4261750000000  0.4330960000000  0.4915870000000 1.0
C      1  0.5731340000000  0.5270950000000  0.5601580000000 1.0
C      1  0.4093700000000  0.5070490000000  0.4998550000000 1.0
C      1  0.5315070000000  0.5499310000000  0.5635020000000 1.0
C      1  0.5547440000000  0.4930790000000  0.4176300000000 1.0
C      1  0.5527030000000  0.5179340000000  0.4735240000000 1.0
C      1  0.4770650000000  0.5139300000000  0.5221800000000 1.0
C      1  0.4930730000000  0.5873470000000  0.4977910000000 1.0
C      1  0.4688720000000  0.4454670000000  0.5762630000000 1.0
C      1  0.5457530000000  0.4661290000000  0.5834840000000 1.0
C      1  0.5570480000000  0.5199190000000  0.5124600000000 1.0
C      1  0.5282780000000  0.4157860000000  0.4605540000000 1.0
C      1  0.5090570000000  0.5674130000000  0.4466050000000 1.0
C      1  0.4299870000000  0.5010330000000  0.5530390000000 1.0
C      1  0.5959980000000  0.4851600000000  0.5278950000000 1.0
C      1  0.4931530000000  0.4934740000000  0.5428380000000 1.0
C      1  0.5232810000000  0.4741260000000  0.4694800000000 1.0
C      1  0.5209710000000  0.4191320000000  0.5077970000000 1.0
C      1  0.4535640000000  0.4317440000000  0.5027500000000 1.0
C      1  0.4947090000000  0.4430090000000  0.4401130000000 1.0
C      1  0.4457580000000  0.5049220000000  0.4106300000000 1.0
C      1  0.5997000000000  0.4956510000000  0.4993830000000 1.0
C      1  0.4306020000000  0.5229600000000  0.4552730000000 1.0
C      1  0.5260770000000  0.4781660000000  0.4201680000000 1.0
C      1  0.5695290000000  0.5018990000000  0.4420920000000 1.0
C      1  0.4094090000000  0.5045810000000  0.4683820000000 1.0
C      1  0.4693320000000  0.4897940000000  0.4113780000000 1.0
C      1  0.5221180000000  0.5183040000000  0.4686800000000 1.0
C      1  0.5072570000000  0.5592790000000  0.4986380000000 1.0
C      1  0.4467130000000  0.4439160000000  0.4433460000000 1.0
C      1  0.4729760000000  0.5150740000000  0.5754730000000 1.0
C      1  0.5320960000000  0.4362530000000  0.5498680000000 1.0
C      1  0.4122130000000  0.5339640000000  0.5190960000000 1.0
C      1  0.4854740000000  0.5619440000000  0.5581850000000 1.0
C      1  0.5851670000000  0.5452030000000  0.4865260000000 1.0
C      1  0.6004970000000  0.5248940000000  0.5016780000000 1.0
C      1  0.5036640000000  0.6037260000000  0.4769190000000 1.0
C      1  0.5205380000000  0.5921630000000  0.4584820000000 1.0
C      1  0.5203140000000  0.4481240000000  0.4255450000000 1.0
C      1  0.4985610000000  0.6010810000000  0.5226760000000 1.0
C      1  0.5195410000000  0.5888970000000  0.5364900000000 1.0
C      1  0.4984450000000  0.4238880000000  0.4626670000000 1.0
C      1  0.5053290000000  0.3938630000000  0.5407780000000 1.0
C      1  0.4844680000000  0.5457860000000  0.5227770000000 1.0
C      1  0.5383950000000  0.5676010000000  0.4959280000000 1.0
C      1  0.5304010000000  0.5116420000000  0.5194650000000 1.0
C      1  0.4900390000000  0.5255700000000  0.4335630000000 1.0
C      1  0.5039530000000  0.5456090000000  0.4707140000000 1.0
C      1  0.5310330000000  0.5551140000000  0.4313610000000 1.0
C      1  0.4777360000000  0.4162160000000  0.4871660000000 1.0
C      1  0.4142450000000  0.4785990000000  0.5407830000000 1.0
C      1  0.4502630000000  0.4235960000000  0.5338230000000 1.0
C      1  0.4429880000000  0.5729660000000  0.5396480000000 1.0
C      1  0.4915200000000  0.4486420000000  0.5284240000000 1.0
C      1  0.5120760000000  0.5654040000000  0.5505270000000 1.0
C      1  0.5597010000000  0.5532880000000  0.5563310000000 1.0
C      1  0.5720030000000  0.5371640000000  0.4591870000000 1.0
C      1  0.5252950000000  0.4897850000000  0.5388670000000 1.0
C      1  0.5093570000000  0.4546680000000  0.5912950000000 1.0
C      1  0.4889080000000  0.4999290000000  0.4991620000000 1.0
END
