TITL C-951333-8791-700 -6.23968549504594e-08 125000 -391.137117220217 0 0 63 (C1) n - 1
REM
REM in /home/bkarasulu/work/CARBON/AIRSS/Generating-Clusters/EDIP-Nigel-Params/with-SteepDescent/Only-C1/SD-CG/HFTN-CG
REM
REM
REM
REM
REM
REM ./C.cell (11c1c37f851c82e70ff6c80c92926a4b)
REM
REM compiler GCC version 9.2.1 20190827 (Red Hat 9.2.1-1)
REM options -cpp -mtune=generic -march=x86-64 -g -O0 -fpre-include=/usr/include/finclude/math-vector-fortran.h
REM seed -1196310922 847170656 1884252480 1602508685 1143856736 1041118499 -1698360395 1958496522 -634963563 1780246861 -267009351 831284312 -1046183170 -1661382347 472404193 1434550742 2137328383 1801787568 -2114871164 -2123748382 -1385001436 1492508516 1321627580 -1446744806 -1938477513 650650290 1822447379 2030542437 1453247762 1245463645 -266471516 806659888 344837310
REM
CELL 1.54180   50.00000   50.00000   50.00000   90.00000   90.00000   90.00000
LATT -1
SFAC C  
C      1  0.4508920000000  0.4408590000000  0.4996770000000 1.0
C      1  0.4500830000000  0.4883940000000  0.5585490000000 1.0
C      1  0.4982150000000  0.4506070000000  0.4738930000000 1.0
C      1  0.5294390000000  0.5101140000000  0.4879850000000 1.0
C      1  0.5550190000000  0.5215990000000  0.5381530000000 1.0
C      1  0.5340420000000  0.4901750000000  0.4493730000000 1.0
C      1  0.5580070000000  0.4928960000000  0.5348670000000 1.0
C      1  0.4768930000000  0.4766500000000  0.5585340000000 1.0
C      1  0.4877650000000  0.5561360000000  0.5372650000000 1.0
C      1  0.5488970000000  0.4749710000000  0.4689420000000 1.0
C      1  0.5205450000000  0.4885090000000  0.5115090000000 1.0
C      1  0.5069060000000  0.4785680000000  0.4823130000000 1.0
C      1  0.4576350000000  0.5424760000000  0.4557310000000 1.0
C      1  0.4625650000000  0.4954900000000  0.4538570000000 1.0
C      1  0.4435360000000  0.4509300000000  0.4540910000000 1.0
C      1  0.5685670000000  0.4902400000000  0.4852380000000 1.0
C      1  0.5411770000000  0.4492370000000  0.5451670000000 1.0
C      1  0.4924140000000  0.5024320000000  0.5561840000000 1.0
C      1  0.4548760000000  0.5335280000000  0.5020810000000 1.0
C      1  0.4377340000000  0.5013320000000  0.5359250000000 1.0
C      1  0.5001600000000  0.4373040000000  0.5326660000000 1.0
C      1  0.4305220000000  0.4832540000000  0.4887210000000 1.0
C      1  0.5354520000000  0.4864300000000  0.5775480000000 1.0
C      1  0.5394850000000  0.5605800000000  0.4635600000000 1.0
C      1  0.4580520000000  0.4605800000000  0.5181410000000 1.0
C      1  0.5590710000000  0.5195150000000  0.4861610000000 1.0
C      1  0.5354270000000  0.4354530000000  0.4977130000000 1.0
C      1  0.4968600000000  0.5081950000000  0.4255750000000 1.0
C      1  0.4816370000000  0.5746900000000  0.5172590000000 1.0
C      1  0.4434090000000  0.5309500000000  0.5306130000000 1.0
C      1  0.4984160000000  0.5084270000000  0.5251580000000 1.0
C      1  0.4911290000000  0.4595470000000  0.4458020000000 1.0
C      1  0.4680410000000  0.5600730000000  0.4977170000000 1.0
C      1  0.5298250000000  0.5486650000000  0.5089340000000 1.0
C      1  0.4494000000000  0.4878970000000  0.5117230000000 1.0
C      1  0.5420970000000  0.5174120000000  0.4404790000000 1.0
C      1  0.5189100000000  0.4348870000000  0.5537850000000 1.0
C      1  0.4693870000000  0.5152750000000  0.4327580000000 1.0
C      1  0.5076650000000  0.4837550000000  0.4384710000000 1.0
C      1  0.5712050000000  0.4798260000000  0.5120370000000 1.0
C      1  0.5170730000000  0.5281920000000  0.4303360000000 1.0
C      1  0.5559890000000  0.5359000000000  0.5120050000000 1.0
C      1  0.5036560000000  0.5499910000000  0.4733490000000 1.0
C      1  0.5185860000000  0.5077210000000  0.5705970000000 1.0
C      1  0.5414100000000  0.4566180000000  0.5168070000000 1.0
C      1  0.5424500000000  0.4477210000000  0.4734890000000 1.0
C      1  0.5303700000000  0.5299230000000  0.5539330000000 1.0
C      1  0.5071770000000  0.5210290000000  0.4665400000000 1.0
C      1  0.4643090000000  0.5420100000000  0.5496470000000 1.0
C      1  0.4804800000000  0.4588360000000  0.5354620000000 1.0
C      1  0.4393060000000  0.5301910000000  0.4756420000000 1.0
C      1  0.5111000000000  0.5375940000000  0.5310070000000 1.0
C      1  0.5497040000000  0.4750120000000  0.5565320000000 1.0
C      1  0.4738060000000  0.5219450000000  0.5668630000000 1.0
C      1  0.5077780000000  0.4303300000000  0.5047130000000 1.0
C      1  0.4352750000000  0.4546550000000  0.4805550000000 1.0
C      1  0.4628880000000  0.4675350000000  0.4426920000000 1.0
C      1  0.5551380000000  0.5356150000000  0.4603050000000 1.0
C      1  0.5320900000000  0.5701280000000  0.4895140000000 1.0
C      1  0.4762180000000  0.5606270000000  0.4697790000000 1.0
C      1  0.4847890000000  0.5003930000000  0.4758860000000 1.0
C      1  0.4359200000000  0.5022220000000  0.4666240000000 1.0
C      1  0.4731300000000  0.5079540000000  0.5035720000000 1.0
END
