TITL C-951339-9237-80 -2.9046657991923e-06 125000 -918.26530653949 0 0 147 (C1) n - 1
REM
REM in /home/bkarasulu/work/CARBON/AIRSS/Generating-Clusters/EDIP-Nigel-Params/with-SteepDescent/Only-C1/SD-CG/HFTN-CG
REM
REM
REM
REM
REM
REM ./C.cell (11c1c37f851c82e70ff6c80c92926a4b)
REM
REM compiler GCC version 9.2.1 20190827 (Red Hat 9.2.1-1)
REM options -cpp -mtune=generic -march=x86-64 -g -O0 -fpre-include=/usr/include/finclude/math-vector-fortran.h
REM seed 1677491763 471313616 520407534 2057007281 -617861581 1206650792 -828984333 -1042447815 240646 -1240702210 157373475 2133669720 -2070089315 -725818861 598439902 -914950599 -139947418 2066946377 760151886 321404387 528813940 -1282510957 1097916509 -421554765 -2133632191 258623993 1488183496 -1180568725 1796165534 -1257338512 -1428265695 -1674511411 -1859319886
REM
CELL 1.54180   50.00000   50.00000   50.00000   90.00000   90.00000   90.00000
LATT -1
SFAC C  
C      1  0.4283610000000  0.4166500000000  0.4650050000000 1.0
C      1  0.5409750000000  0.4836230000000  0.5437480000000 1.0
C      1  0.5015520000000  0.5186120000000  0.5573270000000 1.0
C      1  0.5941230000000  0.4834750000000  0.5215450000000 1.0
C      1  0.4246390000000  0.5034220000000  0.5758870000000 1.0
C      1  0.5648400000000  0.5169060000000  0.5190830000000 1.0
C      1  0.4148020000000  0.4363030000000  0.4798150000000 1.0
C      1  0.4761390000000  0.4597970000000  0.5189630000000 1.0
C      1  0.4694760000000  0.4690670000000  0.4591070000000 1.0
C      1  0.4106360000000  0.5207730000000  0.5349330000000 1.0
C      1  0.4870130000000  0.4854670000000  0.4061040000000 1.0
C      1  0.4620570000000  0.5145280000000  0.5303720000000 1.0
C      1  0.5809410000000  0.5635360000000  0.4983220000000 1.0
C      1  0.4524650000000  0.4117980000000  0.4516650000000 1.0
C      1  0.5020200000000  0.4008090000000  0.4607600000000 1.0
C      1  0.5878960000000  0.5277170000000  0.5338270000000 1.0
C      1  0.4489610000000  0.4348050000000  0.5510560000000 1.0
C      1  0.5041790000000  0.5238390000000  0.4441450000000 1.0
C      1  0.5322120000000  0.4252630000000  0.4287000000000 1.0
C      1  0.4325910000000  0.5721280000000  0.4741820000000 1.0
C      1  0.4883210000000  0.5142150000000  0.4656400000000 1.0
C      1  0.6002810000000  0.5512660000000  0.4798780000000 1.0
C      1  0.4920610000000  0.5920990000000  0.4632560000000 1.0
C      1  0.4027540000000  0.5200980000000  0.4810630000000 1.0
C      1  0.5024090000000  0.4617390000000  0.4205940000000 1.0
C      1  0.5313960000000  0.4753930000000  0.5150900000000 1.0
C      1  0.5968610000000  0.4629870000000  0.4766160000000 1.0
C      1  0.5445670000000  0.4988580000000  0.3947630000000 1.0
C      1  0.6096470000000  0.5235870000000  0.4885790000000 1.0
C      1  0.5239790000000  0.4456660000000  0.5103520000000 1.0
C      1  0.5369990000000  0.5434050000000  0.4057150000000 1.0
C      1  0.4130430000000  0.4366170000000  0.5100200000000 1.0
C      1  0.6109340000000  0.5154240000000  0.5178580000000 1.0
C      1  0.5246850000000  0.4986250000000  0.4455760000000 1.0
C      1  0.3866420000000  0.5044770000000  0.5279220000000 1.0
C      1  0.5141990000000  0.4767670000000  0.5963000000000 1.0
C      1  0.5530200000000  0.5536260000000  0.5650320000000 1.0
C      1  0.4428410000000  0.4599320000000  0.5647090000000 1.0
C      1  0.5744380000000  0.4208980000000  0.5332260000000 1.0
C      1  0.5534690000000  0.4623710000000  0.4564810000000 1.0
C      1  0.5846890000000  0.5095480000000  0.4779850000000 1.0
C      1  0.4582280000000  0.4351880000000  0.4338300000000 1.0
C      1  0.5899050000000  0.4928180000000  0.4539730000000 1.0
C      1  0.5272780000000  0.5564300000000  0.4783930000000 1.0
C      1  0.4851250000000  0.5617310000000  0.4194900000000 1.0
C      1  0.5559590000000  0.4532970000000  0.5627800000000 1.0
C      1  0.4302810000000  0.4831660000000  0.5040660000000 1.0
C      1  0.5315650000000  0.5142680000000  0.5503240000000 1.0
C      1  0.4909920000000  0.5181360000000  0.6146390000000 1.0
C      1  0.4844900000000  0.5321620000000  0.4198800000000 1.0
C      1  0.5537410000000  0.4665310000000  0.4268080000000 1.0
C      1  0.5143150000000  0.5049030000000  0.6050760000000 1.0
C      1  0.5316740000000  0.4508710000000  0.4143480000000 1.0
C      1  0.4443170000000  0.5161700000000  0.4657730000000 1.0
C      1  0.5526870000000  0.5593730000000  0.5359610000000 1.0
C      1  0.4903830000000  0.4763510000000  0.4986260000000 1.0
C      1  0.5745240000000  0.4844470000000  0.5479440000000 1.0
C      1  0.4594180000000  0.4905950000000  0.4173710000000 1.0
C      1  0.5617020000000  0.5813370000000  0.4886210000000 1.0
C      1  0.4470250000000  0.4704280000000  0.4373430000000 1.0
C      1  0.4934510000000  0.5914740000000  0.5519170000000 1.0
C      1  0.4895460000000  0.6011170000000  0.5238250000000 1.0
C      1  0.5079470000000  0.4586100000000  0.5572560000000 1.0
C      1  0.5145350000000  0.5939330000000  0.5104060000000 1.0
C      1  0.4010230000000  0.4600030000000  0.4668400000000 1.0
C      1  0.4534050000000  0.5356670000000  0.4855870000000 1.0
C      1  0.5062210000000  0.4933800000000  0.5148830000000 1.0
C      1  0.5165360000000  0.5990920000000  0.4813200000000 1.0
C      1  0.4954940000000  0.5402240000000  0.5084100000000 1.0
C      1  0.4058010000000  0.4660520000000  0.5130510000000 1.0
C      1  0.5643870000000  0.4297220000000  0.4864220000000 1.0
C      1  0.5812190000000  0.5574410000000  0.5268920000000 1.0
C      1  0.5365950000000  0.5063060000000  0.4737580000000 1.0
C      1  0.4749310000000  0.4029720000000  0.4724270000000 1.0
C      1  0.4592970000000  0.5877350000000  0.4836080000000 1.0
C      1  0.3863380000000  0.4730200000000  0.4913020000000 1.0
C      1  0.5677720000000  0.5361120000000  0.4444470000000 1.0
C      1  0.5233440000000  0.4240440000000  0.5314440000000 1.0
C      1  0.5341670000000  0.4317990000000  0.4849370000000 1.0
C      1  0.5358890000000  0.5864340000000  0.5303670000000 1.0
C      1  0.4381350000000  0.5314800000000  0.4416580000000 1.0
C      1  0.5274990000000  0.4476510000000  0.4585290000000 1.0
C      1  0.5283520000000  0.5639900000000  0.5739310000000 1.0
C      1  0.4815180000000  0.4719970000000  0.5483440000000 1.0
C      1  0.5227960000000  0.4039200000000  0.4834010000000 1.0
C      1  0.4350880000000  0.5028150000000  0.5270160000000 1.0
C      1  0.4572570000000  0.4482010000000  0.4762720000000 1.0
C      1  0.4395530000000  0.5603630000000  0.4477240000000 1.0
C      1  0.4538710000000  0.5277280000000  0.5720090000000 1.0
C      1  0.5056970000000  0.4168440000000  0.4356410000000 1.0
C      1  0.3829690000000  0.5032890000000  0.4970730000000 1.0
C      1  0.5004270000000  0.5723110000000  0.4408460000000 1.0
C      1  0.5028220000000  0.4305010000000  0.5524850000000 1.0
C      1  0.5422810000000  0.5907150000000  0.4716590000000 1.0
C      1  0.4563740000000  0.5204490000000  0.4207040000000 1.0
C      1  0.4104490000000  0.5256910000000  0.5646820000000 1.0
C      1  0.5479360000000  0.4827550000000  0.4896540000000 1.0
C      1  0.4305210000000  0.5617180000000  0.5410190000000 1.0
C      1  0.5440580000000  0.5503160000000  0.4316540000000 1.0
C      1  0.5592000000000  0.5264370000000  0.4708270000000 1.0
C      1  0.4713100000000  0.5540720000000  0.4686120000000 1.0
C      1  0.5727930000000  0.4948670000000  0.5010290000000 1.0
C      1  0.4310390000000  0.5463180000000  0.5669130000000 1.0
C      1  0.4747750000000  0.4215800000000  0.5116200000000 1.0
C      1  0.4193520000000  0.4790540000000  0.4523500000000 1.0
C      1  0.4893430000000  0.4624490000000  0.5905100000000 1.0
C      1  0.5519730000000  0.5244980000000  0.5714240000000 1.0
C      1  0.4781500000000  0.4903760000000  0.4768070000000 1.0
C      1  0.4859690000000  0.4361800000000  0.4247810000000 1.0
C      1  0.5405300000000  0.5316740000000  0.5254790000000 1.0
C      1  0.4988420000000  0.5132450000000  0.4013530000000 1.0
C      1  0.5197120000000  0.5506500000000  0.4491150000000 1.0
C      1  0.4920210000000  0.5428420000000  0.6003270000000 1.0
C      1  0.5750850000000  0.5086840000000  0.4331470000000 1.0
C      1  0.4841250000000  0.3938220000000  0.5089860000000 1.0
C      1  0.4877920000000  0.5000430000000  0.5392400000000 1.0
C      1  0.4944030000000  0.5619650000000  0.4882050000000 1.0
C      1  0.4201790000000  0.4786600000000  0.5608350000000 1.0
C      1  0.4572660000000  0.5699340000000  0.5340390000000 1.0
C      1  0.4718900000000  0.5238710000000  0.5052390000000 1.0
C      1  0.5266430000000  0.5198950000000  0.3950360000000 1.0
C      1  0.4383010000000  0.4277050000000  0.5241690000000 1.0
C      1  0.4751460000000  0.4248850000000  0.5550810000000 1.0
C      1  0.5762220000000  0.4461140000000  0.4653060000000 1.0
C      1  0.5070130000000  0.4712300000000  0.4493900000000 1.0
C      1  0.5973120000000  0.4579770000000  0.5056630000000 1.0
C      1  0.5366510000000  0.5236860000000  0.5993670000000 1.0
C      1  0.5911230000000  0.5520610000000  0.4525260000000 1.0
C      1  0.4631410000000  0.4709790000000  0.5821610000000 1.0
C      1  0.4635370000000  0.5904420000000  0.5137380000000 1.0
C      1  0.4773920000000  0.4296590000000  0.4839520000000 1.0
C      1  0.4232610000000  0.4984990000000  0.4755100000000 1.0
C      1  0.3972600000000  0.4772250000000  0.5398530000000 1.0
C      1  0.4763150000000  0.5678830000000  0.5563360000000 1.0
C      1  0.4125690000000  0.5479720000000  0.5217450000000 1.0
C      1  0.5220070000000  0.5870690000000  0.5568820000000 1.0
C      1  0.5509500000000  0.4282170000000  0.5464490000000 1.0
C      1  0.5788540000000  0.5123660000000  0.5608340000000 1.0
C      1  0.5128440000000  0.3986890000000  0.5114550000000 1.0
C      1  0.4171090000000  0.5474380000000  0.4920430000000 1.0
C      1  0.4817900000000  0.5398100000000  0.5714300000000 1.0
C      1  0.5762230000000  0.4383140000000  0.5113500000000 1.0
C      1  0.5365690000000  0.4635950000000  0.5827860000000 1.0
C      1  0.5231590000000  0.5312760000000  0.5003510000000 1.0
C      1  0.5209770000000  0.5499240000000  0.5988960000000 1.0
C      1  0.5499720000000  0.4949470000000  0.4233430000000 1.0
C      1  0.4496910000000  0.4587350000000  0.5036610000000 1.0
END
