TITL C-951333-8791-450 3.44703465009232e-08 125000 -646.804418526861 0 0 103 (C1) n - 1
REM
REM in /home/bkarasulu/work/CARBON/AIRSS/Generating-Clusters/EDIP-Nigel-Params/with-SteepDescent/Only-C1/SD-CG/HFTN-CG
REM
REM
REM
REM
REM
REM ./C.cell (11c1c37f851c82e70ff6c80c92926a4b)
REM
REM compiler GCC version 9.2.1 20190827 (Red Hat 9.2.1-1)
REM options -cpp -mtune=generic -march=x86-64 -g -O0 -fpre-include=/usr/include/finclude/math-vector-fortran.h
REM seed 357699904 -1373917503 -2008209314 705842441 899011696 2122809109 -1383947284 -1434417440 -1565585183 618530142 284711514 2062890703 1852954279 1006378455 -2052885758 -1407362957 1732801179 -1266373648 1240756743 1700718150 956570865 1580789273 2146914770 1804263108 -888932183 -122998662 -1880902141 581441657 570951498 1383583588 126319729 -946142784 1714916859
REM
CELL 1.54180   50.00000   50.00000   50.00000   90.00000   90.00000   90.00000
LATT -1
SFAC C  
C      1  0.5645560000000  0.5098270000000  0.5592080000000 1.0
C      1  0.4294410000000  0.4790740000000  0.4750630000000 1.0
C      1  0.5552580000000  0.4597440000000  0.5516710000000 1.0
C      1  0.5761480000000  0.4487370000000  0.4838400000000 1.0
C      1  0.4777310000000  0.5533490000000  0.4500170000000 1.0
C      1  0.5059590000000  0.5379140000000  0.4970960000000 1.0
C      1  0.4277700000000  0.5116010000000  0.5040770000000 1.0
C      1  0.4529890000000  0.4454730000000  0.4970920000000 1.0
C      1  0.5586670000000  0.4511640000000  0.4596620000000 1.0
C      1  0.5766290000000  0.4820600000000  0.5523380000000 1.0
C      1  0.5641280000000  0.4777110000000  0.4494350000000 1.0
C      1  0.4682320000000  0.5267040000000  0.4122540000000 1.0
C      1  0.4255270000000  0.4591500000000  0.4981550000000 1.0
C      1  0.5442820000000  0.4891370000000  0.5156900000000 1.0
C      1  0.5912230000000  0.5143980000000  0.4663080000000 1.0
C      1  0.4961140000000  0.5948860000000  0.5047250000000 1.0
C      1  0.5241020000000  0.5034580000000  0.5354210000000 1.0
C      1  0.4211060000000  0.4513270000000  0.5454360000000 1.0
C      1  0.5176070000000  0.5205310000000  0.4062560000000 1.0
C      1  0.4424970000000  0.4959550000000  0.5777810000000 1.0
C      1  0.4992810000000  0.5624390000000  0.4678030000000 1.0
C      1  0.4576270000000  0.4218340000000  0.5142410000000 1.0
C      1  0.5363570000000  0.5421040000000  0.4402350000000 1.0
C      1  0.5352160000000  0.5083760000000  0.5648500000000 1.0
C      1  0.5878550000000  0.4869830000000  0.4641080000000 1.0
C      1  0.4847090000000  0.4673220000000  0.5804620000000 1.0
C      1  0.4948300000000  0.4789270000000  0.4596230000000 1.0
C      1  0.4367250000000  0.5531500000000  0.5261300000000 1.0
C      1  0.4580830000000  0.4433940000000  0.4661220000000 1.0
C      1  0.4308710000000  0.5120250000000  0.5549920000000 1.0
C      1  0.4343130000000  0.4958820000000  0.5286160000000 1.0
C      1  0.5055950000000  0.4607610000000  0.4360330000000 1.0
C      1  0.4563670000000  0.5111810000000  0.5966920000000 1.0
C      1  0.4479520000000  0.4509030000000  0.5528450000000 1.0
C      1  0.5484410000000  0.5581850000000  0.4644770000000 1.0
C      1  0.5014940000000  0.4634990000000  0.5081480000000 1.0
C      1  0.5278160000000  0.4691790000000  0.4213080000000 1.0
C      1  0.4593810000000  0.5579930000000  0.5062660000000 1.0
C      1  0.5917490000000  0.4725080000000  0.4892780000000 1.0
C      1  0.4943060000000  0.5332470000000  0.5775730000000 1.0
C      1  0.4910630000000  0.5057380000000  0.4158320000000 1.0
C      1  0.5235870000000  0.5903550000000  0.4992140000000 1.0
C      1  0.4998680000000  0.4878880000000  0.5956550000000 1.0
C      1  0.5443400000000  0.4566210000000  0.5237220000000 1.0
C      1  0.4838000000000  0.4521370000000  0.4192140000000 1.0
C      1  0.5718870000000  0.5053340000000  0.5146980000000 1.0
C      1  0.5684140000000  0.5275330000000  0.5350330000000 1.0
C      1  0.4919870000000  0.5637040000000  0.5388980000000 1.0
C      1  0.5914080000000  0.4849340000000  0.5252530000000 1.0
C      1  0.4715660000000  0.4695950000000  0.5054740000000 1.0
C      1  0.4448040000000  0.5397090000000  0.5521930000000 1.0
C      1  0.5400900000000  0.4231570000000  0.4892070000000 1.0
C      1  0.4770930000000  0.5311600000000  0.5037530000000 1.0
C      1  0.5156880000000  0.4700530000000  0.4813720000000 1.0
C      1  0.5497580000000  0.4854880000000  0.4248730000000 1.0
C      1  0.5041370000000  0.4597390000000  0.5593900000000 1.0
C      1  0.5021530000000  0.4809820000000  0.5358260000000 1.0
C      1  0.4955390000000  0.4344870000000  0.5450500000000 1.0
C      1  0.4681510000000  0.4845380000000  0.4797140000000 1.0
C      1  0.4781050000000  0.5783450000000  0.5183360000000 1.0
C      1  0.5303700000000  0.4433960000000  0.4686340000000 1.0
C      1  0.4788620000000  0.5172010000000  0.5296710000000 1.0
C      1  0.4722330000000  0.4781090000000  0.4129630000000 1.0
C      1  0.5601210000000  0.4372810000000  0.5059730000000 1.0
C      1  0.4416930000000  0.4646860000000  0.4523910000000 1.0
C      1  0.4487940000000  0.5148520000000  0.4376860000000 1.0
C      1  0.4945630000000  0.4121740000000  0.4816090000000 1.0
C      1  0.4667190000000  0.4342010000000  0.5380020000000 1.0
C      1  0.5247820000000  0.5720940000000  0.4760180000000 1.0
C      1  0.4665210000000  0.5139920000000  0.4829570000000 1.0
C      1  0.5465640000000  0.5454480000000  0.5198610000000 1.0
C      1  0.4513190000000  0.4848940000000  0.4324220000000 1.0
C      1  0.4775620000000  0.5390020000000  0.5514320000000 1.0
C      1  0.5325200000000  0.4609460000000  0.5713700000000 1.0
C      1  0.5109950000000  0.5484510000000  0.4120130000000 1.0
C      1  0.4724180000000  0.5235560000000  0.4562880000000 1.0
C      1  0.5219770000000  0.5200640000000  0.4537280000000 1.0
C      1  0.4583540000000  0.4725440000000  0.5690310000000 1.0
C      1  0.5289720000000  0.4869310000000  0.5851190000000 1.0
C      1  0.5197880000000  0.5326270000000  0.5241530000000 1.0
C      1  0.5518340000000  0.5381320000000  0.4881330000000 1.0
C      1  0.4192120000000  0.4700700000000  0.5248890000000 1.0
C      1  0.5148470000000  0.4148140000000  0.5021800000000 1.0
C      1  0.4257690000000  0.5169320000000  0.4683800000000 1.0
C      1  0.4438580000000  0.5648810000000  0.4804240000000 1.0
C      1  0.5131050000000  0.4382470000000  0.5209770000000 1.0
C      1  0.5441870000000  0.5125220000000  0.4162230000000 1.0
C      1  0.4548830000000  0.5693410000000  0.4553600000000 1.0
C      1  0.5382330000000  0.5813970000000  0.5228590000000 1.0
C      1  0.5076630000000  0.4231460000000  0.4589140000000 1.0
C      1  0.5274190000000  0.5198420000000  0.4819220000000 1.0
C      1  0.4173900000000  0.5383540000000  0.5086760000000 1.0
C      1  0.4844200000000  0.5137660000000  0.5968800000000 1.0
C      1  0.5327290000000  0.4919880000000  0.4896160000000 1.0
C      1  0.5766730000000  0.5217510000000  0.4890390000000 1.0
C      1  0.4788290000000  0.4292270000000  0.4498020000000 1.0
C      1  0.5329350000000  0.5577080000000  0.5645390000000 1.0
C      1  0.4646630000000  0.4897710000000  0.5296820000000 1.0
C      1  0.5238860000000  0.5340480000000  0.5759040000000 1.0
C      1  0.5203520000000  0.5720040000000  0.5443600000000 1.0
C      1  0.4963200000000  0.5071260000000  0.4464070000000 1.0
C      1  0.4830580000000  0.5517320000000  0.4198030000000 1.0
C      1  0.4202360000000  0.5471630000000  0.4796740000000 1.0
END
