TITL C-950525-1983-682 0.0319328973247327 125000 -128.661566520413 0 0 23 (C1) n - 1
REM
REM in /home/bkarasulu/work/CARBON/AIRSS/Generating-Clusters/EDIP-Nigel-Params/with-SteepDescent/Only-C1/SD-CG/HFTN-CG
REM
REM
REM
REM
REM
REM ./C.cell (11c1c37f851c82e70ff6c80c92926a4b)
REM
REM compiler GCC version 9.2.1 20190827 (Red Hat 9.2.1-1)
REM options -cpp -mtune=generic -march=x86-64 -g -O0 -fpre-include=/usr/include/finclude/math-vector-fortran.h
REM seed 1120807655 1384003550 -823967544 -1139408102 612875837 1386025009 -1530548896 -2053403588 -807807927 -537536889 733588590 -696928055 1560907946 -1466685488 -1104874154 -1026554815 1837548403 -920750613 1210427620 -1350473642 856741139 -835919672 1650195400 1752074331 -1671102167 -1476558026 725306312 1178689142 801836131 -1964879340 -1921484008 1649341050 912864225
REM
CELL 1.54180   50.00000   50.00000   50.00000   90.00000   90.00000   90.00000
LATT -1
SFAC C  
C      1  0.4929440000000  0.4874740000000  0.4724450000000 1.0
C      1  0.5989310000000  0.5886800000000  0.5115890000000 1.0
C      1  0.5805070000000  0.5873600000000  0.4900860000000 1.0
C      1  0.4190620000000  0.4519780000000  0.5927240000000 1.0
C      1  0.4597050000000  0.4491340000000  0.4810110000000 1.0
C      1  0.5621990000000  0.5669630000000  0.4886040000000 1.0
C      1  0.4534120000000  0.4343270000000  0.4451500000000 1.0
C      1  0.5135940000000  0.5140470000000  0.5074200000000 1.0
C      1  0.4736080000000  0.4679600000000  0.4646050000000 1.0
C      1  0.5229250000000  0.5212560000000  0.4461020000000 1.0
C      1  0.5388370000000  0.5395780000000  0.4570350000000 1.0
C      1  0.4954790000000  0.4948170000000  0.4999050000000 1.0
C      1  0.5058170000000  0.5021730000000  0.4531300000000 1.0
C      1  0.4696360000000  0.4568320000000  0.4387890000000 1.0
C      1  0.4397670000000  0.4643830000000  0.5815550000000 1.0
C      1  0.4442660000000  0.4288730000000  0.4705690000000 1.0
C      1  0.4822340000000  0.4805090000000  0.5191690000000 1.0
C      1  0.4564540000000  0.4539240000000  0.5583280000000 1.0
C      1  0.5443810000000  0.5469130000000  0.4829420000000 1.0
C      1  0.5313330000000  0.5333340000000  0.5029150000000 1.0
C      1  0.4660720000000  0.4535140000000  0.5854200000000 1.0
C      1  0.4699290000000  0.4692600000000  0.5397680000000 1.0
C      1  0.5789090000000  0.6067120000000  0.5107390000000 1.0
END
