TITL C-950526-5686-545 8.01957204874081e-08 125000 -290.274684460132 0 0 49 (C1) n - 1
REM
REM in /home/bkarasulu/work/CARBON/AIRSS/Generating-Clusters/EDIP-Nigel-Params/with-SteepDescent/Only-C1/SD-CG/HFTN-CG
REM
REM
REM
REM
REM
REM ./C.cell (11c1c37f851c82e70ff6c80c92926a4b)
REM
REM compiler GCC version 9.2.1 20190827 (Red Hat 9.2.1-1)
REM options -cpp -mtune=generic -march=x86-64 -g -O0 -fpre-include=/usr/include/finclude/math-vector-fortran.h
REM seed 1111136252 1505297805 1371609747 -2047802726 476676842 -1697114921 2118789031 264221825 2124095795 -527852865 -2012395618 935452641 -575221909 28883350 1047195214 1544434812 -1882682773 528325353 -1721622281 1004425618 -1316526433 1253010037 -2132705782 857271205 418243629 471559768 -1075086701 -888809435 -1518605556 -1427059158 1839905908 799338893 1711431029
REM
CELL 1.54180   50.00000   50.00000   50.00000   90.00000   90.00000   90.00000
LATT -1
SFAC C  
C      1  0.5205000000000  0.4983660000000  0.5003500000000 1.0
C      1  0.4364960000000  0.4716260000000  0.5117240000000 1.0
C      1  0.4716080000000  0.5176750000000  0.5521530000000 1.0
C      1  0.4414590000000  0.5387900000000  0.4775010000000 1.0
C      1  0.4447830000000  0.5088220000000  0.5445690000000 1.0
C      1  0.5342760000000  0.5457480000000  0.5091470000000 1.0
C      1  0.5488380000000  0.4937230000000  0.5084580000000 1.0
C      1  0.5077270000000  0.4764570000000  0.5684660000000 1.0
C      1  0.5037420000000  0.4876470000000  0.4454080000000 1.0
C      1  0.5497020000000  0.4928960000000  0.5519380000000 1.0
C      1  0.4789290000000  0.4939700000000  0.5350690000000 1.0
C      1  0.4941620000000  0.4530350000000  0.5256930000000 1.0
C      1  0.5679040000000  0.4993600000000  0.4423150000000 1.0
C      1  0.4681670000000  0.4379010000000  0.5220920000000 1.0
C      1  0.5692250000000  0.5356630000000  0.4749530000000 1.0
C      1  0.5021190000000  0.4727830000000  0.4985100000000 1.0
C      1  0.5685400000000  0.4920560000000  0.4878950000000 1.0
C      1  0.5612690000000  0.5404540000000  0.5010000000000 1.0
C      1  0.5224840000000  0.4580190000000  0.4821370000000 1.0
C      1  0.4522630000000  0.4614970000000  0.4887290000000 1.0
C      1  0.4435350000000  0.5520900000000  0.5211930000000 1.0
C      1  0.5513170000000  0.4782090000000  0.4459640000000 1.0
C      1  0.4460280000000  0.4534750000000  0.5319550000000 1.0
C      1  0.4621200000000  0.5605860000000  0.4799610000000 1.0
C      1  0.5129580000000  0.5350730000000  0.4692570000000 1.0
C      1  0.4867550000000  0.5299980000000  0.5125360000000 1.0
C      1  0.5091250000000  0.5236380000000  0.5445700000000 1.0
C      1  0.4888600000000  0.4705090000000  0.5491120000000 1.0
C      1  0.5178280000000  0.4363780000000  0.5287430000000 1.0
C      1  0.4675670000000  0.5066250000000  0.4996390000000 1.0
C      1  0.5060910000000  0.5109470000000  0.4295420000000 1.0
C      1  0.5214830000000  0.4988830000000  0.5586990000000 1.0
C      1  0.4751610000000  0.4802110000000  0.4845160000000 1.0
C      1  0.4690380000000  0.5552440000000  0.5082690000000 1.0
C      1  0.4576660000000  0.5217820000000  0.4594440000000 1.0
C      1  0.4771670000000  0.4824200000000  0.4552060000000 1.0
C      1  0.4316760000000  0.5316020000000  0.5049090000000 1.0
C      1  0.5135390000000  0.5278190000000  0.4967780000000 1.0
C      1  0.5375320000000  0.4524730000000  0.5165140000000 1.0
C      1  0.5261020000000  0.4719050000000  0.4562120000000 1.0
C      1  0.5745750000000  0.5094350000000  0.4674130000000 1.0
C      1  0.4619660000000  0.4352230000000  0.4945630000000 1.0
C      1  0.4403270000000  0.5030790000000  0.5152170000000 1.0
C      1  0.5021760000000  0.5353190000000  0.4437780000000 1.0
C      1  0.5532930000000  0.4673650000000  0.5361150000000 1.0
C      1  0.5571900000000  0.5158860000000  0.5316990000000 1.0
C      1  0.4554440000000  0.4976400000000  0.4449670000000 1.0
C      1  0.4746510000000  0.5425520000000  0.4484300000000 1.0
C      1  0.5346340000000  0.5371460000000  0.5366930000000 1.0
END
