TITL C-950536-5891-586 1.77199496545912e-06 125000 -1203.12841016629 0 0 193 (C1) n - 1
REM
REM in /home/bkarasulu/work/CARBON/AIRSS/Generating-Clusters/EDIP-Nigel-Params/with-SteepDescent/Only-C1/SD-CG/HFTN-CG
REM
REM
REM
REM
REM
REM ./C.cell (11c1c37f851c82e70ff6c80c92926a4b)
REM
REM compiler GCC version 9.2.1 20190827 (Red Hat 9.2.1-1)
REM options -cpp -mtune=generic -march=x86-64 -g -O0 -fpre-include=/usr/include/finclude/math-vector-fortran.h
REM seed -1799826328 -353709812 665047002 -845679191 -815380630 1790417348 -1021656852 -13227279 532215787 1723217155 673258160 -1168578419 -495004952 -112477803 -102676457 -585321311 -1020649209 -1206118983 -578868302 -899716302 610203816 -1587910073 -1036326114 2075742607 1574786611 -50006467 2056986757 -1870375818 1746320719 357208136 -2110073294 405742056 -1725242774
REM
CELL 1.54180   50.00000   50.00000   50.00000   90.00000   90.00000   90.00000
LATT -1
SFAC C  
C      1  0.5263440000000  0.5640410000000  0.5250980000000 1.0
C      1  0.5317990000000  0.5026100000000  0.4998080000000 1.0
C      1  0.5494970000000  0.5459240000000  0.5263610000000 1.0
C      1  0.4174340000000  0.4630720000000  0.4116760000000 1.0
C      1  0.4237740000000  0.4536740000000  0.4553080000000 1.0
C      1  0.5393310000000  0.5617350000000  0.5710470000000 1.0
C      1  0.5232310000000  0.5285370000000  0.4182350000000 1.0
C      1  0.5490480000000  0.5284880000000  0.4332070000000 1.0
C      1  0.4412940000000  0.5835720000000  0.4641560000000 1.0
C      1  0.3955770000000  0.5113820000000  0.5507610000000 1.0
C      1  0.4387590000000  0.5230100000000  0.4991970000000 1.0
C      1  0.5442620000000  0.5897950000000  0.4753540000000 1.0
C      1  0.4126990000000  0.4977950000000  0.5306570000000 1.0
C      1  0.5505490000000  0.4222990000000  0.4861820000000 1.0
C      1  0.5392940000000  0.5750830000000  0.4250370000000 1.0
C      1  0.5394540000000  0.4673360000000  0.5411660000000 1.0
C      1  0.4644990000000  0.4356810000000  0.4027910000000 1.0
C      1  0.6069610000000  0.5160860000000  0.5263960000000 1.0
C      1  0.5107600000000  0.4327840000000  0.5174090000000 1.0
C      1  0.5965020000000  0.5361450000000  0.4502880000000 1.0
C      1  0.4245890000000  0.4378890000000  0.5554600000000 1.0
C      1  0.5037540000000  0.4955660000000  0.3856450000000 1.0
C      1  0.5923800000000  0.4405600000000  0.4535760000000 1.0
C      1  0.5273100000000  0.4657280000000  0.4380210000000 1.0
C      1  0.6088500000000  0.5196450000000  0.4731360000000 1.0
C      1  0.5052810000000  0.4029640000000  0.4288430000000 1.0
C      1  0.4372910000000  0.4847770000000  0.4177350000000 1.0
C      1  0.5899400000000  0.5246180000000  0.5490640000000 1.0
C      1  0.4188670000000  0.4492470000000  0.4843050000000 1.0
C      1  0.4023460000000  0.4702120000000  0.5242530000000 1.0
C      1  0.5009660000000  0.5827690000000  0.5635670000000 1.0
C      1  0.4834700000000  0.4446800000000  0.4570950000000 1.0
C      1  0.4599710000000  0.4855880000000  0.3958760000000 1.0
C      1  0.5136010000000  0.6045920000000  0.5464790000000 1.0
C      1  0.5147670000000  0.5041830000000  0.5242310000000 1.0
C      1  0.5209760000000  0.4445660000000  0.5491410000000 1.0
C      1  0.4647100000000  0.3921550000000  0.5008570000000 1.0
C      1  0.5192370000000  0.5573880000000  0.4105560000000 1.0
C      1  0.5842490000000  0.5526510000000  0.5523300000000 1.0
C      1  0.4830020000000  0.5522810000000  0.4551900000000 1.0
C      1  0.5252140000000  0.4345740000000  0.5915880000000 1.0
C      1  0.5835820000000  0.4698500000000  0.5677590000000 1.0
C      1  0.4726580000000  0.5380170000000  0.4000660000000 1.0
C      1  0.4456510000000  0.4988340000000  0.5407500000000 1.0
C      1  0.5008780000000  0.4223990000000  0.4062020000000 1.0
C      1  0.4243000000000  0.4573060000000  0.5764530000000 1.0
C      1  0.4997200000000  0.5965610000000  0.4481080000000 1.0
C      1  0.5463740000000  0.5154590000000  0.6122700000000 1.0
C      1  0.5122270000000  0.5608280000000  0.4998760000000 1.0
C      1  0.4123180000000  0.5531130000000  0.5574340000000 1.0
C      1  0.4546210000000  0.5501920000000  0.5446710000000 1.0
C      1  0.5447620000000  0.4774140000000  0.6056640000000 1.0
C      1  0.5731660000000  0.4435250000000  0.5761470000000 1.0
C      1  0.4541740000000  0.4291930000000  0.5345000000000 1.0
C      1  0.4777240000000  0.4558000000000  0.6066070000000 1.0
C      1  0.5374500000000  0.3924650000000  0.5209850000000 1.0
C      1  0.3926380000000  0.5397590000000  0.5399690000000 1.0
C      1  0.3983990000000  0.4946430000000  0.4833830000000 1.0
C      1  0.4381340000000  0.5523290000000  0.5138620000000 1.0
C      1  0.5355610000000  0.3804050000000  0.4696590000000 1.0
C      1  0.5818180000000  0.4456850000000  0.5278610000000 1.0
C      1  0.4791730000000  0.5851920000000  0.4264550000000 1.0
C      1  0.5632330000000  0.4840710000000  0.4732310000000 1.0
C      1  0.5754140000000  0.4963020000000  0.4191250000000 1.0
C      1  0.5132520000000  0.4472490000000  0.4565240000000 1.0
C      1  0.5261550000000  0.4098310000000  0.5741930000000 1.0
C      1  0.4995660000000  0.4659370000000  0.3845360000000 1.0
C      1  0.4752720000000  0.5406960000000  0.4819190000000 1.0
C      1  0.6070640000000  0.4887900000000  0.4719770000000 1.0
C      1  0.4481270000000  0.5763960000000  0.5712600000000 1.0
C      1  0.4655640000000  0.4016020000000  0.5297500000000 1.0
C      1  0.4271880000000  0.4853380000000  0.5806510000000 1.0
C      1  0.4930720000000  0.4504380000000  0.5653830000000 1.0
C      1  0.5506740000000  0.5322620000000  0.4637070000000 1.0
C      1  0.5015400000000  0.5347860000000  0.4954140000000 1.0
C      1  0.4344110000000  0.4367690000000  0.4122990000000 1.0
C      1  0.4258730000000  0.5118220000000  0.4168050000000 1.0
C      1  0.5799750000000  0.4341970000000  0.4788500000000 1.0
C      1  0.5430950000000  0.4576750000000  0.4038350000000 1.0
C      1  0.4473660000000  0.5523270000000  0.5880940000000 1.0
C      1  0.5077190000000  0.5103130000000  0.4553260000000 1.0
C      1  0.5171830000000  0.5200630000000  0.6089570000000 1.0
C      1  0.4020990000000  0.5619260000000  0.4928020000000 1.0
C      1  0.5427030000000  0.5231890000000  0.5427810000000 1.0
C      1  0.5233580000000  0.5215320000000  0.4779680000000 1.0
C      1  0.5063800000000  0.4477700000000  0.6119150000000 1.0
C      1  0.4654030000000  0.5143580000000  0.4357230000000 1.0
C      1  0.4440140000000  0.5353250000000  0.4105210000000 1.0
C      1  0.4943410000000  0.6148510000000  0.5265510000000 1.0
C      1  0.4663040000000  0.4364670000000  0.5887120000000 1.0
C      1  0.5107170000000  0.5001020000000  0.5616550000000 1.0
C      1  0.5195790000000  0.4730200000000  0.6212750000000 1.0
C      1  0.5097880000000  0.5666200000000  0.4525350000000 1.0
C      1  0.5503440000000  0.4487030000000  0.5948680000000 1.0
C      1  0.5494230000000  0.3927550000000  0.4922130000000 1.0
C      1  0.4144980000000  0.5483710000000  0.4462290000000 1.0
C      1  0.5665140000000  0.5071890000000  0.5419570000000 1.0
C      1  0.5679500000000  0.5433300000000  0.5022500000000 1.0
C      1  0.4427380000000  0.6103110000000  0.5221470000000 1.0
C      1  0.5960480000000  0.4453250000000  0.5006460000000 1.0
C      1  0.4913200000000  0.4801320000000  0.5717270000000 1.0
C      1  0.4598080000000  0.5937410000000  0.4847050000000 1.0
C      1  0.4797070000000  0.4859940000000  0.4794560000000 1.0
C      1  0.5759560000000  0.4522620000000  0.4332470000000 1.0
C      1  0.4303210000000  0.4276640000000  0.4403620000000 1.0
C      1  0.5790100000000  0.5585460000000  0.4573430000000 1.0
C      1  0.5876720000000  0.5269670000000  0.4226750000000 1.0
C      1  0.5006980000000  0.5408300000000  0.5926840000000 1.0
C      1  0.5384250000000  0.4926950000000  0.5776700000000 1.0
C      1  0.5032130000000  0.5577260000000  0.5451950000000 1.0
C      1  0.4578250000000  0.5030380000000  0.5139100000000 1.0
C      1  0.5708850000000  0.5134330000000  0.4773260000000 1.0
C      1  0.4178270000000  0.5180090000000  0.4442160000000 1.0
C      1  0.4011160000000  0.4676540000000  0.4399480000000 1.0
C      1  0.5622370000000  0.5267010000000  0.5919520000000 1.0
C      1  0.4124290000000  0.5099700000000  0.5753380000000 1.0
C      1  0.4503740000000  0.5151600000000  0.4652290000000 1.0
C      1  0.4244540000000  0.5368000000000  0.5774900000000 1.0
C      1  0.4610120000000  0.5102770000000  0.5929010000000 1.0
C      1  0.4519750000000  0.4723300000000  0.5536330000000 1.0
C      1  0.5434470000000  0.4125460000000  0.5478730000000 1.0
C      1  0.5091280000000  0.3840060000000  0.5212120000000 1.0
C      1  0.4618400000000  0.5220130000000  0.5591200000000 1.0
C      1  0.5614090000000  0.5946820000000  0.5416840000000 1.0
C      1  0.5708740000000  0.4258960000000  0.5510980000000 1.0
C      1  0.4511830000000  0.4096100000000  0.4522960000000 1.0
C      1  0.4729990000000  0.4520430000000  0.5420420000000 1.0
C      1  0.4750420000000  0.4344330000000  0.4846520000000 1.0
C      1  0.4911170000000  0.4570190000000  0.5190760000000 1.0
C      1  0.4705630000000  0.5374310000000  0.5996480000000 1.0
C      1  0.5736940000000  0.5791310000000  0.4765200000000 1.0
C      1  0.5841330000000  0.5678770000000  0.5005460000000 1.0
C      1  0.4899130000000  0.5621320000000  0.4097460000000 1.0
C      1  0.5567600000000  0.4738940000000  0.4449580000000 1.0
C      1  0.5401390000000  0.5326450000000  0.5734810000000 1.0
C      1  0.5283040000000  0.5063080000000  0.3975780000000 1.0
C      1  0.6013300000000  0.4874960000000  0.5221750000000 1.0
C      1  0.4802210000000  0.4865380000000  0.5985000000000 1.0
C      1  0.4542470000000  0.5737640000000  0.4400580000000 1.0
C      1  0.4102220000000  0.5138410000000  0.5043440000000 1.0
C      1  0.4944870000000  0.3895830000000  0.4959810000000 1.0
C      1  0.5644730000000  0.5724260000000  0.5586510000000 1.0
C      1  0.4535630000000  0.4134160000000  0.4820510000000 1.0
C      1  0.5583230000000  0.4833260000000  0.5576080000000 1.0
C      1  0.4871340000000  0.6046000000000  0.4752910000000 1.0
C      1  0.4964210000000  0.5288560000000  0.5641680000000 1.0
C      1  0.4442000000000  0.6159300000000  0.4954080000000 1.0
C      1  0.3976850000000  0.4676790000000  0.4952620000000 1.0
C      1  0.3990370000000  0.4959570000000  0.4536470000000 1.0
C      1  0.4530270000000  0.4814420000000  0.4929380000000 1.0
C      1  0.5021740000000  0.4962450000000  0.6165910000000 1.0
C      1  0.4990550000000  0.4006800000000  0.5678650000000 1.0
C      1  0.5009610000000  0.4188690000000  0.4916420000000 1.0
C      1  0.4672930000000  0.6149470000000  0.5339100000000 1.0
C      1  0.4432770000000  0.4778650000000  0.4497590000000 1.0
C      1  0.6072170000000  0.4734970000000  0.4973000000000 1.0
C      1  0.4646460000000  0.5631680000000  0.5009600000000 1.0
C      1  0.4712370000000  0.4598710000000  0.3870840000000 1.0
C      1  0.4800340000000  0.4133450000000  0.5835870000000 1.0
C      1  0.5354550000000  0.5933180000000  0.5283430000000 1.0
C      1  0.4339670000000  0.5580390000000  0.4258520000000 1.0
C      1  0.4743730000000  0.4232090000000  0.4382550000000 1.0
C      1  0.5243490000000  0.4002700000000  0.4515250000000 1.0
C      1  0.4923930000000  0.4854120000000  0.5096980000000 1.0
C      1  0.5948600000000  0.4732520000000  0.4236750000000 1.0
C      1  0.4238930000000  0.5795230000000  0.5549790000000 1.0
C      1  0.5349540000000  0.5987630000000  0.4452300000000 1.0
C      1  0.4928470000000  0.3990950000000  0.5395750000000 1.0
C      1  0.5339780000000  0.6063220000000  0.4996670000000 1.0
C      1  0.5148140000000  0.5693890000000  0.5863720000000 1.0
C      1  0.5233840000000  0.4234360000000  0.4696860000000 1.0
C      1  0.5503370000000  0.4866030000000  0.4031080000000 1.0
C      1  0.5105980000000  0.4897700000000  0.4346450000000 1.0
C      1  0.4786460000000  0.5096120000000  0.3915540000000 1.0
C      1  0.4907090000000  0.5292470000000  0.4393520000000 1.0
C      1  0.5159650000000  0.4477680000000  0.4000690000000 1.0
C      1  0.4276950000000  0.5869340000000  0.5278990000000 1.0
C      1  0.6006900000000  0.5326350000000  0.5015380000000 1.0
C      1  0.5401020000000  0.4353590000000  0.5101950000000 1.0
C      1  0.5268240000000  0.5658890000000  0.4762880000000 1.0
C      1  0.4187150000000  0.4466890000000  0.5282860000000 1.0
C      1  0.5982470000000  0.4662720000000  0.5424780000000 1.0
C      1  0.4785910000000  0.5602660000000  0.5291380000000 1.0
C      1  0.4810000000000  0.4865170000000  0.4290080000000 1.0
C      1  0.6119720000000  0.4731710000000  0.4479820000000 1.0
C      1  0.4454750000000  0.4524100000000  0.5004040000000 1.0
C      1  0.5534390000000  0.4594660000000  0.5173450000000 1.0
C      1  0.4202410000000  0.5635390000000  0.4707970000000 1.0
C      1  0.5656490000000  0.5478280000000  0.4169860000000 1.0
C      1  0.5451880000000  0.4780580000000  0.4944310000000 1.0
C      1  0.3956920000000  0.5395680000000  0.5096950000000 1.0
C      1  0.5046770000000  0.6125980000000  0.4985110000000 1.0
C      1  0.4721000000000  0.4721820000000  0.4537710000000 1.0
END
