TITL C-950530-3293-641 9.7796560921487e-07 125000 -379.321060431067 0 0 62 (C1) n - 1
REM
REM in /home/bkarasulu/work/CARBON/AIRSS/Generating-Clusters/EDIP-Nigel-Params/with-SteepDescent/Only-C1/SD-CG/HFTN-CG
REM
REM
REM
REM
REM
REM ./C.cell (11c1c37f851c82e70ff6c80c92926a4b)
REM
REM compiler GCC version 9.2.1 20190827 (Red Hat 9.2.1-1)
REM options -cpp -mtune=generic -march=x86-64 -g -O0 -fpre-include=/usr/include/finclude/math-vector-fortran.h
REM seed -1348436897 344306123 -1147925069 1666284261 246979601 1206490486 -2044866038 1920898992 -1524950017 -1353543099 -571863888 47719978 1711092539 2018212265 -419427352 -553348674 649129532 -335152207 -1455229273 312263937 -1578603917 -1815246350 105303900 -399097193 1664555230 1972050831 -1374909054 -1306475581 -1286293551 1418092332 -1310931962 -52543972 -1501892274
REM
CELL 1.54180   50.00000   50.00000   50.00000   90.00000   90.00000   90.00000
LATT -1
SFAC C  
C      1  0.4858740000000  0.5228040000000  0.4748600000000 1.0
C      1  0.4354850000000  0.5084090000000  0.5140280000000 1.0
C      1  0.5489400000000  0.5472830000000  0.5020730000000 1.0
C      1  0.4546650000000  0.4947650000000  0.4412440000000 1.0
C      1  0.5210120000000  0.5587980000000  0.5367770000000 1.0
C      1  0.4767510000000  0.4983370000000  0.4245610000000 1.0
C      1  0.5331830000000  0.4405310000000  0.4566510000000 1.0
C      1  0.5721970000000  0.4876260000000  0.5005150000000 1.0
C      1  0.5338590000000  0.4927610000000  0.5051760000000 1.0
C      1  0.4496300000000  0.5116370000000  0.5598280000000 1.0
C      1  0.5068150000000  0.5579520000000  0.5607470000000 1.0
C      1  0.4335720000000  0.5039040000000  0.4842090000000 1.0
C      1  0.5229260000000  0.5639420000000  0.4622510000000 1.0
C      1  0.4952390000000  0.5611920000000  0.4521260000000 1.0
C      1  0.5266490000000  0.5625100000000  0.4917140000000 1.0
C      1  0.4896730000000  0.4949620000000  0.5172720000000 1.0
C      1  0.5517970000000  0.4459360000000  0.4803020000000 1.0
C      1  0.5234340000000  0.4691330000000  0.4565350000000 1.0
C      1  0.5474450000000  0.5468420000000  0.5308820000000 1.0
C      1  0.4768230000000  0.4425710000000  0.5512940000000 1.0
C      1  0.5269480000000  0.5183150000000  0.4906200000000 1.0
C      1  0.4524970000000  0.4697120000000  0.4559700000000 1.0
C      1  0.5472240000000  0.5208140000000  0.4667580000000 1.0
C      1  0.4611260000000  0.4405860000000  0.5091010000000 1.0
C      1  0.4834810000000  0.4349730000000  0.5252570000000 1.0
C      1  0.5402060000000  0.5435570000000  0.4499480000000 1.0
C      1  0.5574610000000  0.4422140000000  0.5186640000000 1.0
C      1  0.5617970000000  0.4744580000000  0.4771620000000 1.0
C      1  0.5355800000000  0.4652010000000  0.5558300000000 1.0
C      1  0.4466890000000  0.4819090000000  0.5543270000000 1.0
C      1  0.4737810000000  0.5486820000000  0.4673160000000 1.0
C      1  0.4594040000000  0.5748660000000  0.5216150000000 1.0
C      1  0.5072390000000  0.4749860000000  0.5029570000000 1.0
C      1  0.5569730000000  0.5223010000000  0.5434270000000 1.0
C      1  0.4370760000000  0.4817800000000  0.5259710000000 1.0
C      1  0.5692080000000  0.4882470000000  0.5298650000000 1.0
C      1  0.4410620000000  0.5286430000000  0.5358640000000 1.0
C      1  0.5235530000000  0.4850020000000  0.4314130000000 1.0
C      1  0.5526740000000  0.4938850000000  0.4550480000000 1.0
C      1  0.4647590000000  0.4452250000000  0.4496480000000 1.0
C      1  0.4789670000000  0.5167780000000  0.5636740000000 1.0
C      1  0.4448390000000  0.5161640000000  0.4594640000000 1.0
C      1  0.4990640000000  0.4709090000000  0.4739010000000 1.0
C      1  0.4485220000000  0.5442450000000  0.4556020000000 1.0
C      1  0.5091500000000  0.4483360000000  0.5176390000000 1.0
C      1  0.4380700000000  0.4750440000000  0.4805250000000 1.0
C      1  0.5034080000000  0.5057340000000  0.4292610000000 1.0
C      1  0.5070550000000  0.5241640000000  0.4524830000000 1.0
C      1  0.4612490000000  0.5506320000000  0.5354530000000 1.0
C      1  0.5322930000000  0.4326250000000  0.5108170000000 1.0
C      1  0.5587030000000  0.4621210000000  0.5397210000000 1.0
C      1  0.4916370000000  0.4924480000000  0.5487200000000 1.0
C      1  0.5347350000000  0.5047500000000  0.5346630000000 1.0
C      1  0.4423090000000  0.4610930000000  0.5058020000000 1.0
C      1  0.4965200000000  0.5199810000000  0.5019120000000 1.0
C      1  0.5088790000000  0.4265440000000  0.4590850000000 1.0
C      1  0.4829380000000  0.5441460000000  0.5542260000000 1.0
C      1  0.4736930000000  0.4694300000000  0.5590370000000 1.0
C      1  0.5210850000000  0.4891830000000  0.5557130000000 1.0
C      1  0.5104040000000  0.5725500000000  0.5136050000000 1.0
C      1  0.4877130000000  0.4443110000000  0.4659120000000 1.0
C      1  0.4840600000000  0.5815580000000  0.5129780000000 1.0
END
