TITL C-951342-2639-733 -2.15941484734301e-07 125000 -764.945208882508 0 0 124 (C1) n - 1
REM
REM in /home/bkarasulu/work/CARBON/AIRSS/Generating-Clusters/EDIP-Nigel-Params/with-SteepDescent/Only-C1/SD-CG/HFTN-CG
REM
REM
REM
REM
REM
REM ./C.cell (11c1c37f851c82e70ff6c80c92926a4b)
REM
REM compiler GCC version 9.2.1 20190827 (Red Hat 9.2.1-1)
REM options -cpp -mtune=generic -march=x86-64 -g -O0 -fpre-include=/usr/include/finclude/math-vector-fortran.h
REM seed 987232626 1620432699 1870560266 6745678 -1140270849 -863157088 378818616 -1391959918 -2053842299 -859034626 -1252306400 1929721525 200990662 -1852420195 -2090949353 -233961135 756883156 1786091968 1034090558 -707641475 1482150559 58463811 1485124995 -1023269455 -1440056074 -302880835 1099125242 -652122760 395549339 -1587257745 -1145693097 -985919924 544663601
REM
CELL 1.54180   50.00000   50.00000   50.00000   90.00000   90.00000   90.00000
LATT -1
SFAC C  
C      1  0.4764830000000  0.4493110000000  0.4819260000000 1.0
C      1  0.4990280000000  0.5452540000000  0.4780370000000 1.0
C      1  0.5369480000000  0.4616210000000  0.5277500000000 1.0
C      1  0.4898880000000  0.4497880000000  0.5105670000000 1.0
C      1  0.5389390000000  0.5594870000000  0.5377160000000 1.0
C      1  0.4470380000000  0.4928710000000  0.4838870000000 1.0
C      1  0.5425200000000  0.5745350000000  0.4595660000000 1.0
C      1  0.4446980000000  0.5122400000000  0.5150520000000 1.0
C      1  0.5516750000000  0.5113380000000  0.5398840000000 1.0
C      1  0.4162150000000  0.5573820000000  0.5092260000000 1.0
C      1  0.5027420000000  0.5917250000000  0.5226400000000 1.0
C      1  0.5536020000000  0.4816830000000  0.4091110000000 1.0
C      1  0.5320800000000  0.4884380000000  0.5461070000000 1.0
C      1  0.4138660000000  0.4813360000000  0.5208680000000 1.0
C      1  0.5420300000000  0.5358260000000  0.5846780000000 1.0
C      1  0.5111580000000  0.4487170000000  0.4205680000000 1.0
C      1  0.5558280000000  0.4219800000000  0.4948010000000 1.0
C      1  0.5246660000000  0.5176640000000  0.5978240000000 1.0
C      1  0.4931720000000  0.4657390000000  0.4037600000000 1.0
C      1  0.4658660000000  0.4228420000000  0.4719180000000 1.0
C      1  0.4055900000000  0.5074660000000  0.4803280000000 1.0
C      1  0.4521900000000  0.5942610000000  0.4875590000000 1.0
C      1  0.5284770000000  0.5066710000000  0.4844910000000 1.0
C      1  0.4197420000000  0.4787080000000  0.5510930000000 1.0
C      1  0.5677340000000  0.4589360000000  0.5308860000000 1.0
C      1  0.4742780000000  0.5062720000000  0.4843340000000 1.0
C      1  0.5135650000000  0.4248810000000  0.4677970000000 1.0
C      1  0.4372720000000  0.4233270000000  0.5530610000000 1.0
C      1  0.5356840000000  0.4815140000000  0.5747570000000 1.0
C      1  0.4966270000000  0.5116410000000  0.5976600000000 1.0
C      1  0.4861580000000  0.5049560000000  0.4566180000000 1.0
C      1  0.4758150000000  0.4902420000000  0.4101790000000 1.0
C      1  0.4653120000000  0.5652420000000  0.4512970000000 1.0
C      1  0.4445910000000  0.5734820000000  0.4704620000000 1.0
C      1  0.4037580000000  0.4798200000000  0.4706890000000 1.0
C      1  0.5768520000000  0.4740310000000  0.5551660000000 1.0
C      1  0.4148920000000  0.5040420000000  0.5623570000000 1.0
C      1  0.4372580000000  0.5233620000000  0.4434340000000 1.0
C      1  0.5222050000000  0.4329240000000  0.5363230000000 1.0
C      1  0.5108230000000  0.5234380000000  0.4616810000000 1.0
C      1  0.5184910000000  0.5807450000000  0.5457520000000 1.0
C      1  0.5206290000000  0.4795600000000  0.4502540000000 1.0
C      1  0.4520130000000  0.5417440000000  0.5290170000000 1.0
C      1  0.4923310000000  0.5234790000000  0.5499190000000 1.0
C      1  0.5054920000000  0.4986760000000  0.5410860000000 1.0
C      1  0.5612100000000  0.4704990000000  0.5783230000000 1.0
C      1  0.4274670000000  0.4219180000000  0.5050390000000 1.0
C      1  0.5974830000000  0.4526080000000  0.4907640000000 1.0
C      1  0.5930580000000  0.4639590000000  0.4640970000000 1.0
C      1  0.5018950000000  0.4297150000000  0.4411170000000 1.0
C      1  0.4614930000000  0.4898490000000  0.5275950000000 1.0
C      1  0.5117330000000  0.5853710000000  0.4930860000000 1.0
C      1  0.4059160000000  0.5081410000000  0.5102830000000 1.0
C      1  0.5386510000000  0.5945570000000  0.4829090000000 1.0
C      1  0.4933620000000  0.4630640000000  0.4589960000000 1.0
C      1  0.4551480000000  0.4792120000000  0.4276290000000 1.0
C      1  0.5763370000000  0.4880220000000  0.4737150000000 1.0
C      1  0.4481400000000  0.5412730000000  0.5599640000000 1.0
C      1  0.4479770000000  0.4352640000000  0.4506040000000 1.0
C      1  0.4315500000000  0.5746810000000  0.5254930000000 1.0
C      1  0.5483500000000  0.5368590000000  0.5564590000000 1.0
C      1  0.4615590000000  0.4890000000000  0.5778120000000 1.0
C      1  0.5906110000000  0.5249020000000  0.5001280000000 1.0
C      1  0.4932810000000  0.5719240000000  0.4616810000000 1.0
C      1  0.4426990000000  0.4313290000000  0.5268210000000 1.0
C      1  0.4183250000000  0.5307480000000  0.5549300000000 1.0
C      1  0.5069370000000  0.5409200000000  0.5698550000000 1.0
C      1  0.5154500000000  0.5381680000000  0.4337710000000 1.0
C      1  0.5939990000000  0.5002200000000  0.5180220000000 1.0
C      1  0.4915510000000  0.4876410000000  0.5187940000000 1.0
C      1  0.4625410000000  0.5382890000000  0.4397070000000 1.0
C      1  0.4883560000000  0.4842700000000  0.5904250000000 1.0
C      1  0.5111810000000  0.4656970000000  0.5809350000000 1.0
C      1  0.5804130000000  0.4447600000000  0.4483340000000 1.0
C      1  0.5822670000000  0.4739080000000  0.5064540000000 1.0
C      1  0.5739190000000  0.5326770000000  0.4549200000000 1.0
C      1  0.5170520000000  0.5683030000000  0.4424440000000 1.0
C      1  0.4852040000000  0.5259200000000  0.4235050000000 1.0
C      1  0.4484060000000  0.4972130000000  0.4503330000000 1.0
C      1  0.5214930000000  0.5427180000000  0.5194560000000 1.0
C      1  0.4271270000000  0.5531310000000  0.4821120000000 1.0
C      1  0.4084630000000  0.5339440000000  0.5260400000000 1.0
C      1  0.5378580000000  0.4401530000000  0.4773710000000 1.0
C      1  0.5798680000000  0.5015230000000  0.5439860000000 1.0
C      1  0.4579020000000  0.4584050000000  0.5215820000000 1.0
C      1  0.4994440000000  0.4225370000000  0.5163940000000 1.0
C      1  0.4985560000000  0.4113230000000  0.4886830000000 1.0
C      1  0.5395500000000  0.5272350000000  0.4182570000000 1.0
C      1  0.5902390000000  0.5149130000000  0.4721930000000 1.0
C      1  0.5576050000000  0.5897810000000  0.5031500000000 1.0
C      1  0.5463260000000  0.4903170000000  0.4673370000000 1.0
C      1  0.4057310000000  0.4649060000000  0.4968710000000 1.0
C      1  0.4833990000000  0.5414550000000  0.5252290000000 1.0
C      1  0.5302160000000  0.4631320000000  0.4982890000000 1.0
C      1  0.4654860000000  0.4538720000000  0.4361770000000 1.0
C      1  0.4509430000000  0.4630120000000  0.4919530000000 1.0
C      1  0.4792140000000  0.5328110000000  0.4958490000000 1.0
C      1  0.5403860000000  0.4579580000000  0.4247180000000 1.0
C      1  0.5328310000000  0.5021020000000  0.4044990000000 1.0
C      1  0.4691500000000  0.5192240000000  0.5709540000000 1.0
C      1  0.5833700000000  0.4281360000000  0.4917190000000 1.0
C      1  0.4521960000000  0.5909690000000  0.5152860000000 1.0
C      1  0.4714370000000  0.5706900000000  0.5556760000000 1.0
C      1  0.5119000000000  0.4929620000000  0.4230740000000 1.0
C      1  0.5732530000000  0.4302650000000  0.5349750000000 1.0
C      1  0.5548260000000  0.5483640000000  0.4720350000000 1.0
C      1  0.4797950000000  0.4337270000000  0.5691690000000 1.0
C      1  0.5617460000000  0.5669760000000  0.5187500000000 1.0
C      1  0.4264190000000  0.4460810000000  0.4882450000000 1.0
C      1  0.4989600000000  0.5691080000000  0.5652850000000 1.0
C      1  0.5059950000000  0.4416680000000  0.5637660000000 1.0
C      1  0.5762690000000  0.4954970000000  0.4199330000000 1.0
C      1  0.5210000000000  0.5558090000000  0.4930670000000 1.0
C      1  0.5643830000000  0.5417210000000  0.5013840000000 1.0
C      1  0.5108940000000  0.4842200000000  0.4934280000000 1.0
C      1  0.4461300000000  0.4687120000000  0.5630260000000 1.0
C      1  0.5428880000000  0.5215520000000  0.5110730000000 1.0
C      1  0.4198400000000  0.5297470000000  0.4667150000000 1.0
C      1  0.5640560000000  0.5185240000000  0.4314140000000 1.0
C      1  0.5494870000000  0.4190220000000  0.5241960000000 1.0
C      1  0.5530700000000  0.4496250000000  0.4512820000000 1.0
C      1  0.4222780000000  0.4473700000000  0.4593600000000 1.0
C      1  0.4526910000000  0.4406860000000  0.5687180000000 1.0
C      1  0.4755870000000  0.5840360000000  0.5302950000000 1.0
END
