TITL C-951335-1172-27 -2.29256257247538e-07 125000 -529.799531267368 0 0 86 (C1) n - 1
REM
REM in /home/bkarasulu/work/CARBON/AIRSS/Generating-Clusters/EDIP-Nigel-Params/with-SteepDescent/Only-C1/SD-CG/HFTN-CG
REM
REM
REM
REM
REM
REM ./C.cell (11c1c37f851c82e70ff6c80c92926a4b)
REM
REM compiler GCC version 9.2.1 20190827 (Red Hat 9.2.1-1)
REM options -cpp -mtune=generic -march=x86-64 -g -O0 -fpre-include=/usr/include/finclude/math-vector-fortran.h
REM seed -44654619 1325258133 -1517301863 -2026652378 -46335979 2072165238 1616054676 1627484134 1766950691 -969286696 1645898351 -1590814679 1743344369 -1086507662 -2074679486 -300819125 1193372312 -908370527 580237280 1508137477 -1446002184 -2103862590 1871994017 354263418 -1022661441 -1632034041 1047200435 322197808 1516145957 269739993 2010522328 -1060580757 1636456495
REM
CELL 1.54180   50.00000   50.00000   50.00000   90.00000   90.00000   90.00000
LATT -1
SFAC C  
C      1  0.5033360000000  0.5060600000000  0.5824200000000 1.0
C      1  0.4714740000000  0.4722230000000  0.4686510000000 1.0
C      1  0.4366260000000  0.5603690000000  0.5126210000000 1.0
C      1  0.5330360000000  0.4398870000000  0.5357240000000 1.0
C      1  0.4942050000000  0.5180700000000  0.4826600000000 1.0
C      1  0.5551800000000  0.4726750000000  0.4880260000000 1.0
C      1  0.5001030000000  0.5617850000000  0.5128950000000 1.0
C      1  0.5555680000000  0.4738380000000  0.5677300000000 1.0
C      1  0.4972830000000  0.5078080000000  0.4129230000000 1.0
C      1  0.5301690000000  0.4404770000000  0.4580550000000 1.0
C      1  0.5116050000000  0.5522070000000  0.5580580000000 1.0
C      1  0.5217300000000  0.5590740000000  0.5312860000000 1.0
C      1  0.4888920000000  0.5641870000000  0.4580110000000 1.0
C      1  0.5253050000000  0.5535880000000  0.4282350000000 1.0
C      1  0.4129010000000  0.4712960000000  0.4971150000000 1.0
C      1  0.4425740000000  0.5331440000000  0.4720040000000 1.0
C      1  0.4574610000000  0.4875600000000  0.5864820000000 1.0
C      1  0.5597950000000  0.5292780000000  0.4549460000000 1.0
C      1  0.5245960000000  0.4977620000000  0.4217650000000 1.0
C      1  0.5326640000000  0.4521850000000  0.4874080000000 1.0
C      1  0.4460730000000  0.5443640000000  0.5331280000000 1.0
C      1  0.4363110000000  0.4486890000000  0.5421310000000 1.0
C      1  0.4844320000000  0.4491950000000  0.5473260000000 1.0
C      1  0.4471210000000  0.5414970000000  0.4428130000000 1.0
C      1  0.5254740000000  0.4320270000000  0.5085140000000 1.0
C      1  0.5222810000000  0.5249860000000  0.5648350000000 1.0
C      1  0.4868640000000  0.4753410000000  0.5298150000000 1.0
C      1  0.5446060000000  0.5419910000000  0.5205690000000 1.0
C      1  0.4848580000000  0.5588180000000  0.5625700000000 1.0
C      1  0.4977480000000  0.4245820000000  0.5073210000000 1.0
C      1  0.5505270000000  0.4829960000000  0.4577850000000 1.0
C      1  0.5451170000000  0.4584880000000  0.4398110000000 1.0
C      1  0.5191960000000  0.5086900000000  0.5409970000000 1.0
C      1  0.4324090000000  0.4839610000000  0.4504760000000 1.0
C      1  0.5329290000000  0.5104700000000  0.5150050000000 1.0
C      1  0.5526580000000  0.5256400000000  0.5679440000000 1.0
C      1  0.4694680000000  0.4269030000000  0.5115740000000 1.0
C      1  0.5173880000000  0.5538610000000  0.4571810000000 1.0
C      1  0.5222670000000  0.4969450000000  0.4528150000000 1.0
C      1  0.4617120000000  0.4328810000000  0.5395000000000 1.0
C      1  0.4793510000000  0.4846280000000  0.4221990000000 1.0
C      1  0.5087060000000  0.4697990000000  0.4920460000000 1.0
C      1  0.4401570000000  0.4413730000000  0.4725030000000 1.0
C      1  0.4488680000000  0.5574230000000  0.4877510000000 1.0
C      1  0.4684960000000  0.5158100000000  0.4624700000000 1.0
C      1  0.4755800000000  0.5690660000000  0.4838810000000 1.0
C      1  0.5268810000000  0.4679670000000  0.4172100000000 1.0
C      1  0.4995060000000  0.4722350000000  0.4644320000000 1.0
C      1  0.4384080000000  0.4742530000000  0.5710030000000 1.0
C      1  0.5022740000000  0.4466720000000  0.4493750000000 1.0
C      1  0.4231350000000  0.4642800000000  0.4689140000000 1.0
C      1  0.4176670000000  0.5011770000000  0.5353000000000 1.0
C      1  0.5360700000000  0.5663170000000  0.4762100000000 1.0
C      1  0.4985230000000  0.4590590000000  0.4219260000000 1.0
C      1  0.5365130000000  0.4689180000000  0.5879070000000 1.0
C      1  0.4410240000000  0.4869280000000  0.5448120000000 1.0
C      1  0.5152820000000  0.4811600000000  0.5464750000000 1.0
C      1  0.4740400000000  0.5508400000000  0.4363510000000 1.0
C      1  0.5733480000000  0.5380390000000  0.4790910000000 1.0
C      1  0.5512980000000  0.5406290000000  0.4273200000000 1.0
C      1  0.4745190000000  0.5055790000000  0.5726510000000 1.0
C      1  0.4653820000000  0.4768560000000  0.4982100000000 1.0
C      1  0.4847850000000  0.5373190000000  0.5042190000000 1.0
C      1  0.4624600000000  0.5226820000000  0.5210970000000 1.0
C      1  0.4479490000000  0.5051640000000  0.4990140000000 1.0
C      1  0.5090650000000  0.4982210000000  0.4994960000000 1.0
C      1  0.4186840000000  0.4490900000000  0.5175960000000 1.0
C      1  0.5677880000000  0.5029450000000  0.4430590000000 1.0
C      1  0.5168540000000  0.5250670000000  0.4653500000000 1.0
C      1  0.5644190000000  0.5001820000000  0.5716150000000 1.0
C      1  0.5123060000000  0.4781780000000  0.5764880000000 1.0
C      1  0.4609420000000  0.4895720000000  0.4487360000000 1.0
C      1  0.4932180000000  0.5368200000000  0.4185030000000 1.0
C      1  0.5863290000000  0.5177590000000  0.4931670000000 1.0
C      1  0.4690580000000  0.4992850000000  0.5423710000000 1.0
C      1  0.5818400000000  0.5029300000000  0.5160750000000 1.0
C      1  0.5515490000000  0.5117380000000  0.4155040000000 1.0
C      1  0.5551350000000  0.5550920000000  0.4944270000000 1.0
C      1  0.5431140000000  0.4685120000000  0.5400540000000 1.0
C      1  0.5554500000000  0.4883320000000  0.5142510000000 1.0
C      1  0.4596930000000  0.5569770000000  0.5536120000000 1.0
C      1  0.4203460000000  0.4982640000000  0.5074430000000 1.0
C      1  0.4507220000000  0.4483010000000  0.4995260000000 1.0
C      1  0.5647380000000  0.5377690000000  0.5437220000000 1.0
C      1  0.5855640000000  0.5199820000000  0.5377450000000 1.0
C      1  0.5090240000000  0.4350140000000  0.5497680000000 1.0
END
