TITL C-950521-2237-672 -2.90616603644691e-06 125000 -1080.84401799655 0 0 172 (C1) n - 1
REM
REM in /home/bkarasulu/work/CARBON/AIRSS/Generating-Clusters/EDIP-Nigel-Params/with-SteepDescent/Only-C1/SD-CG/HFTN-CG
REM
REM
REM
REM
REM
REM ./C.cell (11c1c37f851c82e70ff6c80c92926a4b)
REM
REM compiler GCC version 9.2.1 20190827 (Red Hat 9.2.1-1)
REM options -cpp -mtune=generic -march=x86-64 -g -O0 -fpre-include=/usr/include/finclude/math-vector-fortran.h
REM seed -2069925734 -619665346 734497544 -436738928 -1591563425 -1784391445 -440061029 1912278913 1653729424 -2034743470 1053667792 1920025785 536400610 -1184441175 -1394655797 1441538324 1299496249 -1704081262 -1159356568 -2017710518 27964608 -1402024241 -2121674491 2103582542 -134563788 57572647 1214806302 1008752796 691976935 63269736 847883704 -456328421 -836525837
REM
CELL 1.54180   50.00000   50.00000   50.00000   90.00000   90.00000   90.00000
LATT -1
SFAC C  
C      1  0.5164610000000  0.4985660000000  0.5490080000000 1.0
C      1  0.5180020000000  0.3862630000000  0.4953470000000 1.0
C      1  0.4489310000000  0.4723440000000  0.5120360000000 1.0
C      1  0.4788600000000  0.3975070000000  0.5369020000000 1.0
C      1  0.5479170000000  0.5795070000000  0.5413860000000 1.0
C      1  0.5177660000000  0.5207100000000  0.3943370000000 1.0
C      1  0.5503900000000  0.5298500000000  0.4338710000000 1.0
C      1  0.5254370000000  0.5435560000000  0.5298130000000 1.0
C      1  0.4752780000000  0.5870550000000  0.4233330000000 1.0
C      1  0.4664510000000  0.4326110000000  0.5759130000000 1.0
C      1  0.5093010000000  0.5208440000000  0.5976660000000 1.0
C      1  0.4524290000000  0.4690170000000  0.4073990000000 1.0
C      1  0.5932970000000  0.4724610000000  0.4439960000000 1.0
C      1  0.4815640000000  0.6087030000000  0.4687110000000 1.0
C      1  0.4131710000000  0.5328930000000  0.5095050000000 1.0
C      1  0.4790490000000  0.4577390000000  0.4040470000000 1.0
C      1  0.5620890000000  0.5358890000000  0.4924930000000 1.0
C      1  0.5912030000000  0.5447520000000  0.4606040000000 1.0
C      1  0.5707210000000  0.5788830000000  0.4878560000000 1.0
C      1  0.4487630000000  0.4123070000000  0.4550620000000 1.0
C      1  0.5968380000000  0.4259570000000  0.5273470000000 1.0
C      1  0.4948190000000  0.5040240000000  0.3892960000000 1.0
C      1  0.4619530000000  0.5483740000000  0.4847560000000 1.0
C      1  0.5917240000000  0.5227320000000  0.5836860000000 1.0
C      1  0.4867230000000  0.4325440000000  0.5953120000000 1.0
C      1  0.5595150000000  0.5047720000000  0.4509150000000 1.0
C      1  0.5205580000000  0.5459880000000  0.5851600000000 1.0
C      1  0.4329430000000  0.5326140000000  0.4394920000000 1.0
C      1  0.5190750000000  0.4257650000000  0.4479810000000 1.0
C      1  0.4259950000000  0.5074940000000  0.4236680000000 1.0
C      1  0.4439530000000  0.5006420000000  0.5558140000000 1.0
C      1  0.5879860000000  0.5495020000000  0.5429340000000 1.0
C      1  0.5117390000000  0.4716770000000  0.5884290000000 1.0
C      1  0.5610540000000  0.4524730000000  0.5076520000000 1.0
C      1  0.4815060000000  0.5169100000000  0.6061810000000 1.0
C      1  0.5990960000000  0.5460300000000  0.5137240000000 1.0
C      1  0.5108690000000  0.6079880000000  0.5119060000000 1.0
C      1  0.4948690000000  0.4977940000000  0.4700490000000 1.0
C      1  0.4838760000000  0.4816690000000  0.5742820000000 1.0
C      1  0.5629980000000  0.5052190000000  0.5300150000000 1.0
C      1  0.4740640000000  0.5733830000000  0.5609570000000 1.0
C      1  0.5618100000000  0.4277920000000  0.4672930000000 1.0
C      1  0.3996410000000  0.5518570000000  0.5400800000000 1.0
C      1  0.5041810000000  0.5561530000000  0.4516850000000 1.0
C      1  0.4493120000000  0.4249050000000  0.4276370000000 1.0
C      1  0.5032200000000  0.6011850000000  0.5374260000000 1.0
C      1  0.4813910000000  0.4572130000000  0.4604930000000 1.0
C      1  0.6087880000000  0.4603780000000  0.5149710000000 1.0
C      1  0.4585140000000  0.4749510000000  0.4507020000000 1.0
C      1  0.5347320000000  0.4414950000000  0.4704920000000 1.0
C      1  0.5253450000000  0.5928670000000  0.4260470000000 1.0
C      1  0.5927180000000  0.5595150000000  0.4873800000000 1.0
C      1  0.5575640000000  0.5347650000000  0.5232450000000 1.0
C      1  0.5802220000000  0.4615650000000  0.5545780000000 1.0
C      1  0.4811820000000  0.4693690000000  0.6234940000000 1.0
C      1  0.5634610000000  0.5610420000000  0.5574400000000 1.0
C      1  0.4161960000000  0.4483340000000  0.4735940000000 1.0
C      1  0.6034320000000  0.5173210000000  0.4578700000000 1.0
C      1  0.4637740000000  0.4597030000000  0.5642090000000 1.0
C      1  0.4114510000000  0.4893310000000  0.4432770000000 1.0
C      1  0.5998340000000  0.5044240000000  0.4860650000000 1.0
C      1  0.5108600000000  0.4786820000000  0.5265920000000 1.0
C      1  0.5094760000000  0.6109800000000  0.4636300000000 1.0
C      1  0.4771140000000  0.4119650000000  0.4637600000000 1.0
C      1  0.5734700000000  0.4414350000000  0.5341550000000 1.0
C      1  0.3897340000000  0.5106580000000  0.5129190000000 1.0
C      1  0.5041390000000  0.5646880000000  0.5680550000000 1.0
C      1  0.4796040000000  0.5484240000000  0.5106750000000 1.0
C      1  0.4896690000000  0.4326100000000  0.4462620000000 1.0
C      1  0.5558610000000  0.5778390000000  0.4616900000000 1.0
C      1  0.6002700000000  0.4255870000000  0.4997310000000 1.0
C      1  0.5310280000000  0.5951760000000  0.4973460000000 1.0
C      1  0.4270500000000  0.5648980000000  0.5364350000000 1.0
C      1  0.5339620000000  0.4856740000000  0.4456470000000 1.0
C      1  0.4066490000000  0.4652070000000  0.4953170000000 1.0
C      1  0.5330520000000  0.4365670000000  0.5001810000000 1.0
C      1  0.4385100000000  0.5812050000000  0.4558410000000 1.0
C      1  0.5030060000000  0.5755600000000  0.4270470000000 1.0
C      1  0.4755960000000  0.5941940000000  0.5401430000000 1.0
C      1  0.6065160000000  0.5181300000000  0.5114290000000 1.0
C      1  0.4366110000000  0.4948350000000  0.5276230000000 1.0
C      1  0.5936180000000  0.5050150000000  0.5355570000000 1.0
C      1  0.5804080000000  0.4416200000000  0.4849860000000 1.0
C      1  0.4620330000000  0.5295460000000  0.5887090000000 1.0
C      1  0.4706540000000  0.6112350000000  0.4941360000000 1.0
C      1  0.5342440000000  0.5372770000000  0.4817940000000 1.0
C      1  0.5688620000000  0.5065510000000  0.4836930000000 1.0
C      1  0.6009690000000  0.4762580000000  0.5394510000000 1.0
C      1  0.4645210000000  0.5284880000000  0.4405820000000 1.0
C      1  0.4521120000000  0.5128150000000  0.4875260000000 1.0
C      1  0.5966130000000  0.4608420000000  0.4690320000000 1.0
C      1  0.5566870000000  0.4867970000000  0.5054170000000 1.0
C      1  0.4175100000000  0.4394760000000  0.5352350000000 1.0
C      1  0.5207760000000  0.5328960000000  0.4398940000000 1.0
C      1  0.5319220000000  0.4795170000000  0.4018360000000 1.0
C      1  0.4905370000000  0.3859930000000  0.4604380000000 1.0
C      1  0.4330400000000  0.5629590000000  0.4316690000000 1.0
C      1  0.4144040000000  0.5475190000000  0.4841540000000 1.0
C      1  0.4070950000000  0.5022710000000  0.4682810000000 1.0
C      1  0.5016960000000  0.4771770000000  0.3982810000000 1.0
C      1  0.5312680000000  0.4364490000000  0.4244250000000 1.0
C      1  0.4566650000000  0.5656000000000  0.4119950000000 1.0
C      1  0.4727640000000  0.5397520000000  0.4137320000000 1.0
C      1  0.5672560000000  0.5543480000000  0.4450750000000 1.0
C      1  0.4794090000000  0.5017440000000  0.4936100000000 1.0
C      1  0.3962580000000  0.4814810000000  0.5174820000000 1.0
C      1  0.5461070000000  0.4979760000000  0.5533300000000 1.0
C      1  0.4178980000000  0.4610040000000  0.4466440000000 1.0
C      1  0.4676630000000  0.3922400000000  0.5088550000000 1.0
C      1  0.3847660000000  0.5245760000000  0.5407960000000 1.0
C      1  0.5655140000000  0.5244330000000  0.5925560000000 1.0
C      1  0.4379660000000  0.4520750000000  0.4266570000000 1.0
C      1  0.4899180000000  0.3772610000000  0.4891510000000 1.0
C      1  0.5595530000000  0.4005420000000  0.4721550000000 1.0
C      1  0.4768360000000  0.5466380000000  0.4593360000000 1.0
C      1  0.5547430000000  0.5869140000000  0.5126050000000 1.0
C      1  0.4605590000000  0.5359350000000  0.5333690000000 1.0
C      1  0.4779930000000  0.4309040000000  0.4183580000000 1.0
C      1  0.4377420000000  0.4747830000000  0.5701970000000 1.0
C      1  0.4329040000000  0.4234950000000  0.4771610000000 1.0
C      1  0.5993820000000  0.5256230000000  0.5573300000000 1.0
C      1  0.5538900000000  0.4980490000000  0.5969640000000 1.0
C      1  0.4652290000000  0.4107390000000  0.5579290000000 1.0
C      1  0.4431380000000  0.4477350000000  0.5271320000000 1.0
C      1  0.5075030000000  0.4326050000000  0.5501530000000 1.0
C      1  0.5273320000000  0.4893110000000  0.5013300000000 1.0
C      1  0.4650350000000  0.5934220000000  0.4502990000000 1.0
C      1  0.5201110000000  0.5822630000000  0.5506200000000 1.0
C      1  0.3972500000000  0.5060820000000  0.5607120000000 1.0
C      1  0.5871200000000  0.4991150000000  0.4400200000000 1.0
C      1  0.4174220000000  0.5223400000000  0.5732030000000 1.0
C      1  0.4398800000000  0.4846590000000  0.4765850000000 1.0
C      1  0.4834200000000  0.4234180000000  0.4926400000000 1.0
C      1  0.5108400000000  0.5059860000000  0.4303210000000 1.0
C      1  0.5185730000000  0.4770200000000  0.4724110000000 1.0
C      1  0.4361990000000  0.5808880000000  0.5115370000000 1.0
C      1  0.4350170000000  0.5173010000000  0.5957650000000 1.0
C      1  0.5215420000000  0.5197680000000  0.5022900000000 1.0
C      1  0.4713810000000  0.4881960000000  0.6031090000000 1.0
C      1  0.5192140000000  0.5630190000000  0.4796900000000 1.0
C      1  0.6091600000000  0.4761970000000  0.4890050000000 1.0
C      1  0.4788270000000  0.5001490000000  0.4438200000000 1.0
C      1  0.5494500000000  0.5446150000000  0.5783550000000 1.0
C      1  0.5364980000000  0.3846520000000  0.4717330000000 1.0
C      1  0.4061720000000  0.4806280000000  0.5470820000000 1.0
C      1  0.5094820000000  0.5259270000000  0.5473140000000 1.0
C      1  0.5113140000000  0.4145090000000  0.5052580000000 1.0
C      1  0.4500610000000  0.5551700000000  0.5547500000000 1.0
C      1  0.5224820000000  0.4540320000000  0.5394690000000 1.0
C      1  0.5251920000000  0.4961580000000  0.6019180000000 1.0
C      1  0.4241760000000  0.4144080000000  0.5248020000000 1.0
C      1  0.4606930000000  0.5958330000000  0.5152130000000 1.0
C      1  0.5047080000000  0.4101580000000  0.5338030000000 1.0
C      1  0.5314910000000  0.4564280000000  0.5695150000000 1.0
C      1  0.4683180000000  0.5157450000000  0.3966650000000 1.0
C      1  0.4176160000000  0.5281510000000  0.4641920000000 1.0
C      1  0.5405690000000  0.4631660000000  0.4246990000000 1.0
C      1  0.5322260000000  0.5959740000000  0.4531880000000 1.0
C      1  0.5180540000000  0.3943240000000  0.4513040000000 1.0
C      1  0.4400130000000  0.5202900000000  0.5145920000000 1.0
C      1  0.4990700000000  0.4537000000000  0.6085770000000 1.0
C      1  0.4931270000000  0.5225480000000  0.5066770000000 1.0
C      1  0.4848450000000  0.4533900000000  0.4889440000000 1.0
C      1  0.5559660000000  0.4745790000000  0.5685350000000 1.0
C      1  0.4411720000000  0.4876580000000  0.5982220000000 1.0
C      1  0.4795540000000  0.4753020000000  0.5090600000000 1.0
C      1  0.4498390000000  0.4970960000000  0.4103260000000 1.0
C      1  0.4364720000000  0.5667600000000  0.4838890000000 1.0
C      1  0.5074130000000  0.5660100000000  0.5114670000000 1.0
C      1  0.4422760000000  0.4109650000000  0.5026780000000 1.0
C      1  0.4719000000000  0.5135050000000  0.5628950000000 1.0
C      1  0.5427290000000  0.5085440000000  0.4025540000000 1.0
END
