TITL C-951347-9520-112 -5.57704640543554e-06 125000 -884.119677402575 0 0 142 (C1) n - 1
REM
REM in /home/bkarasulu/work/CARBON/AIRSS/Generating-Clusters/EDIP-Nigel-Params/with-SteepDescent/Only-C1/SD-CG/HFTN-CG
REM
REM
REM
REM
REM
REM ./C.cell (11c1c37f851c82e70ff6c80c92926a4b)
REM
REM compiler GCC version 9.2.1 20190827 (Red Hat 9.2.1-1)
REM options -cpp -mtune=generic -march=x86-64 -g -O0 -fpre-include=/usr/include/finclude/math-vector-fortran.h
REM seed -1020996693 -1566308217 -2093134319 1996099542 2145145925 -2094283569 405223744 -108366069 854721041 1085730438 783879792 1322937786 -184680551 2060233919 1404945058 -428431859 813271120 1373937353 -1785758055 1710154212 -525995027 -2122327273 -1234022212 806027347 -1726839503 -2113668671 -1231931846 1481707837 -1105393366 2133467338 -510995909 607523501 1575965893
REM
CELL 1.54180   50.00000   50.00000   50.00000   90.00000   90.00000   90.00000
LATT -1
SFAC C  
C      1  0.5526830000000  0.5805590000000  0.4897250000000 1.0
C      1  0.5443240000000  0.4696730000000  0.4529840000000 1.0
C      1  0.4996070000000  0.4007710000000  0.5480230000000 1.0
C      1  0.5501200000000  0.4565220000000  0.5035840000000 1.0
C      1  0.5627630000000  0.5728310000000  0.5165450000000 1.0
C      1  0.4462860000000  0.5096660000000  0.4714830000000 1.0
C      1  0.5227430000000  0.5904020000000  0.4864880000000 1.0
C      1  0.4769480000000  0.4723680000000  0.4208580000000 1.0
C      1  0.4959350000000  0.5146130000000  0.5995580000000 1.0
C      1  0.5640450000000  0.4153650000000  0.5127280000000 1.0
C      1  0.4415220000000  0.4675650000000  0.5442280000000 1.0
C      1  0.4028610000000  0.5352540000000  0.5009430000000 1.0
C      1  0.4938130000000  0.4949650000000  0.5435350000000 1.0
C      1  0.4808880000000  0.5669140000000  0.5535680000000 1.0
C      1  0.5325050000000  0.5225630000000  0.5296620000000 1.0
C      1  0.5149340000000  0.4449550000000  0.5357080000000 1.0
C      1  0.4179510000000  0.5588100000000  0.5106300000000 1.0
C      1  0.4842040000000  0.4260290000000  0.4287600000000 1.0
C      1  0.5254720000000  0.4387370000000  0.5824520000000 1.0
C      1  0.5451700000000  0.4052690000000  0.4910170000000 1.0
C      1  0.4330560000000  0.5151080000000  0.4185470000000 1.0
C      1  0.4979270000000  0.4705020000000  0.4409720000000 1.0
C      1  0.5167210000000  0.4067120000000  0.4973910000000 1.0
C      1  0.4024120000000  0.5031860000000  0.4514050000000 1.0
C      1  0.4944510000000  0.3997490000000  0.4788780000000 1.0
C      1  0.5857800000000  0.5189790000000  0.4551510000000 1.0
C      1  0.5112290000000  0.4489050000000  0.4844330000000 1.0
C      1  0.5928720000000  0.4979490000000  0.4737780000000 1.0
C      1  0.4388940000000  0.5554760000000  0.5307090000000 1.0
C      1  0.5326370000000  0.4792540000000  0.5133490000000 1.0
C      1  0.4592840000000  0.5203630000000  0.4087050000000 1.0
C      1  0.5366960000000  0.4826570000000  0.5768980000000 1.0
C      1  0.5998890000000  0.5068160000000  0.4999110000000 1.0
C      1  0.5102810000000  0.4557150000000  0.6031670000000 1.0
C      1  0.5305730000000  0.5290180000000  0.4463650000000 1.0
C      1  0.5898660000000  0.5344590000000  0.4994450000000 1.0
C      1  0.4770690000000  0.4969570000000  0.4041150000000 1.0
C      1  0.5139190000000  0.5029230000000  0.6173370000000 1.0
C      1  0.4609710000000  0.5196150000000  0.4952150000000 1.0
C      1  0.5107990000000  0.5882700000000  0.4587710000000 1.0
C      1  0.4482330000000  0.5309690000000  0.4499870000000 1.0
C      1  0.4761260000000  0.5458210000000  0.5743860000000 1.0
C      1  0.5366910000000  0.4927120000000  0.4695370000000 1.0
C      1  0.4632000000000  0.4471050000000  0.4207980000000 1.0
C      1  0.5001810000000  0.5157560000000  0.5675940000000 1.0
C      1  0.4690020000000  0.4662480000000  0.4803340000000 1.0
C      1  0.5166740000000  0.5949180000000  0.5355560000000 1.0
C      1  0.4035540000000  0.5106950000000  0.5187340000000 1.0
C      1  0.5201230000000  0.5570440000000  0.5962820000000 1.0
C      1  0.5212370000000  0.5594390000000  0.5108410000000 1.0
C      1  0.5641590000000  0.5648190000000  0.4674300000000 1.0
C      1  0.5177300000000  0.4750880000000  0.5433580000000 1.0
C      1  0.5099660000000  0.5297690000000  0.3893840000000 1.0
C      1  0.4939120000000  0.5456680000000  0.4736150000000 1.0
C      1  0.4351780000000  0.4285570000000  0.4781650000000 1.0
C      1  0.5784710000000  0.4848560000000  0.5387810000000 1.0
C      1  0.5562220000000  0.5262760000000  0.5976720000000 1.0
C      1  0.4755920000000  0.5458020000000  0.4966180000000 1.0
C      1  0.4690910000000  0.4289300000000  0.5651930000000 1.0
C      1  0.5512820000000  0.5018140000000  0.5169210000000 1.0
C      1  0.4942380000000  0.4421780000000  0.5120950000000 1.0
C      1  0.4046970000000  0.4637280000000  0.5088540000000 1.0
C      1  0.4633640000000  0.5717510000000  0.5304870000000 1.0
C      1  0.4476980000000  0.4976710000000  0.5793270000000 1.0
C      1  0.3905650000000  0.4857960000000  0.5193280000000 1.0
C      1  0.4796770000000  0.5395820000000  0.4477550000000 1.0
C      1  0.4184540000000  0.5818130000000  0.4944170000000 1.0
C      1  0.4781630000000  0.4676030000000  0.5077470000000 1.0
C      1  0.5578350000000  0.5071910000000  0.4865540000000 1.0
C      1  0.4270590000000  0.5510060000000  0.4585750000000 1.0
C      1  0.4824490000000  0.5829110000000  0.4526130000000 1.0
C      1  0.4259880000000  0.4496330000000  0.5243920000000 1.0
C      1  0.5012410000000  0.5188750000000  0.4380570000000 1.0
C      1  0.5433500000000  0.5385490000000  0.4956740000000 1.0
C      1  0.4251200000000  0.4893140000000  0.5600390000000 1.0
C      1  0.5103670000000  0.3960930000000  0.5225420000000 1.0
C      1  0.4710860000000  0.4089360000000  0.5446560000000 1.0
C      1  0.5780430000000  0.5486590000000  0.5209880000000 1.0
C      1  0.4744370000000  0.5876260000000  0.5067810000000 1.0
C      1  0.5809100000000  0.5418980000000  0.4729700000000 1.0
C      1  0.5502500000000  0.5810410000000  0.5416510000000 1.0
C      1  0.5495920000000  0.4393670000000  0.5271250000000 1.0
C      1  0.5136340000000  0.5681620000000  0.4150870000000 1.0
C      1  0.4687170000000  0.5474270000000  0.4066390000000 1.0
C      1  0.5246910000000  0.4808510000000  0.6038160000000 1.0
C      1  0.4534950000000  0.4523880000000  0.5665620000000 1.0
C      1  0.5287340000000  0.5232480000000  0.5596650000000 1.0
C      1  0.5672310000000  0.4439750000000  0.4801210000000 1.0
C      1  0.4637560000000  0.4722310000000  0.5842050000000 1.0
C      1  0.5141850000000  0.4314160000000  0.4278760000000 1.0
C      1  0.4949980000000  0.4953590000000  0.4567030000000 1.0
C      1  0.4952430000000  0.5436720000000  0.5195260000000 1.0
C      1  0.4024480000000  0.5362560000000  0.4695640000000 1.0
C      1  0.4531580000000  0.5086500000000  0.5204630000000 1.0
C      1  0.5467000000000  0.5516510000000  0.5884250000000 1.0
C      1  0.5087620000000  0.5689190000000  0.5466540000000 1.0
C      1  0.4604170000000  0.4862540000000  0.4599610000000 1.0
C      1  0.5508180000000  0.4216320000000  0.4670780000000 1.0
C      1  0.5731230000000  0.4667390000000  0.4494380000000 1.0
C      1  0.5262590000000  0.4664960000000  0.4288530000000 1.0
C      1  0.5661390000000  0.4558220000000  0.5472540000000 1.0
C      1  0.4841150000000  0.5683160000000  0.4218770000000 1.0
C      1  0.5258460000000  0.4294680000000  0.4548500000000 1.0
C      1  0.4421810000000  0.5275600000000  0.5413790000000 1.0
C      1  0.5210420000000  0.5335010000000  0.4753250000000 1.0
C      1  0.5728520000000  0.5099090000000  0.5550710000000 1.0
C      1  0.4252280000000  0.4531000000000  0.4646330000000 1.0
C      1  0.4783370000000  0.4144510000000  0.4570580000000 1.0
C      1  0.5295340000000  0.4912440000000  0.4107420000000 1.0
C      1  0.5497550000000  0.5623720000000  0.4431690000000 1.0
C      1  0.5043380000000  0.5151520000000  0.5231920000000 1.0
C      1  0.4417670000000  0.4304040000000  0.5074960000000 1.0
C      1  0.4658970000000  0.4833920000000  0.5298610000000 1.0
C      1  0.4745870000000  0.3955230000000  0.4988230000000 1.0
C      1  0.5282910000000  0.5796960000000  0.4369830000000 1.0
C      1  0.4165330000000  0.5015420000000  0.4774940000000 1.0
C      1  0.6008800000000  0.4887900000000  0.5214870000000 1.0
C      1  0.4356310000000  0.5749010000000  0.4733380000000 1.0
C      1  0.4209150000000  0.4919980000000  0.4313420000000 1.0
C      1  0.5071350000000  0.4290080000000  0.5596080000000 1.0
C      1  0.4395770000000  0.4688910000000  0.4421790000000 1.0
C      1  0.5752540000000  0.5092920000000  0.4290010000000 1.0
C      1  0.4569500000000  0.5236890000000  0.5668910000000 1.0
C      1  0.5039990000000  0.5084560000000  0.4083910000000 1.0
C      1  0.5504340000000  0.5096830000000  0.5739980000000 1.0
C      1  0.5464540000000  0.5167150000000  0.4202950000000 1.0
C      1  0.5753020000000  0.5390190000000  0.5480030000000 1.0
C      1  0.4692260000000  0.4184890000000  0.5159670000000 1.0
C      1  0.5560090000000  0.5580210000000  0.5605580000000 1.0
C      1  0.5855890000000  0.4274510000000  0.4970120000000 1.0
C      1  0.4157260000000  0.4722540000000  0.4837900000000 1.0
C      1  0.4649250000000  0.5785200000000  0.4780050000000 1.0
C      1  0.5146420000000  0.4819820000000  0.4872020000000 1.0
C      1  0.5280920000000  0.5454970000000  0.4035880000000 1.0
C      1  0.5032680000000  0.5989010000000  0.5090450000000 1.0
C      1  0.5510070000000  0.4567320000000  0.5731220000000 1.0
C      1  0.4888240000000  0.4511620000000  0.4644380000000 1.0
C      1  0.4825330000000  0.4615490000000  0.6022960000000 1.0
C      1  0.4505600000000  0.4116300000000  0.4621500000000 1.0
C      1  0.5818710000000  0.4817850000000  0.4275080000000 1.0
C      1  0.4947530000000  0.5446570000000  0.5993080000000 1.0
C      1  0.4163250000000  0.5142010000000  0.5447980000000 1.0
END
