TITL C-950521-2237-398 8.14844129462854e-07 125000 -340.444721641333 0 0 56 (C1) n - 1
REM
REM in /home/bkarasulu/work/CARBON/AIRSS/Generating-Clusters/EDIP-Nigel-Params/with-SteepDescent/Only-C1/SD-CG/HFTN-CG
REM
REM
REM
REM
REM
REM ./C.cell (11c1c37f851c82e70ff6c80c92926a4b)
REM
REM compiler GCC version 9.2.1 20190827 (Red Hat 9.2.1-1)
REM options -cpp -mtune=generic -march=x86-64 -g -O0 -fpre-include=/usr/include/finclude/math-vector-fortran.h
REM seed 1416402883 -2027087097 -668457080 459823480 1024409184 -733213976 -439607370 -1524579413 1334382631 2067553590 -1193230712 2008747677 -1838336334 -155635647 -355730541 -210584375 33183826 551556847 1196661721 -1367395911 1867371605 -1576909310 841461725 -639546989 -344390008 -1130956631 -1184968228 1486444217 403593368 -131805620 911527907 509808852 692153659
REM
CELL 1.54180   50.00000   50.00000   50.00000   90.00000   90.00000   90.00000
LATT -1
SFAC C  
C      1  0.5315730000000  0.5429310000000  0.4839540000000 1.0
C      1  0.5360640000000  0.5380320000000  0.4547450000000 1.0
C      1  0.4980320000000  0.5612920000000  0.4871030000000 1.0
C      1  0.4555710000000  0.5082950000000  0.4558790000000 1.0
C      1  0.5264440000000  0.5159930000000  0.5255640000000 1.0
C      1  0.4461730000000  0.5097580000000  0.5659260000000 1.0
C      1  0.5030740000000  0.5244510000000  0.5539280000000 1.0
C      1  0.5363070000000  0.4868130000000  0.5227630000000 1.0
C      1  0.4191740000000  0.4896740000000  0.4977570000000 1.0
C      1  0.4879570000000  0.5361960000000  0.5318200000000 1.0
C      1  0.5573700000000  0.5450810000000  0.5011230000000 1.0
C      1  0.4957440000000  0.4924560000000  0.4300060000000 1.0
C      1  0.5419090000000  0.4749580000000  0.4723780000000 1.0
C      1  0.4318570000000  0.4654480000000  0.4870070000000 1.0
C      1  0.4474250000000  0.5005840000000  0.4847560000000 1.0
C      1  0.5120690000000  0.4491850000000  0.5008050000000 1.0
C      1  0.4654930000000  0.5195390000000  0.5205750000000 1.0
C      1  0.4619590000000  0.5367370000000  0.4608900000000 1.0
C      1  0.4791330000000  0.4445320000000  0.5363110000000 1.0
C      1  0.5516380000000  0.5159670000000  0.4481680000000 1.0
C      1  0.4857530000000  0.4454400000000  0.4896430000000 1.0
C      1  0.4728740000000  0.4968520000000  0.5015020000000 1.0
C      1  0.5510630000000  0.5332090000000  0.5281330000000 1.0
C      1  0.5092100000000  0.5378270000000  0.4442030000000 1.0
C      1  0.4903410000000  0.5416650000000  0.4663610000000 1.0
C      1  0.5832270000000  0.4804170000000  0.5043440000000 1.0
C      1  0.4679590000000  0.4629390000000  0.4522450000000 1.0
C      1  0.4843190000000  0.4423090000000  0.4608270000000 1.0
C      1  0.4376030000000  0.5132720000000  0.5385880000000 1.0
C      1  0.5667930000000  0.4883110000000  0.5259820000000 1.0
C      1  0.4994750000000  0.4972120000000  0.4863420000000 1.0
C      1  0.5071120000000  0.4495070000000  0.4456300000000 1.0
C      1  0.5746350000000  0.5160210000000  0.5350340000000 1.0
C      1  0.5596630000000  0.4947650000000  0.4641190000000 1.0
C      1  0.5785000000000  0.5008990000000  0.4850860000000 1.0
C      1  0.5833670000000  0.5296100000000  0.4938830000000 1.0
C      1  0.5241470000000  0.4691880000000  0.5437380000000 1.0
C      1  0.4945790000000  0.5001450000000  0.5678750000000 1.0
C      1  0.4623460000000  0.4671970000000  0.5463640000000 1.0
C      1  0.5121860000000  0.5778740000000  0.5299080000000 1.0
C      1  0.5051460000000  0.5179300000000  0.4251120000000 1.0
C      1  0.4384580000000  0.4475570000000  0.5093300000000 1.0
C      1  0.4357380000000  0.4637470000000  0.5344330000000 1.0
C      1  0.4217830000000  0.4894170000000  0.5278060000000 1.0
C      1  0.4664610000000  0.4357040000000  0.5101560000000 1.0
C      1  0.5135850000000  0.5218910000000  0.4986200000000 1.0
C      1  0.4669890000000  0.4910940000000  0.5630850000000 1.0
C      1  0.4447010000000  0.5370730000000  0.5087790000000 1.0
C      1  0.4454650000000  0.5436700000000  0.4822220000000 1.0
C      1  0.5115890000000  0.4696690000000  0.4274690000000 1.0
C      1  0.5969020000000  0.5263060000000  0.5193950000000 1.0
C      1  0.5135350000000  0.4796160000000  0.5672030000000 1.0
C      1  0.5233100000000  0.4762210000000  0.4944990000000 1.0
C      1  0.5085830000000  0.4482590000000  0.5302270000000 1.0
C      1  0.4792100000000  0.4897810000000  0.4539480000000 1.0
C      1  0.4984250000000  0.5594840000000  0.5164530000000 1.0
END
