TITL C-950522-5749-437 -5.43976219345043e-06 125000 -865.514721066825 0 0 139 (C1) n - 1
REM
REM in /home/bkarasulu/work/CARBON/AIRSS/Generating-Clusters/EDIP-Nigel-Params/with-SteepDescent/Only-C1/SD-CG/HFTN-CG
REM
REM
REM
REM
REM
REM ./C.cell (11c1c37f851c82e70ff6c80c92926a4b)
REM
REM compiler GCC version 9.2.1 20190827 (Red Hat 9.2.1-1)
REM options -cpp -mtune=generic -march=x86-64 -g -O0 -fpre-include=/usr/include/finclude/math-vector-fortran.h
REM seed -51543816 10404672 730327021 1677238460 -1699365342 -590552472 -874076592 1608660486 -853964879 -1139599929 664527442 664294235 420280614 1615814961 624544788 829546349 2097569637 472037595 2136172091 2064468140 -994986910 245603644 24514450 514657704 1535330764 -263514245 1773632971 -144491301 666612159 -205139246 603349949 -1214938406 791026684
REM
CELL 1.54180   50.00000   50.00000   50.00000   90.00000   90.00000   90.00000
LATT -1
SFAC C  
C      1  0.4949660000000  0.5359100000000  0.4648050000000 1.0
C      1  0.5464710000000  0.5954170000000  0.4887420000000 1.0
C      1  0.5163080000000  0.4090770000000  0.5357990000000 1.0
C      1  0.4676770000000  0.5121760000000  0.5953870000000 1.0
C      1  0.5593240000000  0.5135470000000  0.5967730000000 1.0
C      1  0.5452460000000  0.5125970000000  0.4111220000000 1.0
C      1  0.4142450000000  0.5021430000000  0.5110810000000 1.0
C      1  0.5165680000000  0.4645300000000  0.4109190000000 1.0
C      1  0.4144210000000  0.4641400000000  0.5444680000000 1.0
C      1  0.5092380000000  0.4242930000000  0.5603010000000 1.0
C      1  0.5176420000000  0.5405920000000  0.5717830000000 1.0
C      1  0.4317590000000  0.5165360000000  0.5557790000000 1.0
C      1  0.4748540000000  0.5316760000000  0.5123630000000 1.0
C      1  0.5900350000000  0.4751450000000  0.5187960000000 1.0
C      1  0.5187380000000  0.5142050000000  0.4997640000000 1.0
C      1  0.4957710000000  0.5114390000000  0.5831800000000 1.0
C      1  0.4260290000000  0.4256920000000  0.5048990000000 1.0
C      1  0.4711770000000  0.4602700000000  0.5384710000000 1.0
C      1  0.5640520000000  0.4265850000000  0.5406960000000 1.0
C      1  0.4487810000000  0.5752050000000  0.4506510000000 1.0
C      1  0.4983870000000  0.4417940000000  0.4188190000000 1.0
C      1  0.4236960000000  0.5630140000000  0.4550010000000 1.0
C      1  0.4865060000000  0.4087230000000  0.4617010000000 1.0
C      1  0.4425700000000  0.5272810000000  0.4783130000000 1.0
C      1  0.5754410000000  0.5518060000000  0.4609720000000 1.0
C      1  0.4608180000000  0.4330280000000  0.5428020000000 1.0
C      1  0.5107300000000  0.5383540000000  0.5435640000000 1.0
C      1  0.5843520000000  0.5599070000000  0.4885640000000 1.0
C      1  0.5652870000000  0.4543890000000  0.4701050000000 1.0
C      1  0.4687470000000  0.4154070000000  0.5188850000000 1.0
C      1  0.4613660000000  0.5837640000000  0.4750700000000 1.0
C      1  0.4517030000000  0.4595150000000  0.4315030000000 1.0
C      1  0.5773910000000  0.4460470000000  0.5186930000000 1.0
C      1  0.4583450000000  0.4182340000000  0.4685080000000 1.0
C      1  0.4494980000000  0.5436520000000  0.5033360000000 1.0
C      1  0.4290120000000  0.4902680000000  0.5369310000000 1.0
C      1  0.4593230000000  0.5346460000000  0.4255750000000 1.0
C      1  0.4985940000000  0.5351970000000  0.4945460000000 1.0
C      1  0.4977910000000  0.4143640000000  0.5117960000000 1.0
C      1  0.5578000000000  0.4911430000000  0.4261870000000 1.0
C      1  0.5067060000000  0.5867700000000  0.4553890000000 1.0
C      1  0.4443370000000  0.5621870000000  0.5431850000000 1.0
C      1  0.5449140000000  0.4096240000000  0.5257090000000 1.0
C      1  0.4245970000000  0.5400590000000  0.5385660000000 1.0
C      1  0.4666470000000  0.5525860000000  0.5601280000000 1.0
C      1  0.4272200000000  0.4507960000000  0.4911910000000 1.0
C      1  0.4998610000000  0.4915390000000  0.4147850000000 1.0
C      1  0.4488600000000  0.4747820000000  0.4950330000000 1.0
C      1  0.5954390000000  0.5361380000000  0.5315980000000 1.0
C      1  0.4598420000000  0.4642930000000  0.5861590000000 1.0
C      1  0.5179870000000  0.5180620000000  0.4216160000000 1.0
C      1  0.5456700000000  0.4364240000000  0.5618750000000 1.0
C      1  0.5236690000000  0.4725170000000  0.5510900000000 1.0
C      1  0.4180550000000  0.5433430000000  0.4738680000000 1.0
C      1  0.4333060000000  0.5000720000000  0.4888490000000 1.0
C      1  0.4915320000000  0.5805660000000  0.5541140000000 1.0
C      1  0.5475030000000  0.4179040000000  0.4977150000000 1.0
C      1  0.5701540000000  0.5159400000000  0.4953970000000 1.0
C      1  0.5248860000000  0.4722610000000  0.4655540000000 1.0
C      1  0.5074430000000  0.4925210000000  0.5365760000000 1.0
C      1  0.4840210000000  0.5031670000000  0.5550730000000 1.0
C      1  0.4766680000000  0.4735620000000  0.4837690000000 1.0
C      1  0.5946570000000  0.4868060000000  0.4928110000000 1.0
C      1  0.5124020000000  0.4450810000000  0.4725310000000 1.0
C      1  0.4850960000000  0.4528430000000  0.4649200000000 1.0
C      1  0.5144690000000  0.5553040000000  0.4165640000000 1.0
C      1  0.4392670000000  0.4344630000000  0.4491130000000 1.0
C      1  0.4819770000000  0.5324820000000  0.5415030000000 1.0
C      1  0.5592950000000  0.5585180000000  0.5521090000000 1.0
C      1  0.4317770000000  0.4407740000000  0.5462820000000 1.0
C      1  0.4175060000000  0.4470910000000  0.4641580000000 1.0
C      1  0.5853050000000  0.5269160000000  0.4499980000000 1.0
C      1  0.5020900000000  0.5871710000000  0.5049150000000 1.0
C      1  0.5247910000000  0.5162160000000  0.5288610000000 1.0
C      1  0.5322690000000  0.4058430000000  0.4766440000000 1.0
C      1  0.4241890000000  0.4995690000000  0.4453370000000 1.0
C      1  0.4480180000000  0.4827570000000  0.4512570000000 1.0
C      1  0.5932030000000  0.5355590000000  0.5029050000000 1.0
C      1  0.4726290000000  0.4994560000000  0.4485740000000 1.0
C      1  0.4823680000000  0.5895050000000  0.5282610000000 1.0
C      1  0.5650950000000  0.4885940000000  0.5281510000000 1.0
C      1  0.5795410000000  0.5372580000000  0.5555790000000 1.0
C      1  0.5429050000000  0.5552730000000  0.4228800000000 1.0
C      1  0.5385090000000  0.5992830000000  0.5370390000000 1.0
C      1  0.5361230000000  0.5631060000000  0.5703260000000 1.0
C      1  0.5263090000000  0.6048450000000  0.5091910000000 1.0
C      1  0.5804980000000  0.4792770000000  0.4690260000000 1.0
C      1  0.4543460000000  0.4799540000000  0.5239610000000 1.0
C      1  0.5065420000000  0.4220560000000  0.4415280000000 1.0
C      1  0.4783970000000  0.4720870000000  0.5644140000000 1.0
C      1  0.4526410000000  0.5280000000000  0.5747380000000 1.0
C      1  0.5296840000000  0.4506560000000  0.5291410000000 1.0
C      1  0.4971050000000  0.4733940000000  0.5056600000000 1.0
C      1  0.4487430000000  0.4792290000000  0.4068310000000 1.0
C      1  0.5038260000000  0.4004370000000  0.4845900000000 1.0
C      1  0.4365880000000  0.5079710000000  0.4171070000000 1.0
C      1  0.4671850000000  0.5272350000000  0.4550100000000 1.0
C      1  0.5489690000000  0.5169170000000  0.4682470000000 1.0
C      1  0.5520750000000  0.4439480000000  0.4463550000000 1.0
C      1  0.4889640000000  0.5923110000000  0.4779750000000 1.0
C      1  0.5065350000000  0.4661690000000  0.5742950000000 1.0
C      1  0.5075850000000  0.4433750000000  0.5066130000000 1.0
C      1  0.3999380000000  0.4888160000000  0.4554140000000 1.0
C      1  0.5687040000000  0.4364190000000  0.4922080000000 1.0
C      1  0.4132800000000  0.5330400000000  0.5111940000000 1.0
C      1  0.5122500000000  0.4884740000000  0.5935780000000 1.0
C      1  0.4571380000000  0.4868340000000  0.6025590000000 1.0
C      1  0.5138050000000  0.5585230000000  0.5043430000000 1.0
C      1  0.5636260000000  0.5820730000000  0.5340900000000 1.0
C      1  0.4959510000000  0.5682840000000  0.4346200000000 1.0
C      1  0.3918930000000  0.4731300000000  0.4771600000000 1.0
C      1  0.5403430000000  0.4669580000000  0.4300390000000 1.0
C      1  0.4543520000000  0.5821950000000  0.5239520000000 1.0
C      1  0.5032800000000  0.4917610000000  0.4535150000000 1.0
C      1  0.5244760000000  0.4844050000000  0.4941150000000 1.0
C      1  0.5596750000000  0.5366660000000  0.4098270000000 1.0
C      1  0.4665280000000  0.5638290000000  0.4298150000000 1.0
C      1  0.5356660000000  0.4182630000000  0.4489540000000 1.0
C      1  0.5646580000000  0.4867330000000  0.5575860000000 1.0
C      1  0.5179480000000  0.5186200000000  0.4533770000000 1.0
C      1  0.3926040000000  0.4643070000000  0.5263010000000 1.0
C      1  0.5698360000000  0.5122820000000  0.5707680000000 1.0
C      1  0.4498220000000  0.4132720000000  0.4968870000000 1.0
C      1  0.4443520000000  0.5814590000000  0.4974410000000 1.0
C      1  0.5427030000000  0.5526170000000  0.5082320000000 1.0
C      1  0.4811110000000  0.4577440000000  0.4362710000000 1.0
C      1  0.5205320000000  0.5857550000000  0.5583250000000 1.0
C      1  0.4792240000000  0.4256730000000  0.5670390000000 1.0
C      1  0.4690600000000  0.4376430000000  0.5911960000000 1.0
C      1  0.3914630000000  0.4830630000000  0.5048770000000 1.0
C      1  0.5551130000000  0.4631990000000  0.5719840000000 1.0
C      1  0.5698460000000  0.5018720000000  0.4516450000000 1.0
C      1  0.5352740000000  0.5839340000000  0.4632590000000 1.0
C      1  0.5391800000000  0.4952870000000  0.5982870000000 1.0
C      1  0.5519940000000  0.5649460000000  0.4486290000000 1.0
C      1  0.5620920000000  0.5744980000000  0.5044370000000 1.0
C      1  0.5466490000000  0.4691700000000  0.5121090000000 1.0
C      1  0.4717380000000  0.4974960000000  0.4046010000000 1.0
C      1  0.5544510000000  0.5262050000000  0.5220800000000 1.0
END
