TITL C-950531-5884-12 -3.25263376057641e-06 125000 -859.264705033016 0 0 139 (C1) n - 1
REM
REM in /home/bkarasulu/work/CARBON/AIRSS/Generating-Clusters/EDIP-Nigel-Params/with-SteepDescent/Only-C1/SD-CG/HFTN-CG
REM
REM
REM
REM
REM
REM ./C.cell (11c1c37f851c82e70ff6c80c92926a4b)
REM
REM compiler GCC version 9.2.1 20190827 (Red Hat 9.2.1-1)
REM options -cpp -mtune=generic -march=x86-64 -g -O0 -fpre-include=/usr/include/finclude/math-vector-fortran.h
REM seed 198430773 -339825038 -915988996 80297948 -1509265297 -1473682790 -1453139418 -138729831 684715699 -313304766 -1095272631 1972845276 24620137 -1680047057 862465410 723375735 1747694511 988045344 1785001431 -1999739036 186544804 344372634 1505045036 -123182815 936146844 531386386 -2042154226 1993659145 -1745289984 1521655985 254692132 2060230542 -52742014
REM
CELL 1.54180   50.00000   50.00000   50.00000   90.00000   90.00000   90.00000
LATT -1
SFAC C  
C      1  0.4296160000000  0.4203080000000  0.5273560000000 1.0
C      1  0.4394060000000  0.4561130000000  0.5582900000000 1.0
C      1  0.5165060000000  0.4609650000000  0.5329350000000 1.0
C      1  0.5772240000000  0.5047930000000  0.5711130000000 1.0
C      1  0.4465980000000  0.5277700000000  0.5144880000000 1.0
C      1  0.4075670000000  0.4624040000000  0.5276770000000 1.0
C      1  0.5677880000000  0.5457160000000  0.4637180000000 1.0
C      1  0.5685070000000  0.5279140000000  0.5550550000000 1.0
C      1  0.5641960000000  0.4440020000000  0.4437310000000 1.0
C      1  0.4691300000000  0.5206830000000  0.5020200000000 1.0
C      1  0.5890610000000  0.4907460000000  0.4423620000000 1.0
C      1  0.4159030000000  0.5045260000000  0.4445990000000 1.0
C      1  0.4376970000000  0.5664220000000  0.4755540000000 1.0
C      1  0.3911820000000  0.5235830000000  0.5072600000000 1.0
C      1  0.4947490000000  0.4108040000000  0.4353480000000 1.0
C      1  0.5128630000000  0.5230270000000  0.4807110000000 1.0
C      1  0.4102700000000  0.4588700000000  0.5561260000000 1.0
C      1  0.5640950000000  0.4376990000000  0.5556760000000 1.0
C      1  0.5704620000000  0.4711700000000  0.4319720000000 1.0
C      1  0.5275210000000  0.4638360000000  0.4104450000000 1.0
C      1  0.4819990000000  0.4794160000000  0.4152920000000 1.0
C      1  0.5362010000000  0.5027470000000  0.5201740000000 1.0
C      1  0.4929090000000  0.4355580000000  0.5672240000000 1.0
C      1  0.4314110000000  0.5303900000000  0.4078800000000 1.0
C      1  0.5198250000000  0.4326590000000  0.5820240000000 1.0
C      1  0.4803340000000  0.5885280000000  0.5554180000000 1.0
C      1  0.5424060000000  0.4743760000000  0.4804540000000 1.0
C      1  0.4641170000000  0.5004490000000  0.4818480000000 1.0
C      1  0.4980420000000  0.4608400000000  0.4603400000000 1.0
C      1  0.4780970000000  0.5678750000000  0.5231530000000 1.0
C      1  0.5355940000000  0.4365810000000  0.4370740000000 1.0
C      1  0.5737620000000  0.4681020000000  0.4822010000000 1.0
C      1  0.5785080000000  0.4663780000000  0.5117550000000 1.0
C      1  0.4962250000000  0.4679270000000  0.5099540000000 1.0
C      1  0.5250160000000  0.4260080000000  0.5385490000000 1.0
C      1  0.5019120000000  0.4475850000000  0.4866560000000 1.0
C      1  0.4553820000000  0.5741710000000  0.5601100000000 1.0
C      1  0.4131530000000  0.4379070000000  0.5129690000000 1.0
C      1  0.5960220000000  0.4841340000000  0.4693410000000 1.0
C      1  0.5910350000000  0.4408270000000  0.5164260000000 1.0
C      1  0.4767990000000  0.5870180000000  0.5006410000000 1.0
C      1  0.5992840000000  0.5109740000000  0.4804740000000 1.0
C      1  0.3987940000000  0.5501570000000  0.5013920000000 1.0
C      1  0.4131000000000  0.5043220000000  0.4738300000000 1.0
C      1  0.5440180000000  0.5867040000000  0.4894880000000 1.0
C      1  0.4202780000000  0.5320340000000  0.4340700000000 1.0
C      1  0.4189020000000  0.5692580000000  0.4974730000000 1.0
C      1  0.4383190000000  0.4595300000000  0.4474060000000 1.0
C      1  0.5530430000000  0.4793220000000  0.4103250000000 1.0
C      1  0.4080300000000  0.5116180000000  0.5284000000000 1.0
C      1  0.5432470000000  0.4011780000000  0.4916780000000 1.0
C      1  0.5488540000000  0.5070680000000  0.4071870000000 1.0
C      1  0.5187000000000  0.4074020000000  0.4794860000000 1.0
C      1  0.5710400000000  0.4267900000000  0.5291430000000 1.0
C      1  0.5294560000000  0.5201360000000  0.4567470000000 1.0
C      1  0.5603520000000  0.4681130000000  0.5541180000000 1.0
C      1  0.4732750000000  0.4229120000000  0.4786480000000 1.0
C      1  0.5555560000000  0.4901310000000  0.5846520000000 1.0
C      1  0.5248800000000  0.5912580000000  0.5102300000000 1.0
C      1  0.5052300000000  0.6033510000000  0.4652120000000 1.0
C      1  0.3875210000000  0.5060880000000  0.4854870000000 1.0
C      1  0.5016850000000  0.4792760000000  0.5547250000000 1.0
C      1  0.4636940000000  0.5803220000000  0.4755760000000 1.0
C      1  0.5294410000000  0.5691520000000  0.4429190000000 1.0
C      1  0.4584770000000  0.4420390000000  0.4365120000000 1.0
C      1  0.4715130000000  0.4602120000000  0.5247550000000 1.0
C      1  0.5441240000000  0.4744330000000  0.5276080000000 1.0
C      1  0.5119700000000  0.4013650000000  0.5333340000000 1.0
C      1  0.4590870000000  0.5467030000000  0.5717060000000 1.0
C      1  0.5054800000000  0.5710820000000  0.4265670000000 1.0
C      1  0.5057670000000  0.4638560000000  0.6001890000000 1.0
C      1  0.4917150000000  0.5184270000000  0.5202370000000 1.0
C      1  0.4876880000000  0.4626370000000  0.5767970000000 1.0
C      1  0.5394180000000  0.4234060000000  0.5633780000000 1.0
C      1  0.5108890000000  0.5012870000000  0.5042160000000 1.0
C      1  0.5232390000000  0.4739310000000  0.4573190000000 1.0
C      1  0.5439510000000  0.5428900000000  0.4428280000000 1.0
C      1  0.5523170000000  0.5376760000000  0.4904290000000 1.0
C      1  0.4112480000000  0.4386060000000  0.4851830000000 1.0
C      1  0.4457140000000  0.5673780000000  0.5326740000000 1.0
C      1  0.4472160000000  0.4286380000000  0.5474670000000 1.0
C      1  0.5305400000000  0.5890930000000  0.4638610000000 1.0
C      1  0.4755920000000  0.4328080000000  0.5391000000000 1.0
C      1  0.4655160000000  0.5009320000000  0.4272260000000 1.0
C      1  0.5097620000000  0.4880330000000  0.4141010000000 1.0
C      1  0.5281860000000  0.5815140000000  0.5378470000000 1.0
C      1  0.5345460000000  0.5490380000000  0.5828920000000 1.0
C      1  0.5372890000000  0.5317720000000  0.4145700000000 1.0
C      1  0.5875680000000  0.4835080000000  0.5531150000000 1.0
C      1  0.4870980000000  0.5876280000000  0.4452060000000 1.0
C      1  0.4578640000000  0.4941090000000  0.5861420000000 1.0
C      1  0.5315120000000  0.5052840000000  0.5890120000000 1.0
C      1  0.4375620000000  0.5478370000000  0.4531130000000 1.0
C      1  0.5061820000000  0.5409070000000  0.4165830000000 1.0
C      1  0.4384200000000  0.4869290000000  0.4359560000000 1.0
C      1  0.5692700000000  0.5316940000000  0.5166640000000 1.0
C      1  0.5545520000000  0.4278180000000  0.4955090000000 1.0
C      1  0.4415700000000  0.5261280000000  0.5599610000000 1.0
C      1  0.4813040000000  0.5078460000000  0.4534210000000 1.0
C      1  0.4488760000000  0.4774310000000  0.5378850000000 1.0
C      1  0.4811620000000  0.5263970000000  0.4055700000000 1.0
C      1  0.4169910000000  0.4476640000000  0.4606480000000 1.0
C      1  0.4242130000000  0.4862640000000  0.5189790000000 1.0
C      1  0.4685470000000  0.4174880000000  0.4505920000000 1.0
C      1  0.5332640000000  0.5256550000000  0.5396010000000 1.0
C      1  0.5065850000000  0.5460380000000  0.5230950000000 1.0
C      1  0.4849040000000  0.5365530000000  0.5817380000000 1.0
C      1  0.5952440000000  0.4880160000000  0.5239880000000 1.0
C      1  0.5929670000000  0.5143240000000  0.5096430000000 1.0
C      1  0.4281540000000  0.5329640000000  0.5352040000000 1.0
C      1  0.4615980000000  0.5521710000000  0.4377150000000 1.0
C      1  0.4862800000000  0.5393900000000  0.4499090000000 1.0
C      1  0.4572460000000  0.5014820000000  0.5571790000000 1.0
C      1  0.4879840000000  0.4091580000000  0.5218990000000 1.0
C      1  0.5172970000000  0.5141360000000  0.5635810000000 1.0
C      1  0.4344470000000  0.4898540000000  0.4882960000000 1.0
C      1  0.5019850000000  0.4350700000000  0.4175450000000 1.0
C      1  0.5055150000000  0.5749560000000  0.5562820000000 1.0
C      1  0.5569860000000  0.5518820000000  0.5663740000000 1.0
C      1  0.5886020000000  0.5260780000000  0.4578700000000 1.0
C      1  0.5080690000000  0.4929490000000  0.6026000000000 1.0
C      1  0.5740470000000  0.4391190000000  0.4720920000000 1.0
C      1  0.4913800000000  0.4063120000000  0.4925230000000 1.0
C      1  0.5011870000000  0.6011260000000  0.4953950000000 1.0
C      1  0.5739970000000  0.5618020000000  0.5202590000000 1.0
C      1  0.5693000000000  0.5726800000000  0.4922270000000 1.0
C      1  0.5206440000000  0.4122900000000  0.4503340000000 1.0
C      1  0.4864690000000  0.5067990000000  0.5487100000000 1.0
C      1  0.5328600000000  0.4495990000000  0.4935160000000 1.0
C      1  0.5136910000000  0.4985580000000  0.4433990000000 1.0
C      1  0.4572320000000  0.5410970000000  0.4111990000000 1.0
C      1  0.4274710000000  0.5853580000000  0.5190490000000 1.0
C      1  0.5547920000000  0.5697240000000  0.5429640000000 1.0
C      1  0.5194260000000  0.5500990000000  0.4945770000000 1.0
C      1  0.4838010000000  0.5084350000000  0.5932360000000 1.0
C      1  0.5078770000000  0.5548850000000  0.5774710000000 1.0
C      1  0.4572120000000  0.4648690000000  0.5829030000000 1.0
C      1  0.4847740000000  0.4550840000000  0.4324520000000 1.0
C      1  0.4969880000000  0.5608790000000  0.4714390000000 1.0
END
