TITL C-950536-5891-97 -6.84828485843795e-06 125000 -931.777574452296 0 0 150 (C1) n - 1
REM
REM in /home/bkarasulu/work/CARBON/AIRSS/Generating-Clusters/EDIP-Nigel-Params/with-SteepDescent/Only-C1/SD-CG/HFTN-CG
REM
REM
REM
REM
REM
REM ./C.cell (11c1c37f851c82e70ff6c80c92926a4b)
REM
REM compiler GCC version 9.2.1 20190827 (Red Hat 9.2.1-1)
REM options -cpp -mtune=generic -march=x86-64 -g -O0 -fpre-include=/usr/include/finclude/math-vector-fortran.h
REM seed 1847924601 -1826003765 629351210 -1601289173 -2143984428 -104447501 -163517170 1376975809 733688731 1074184416 -528693179 -1199228797 1196130322 1579910433 -919965175 1353475116 1228714895 447323026 -2041933601 -308904738 -455928519 -2045556945 -813314341 -120542709 1050741707 -598876850 1129563008 358589069 -419228354 1659239438 1070721534 2090250508 973761898
REM
CELL 1.54180   50.00000   50.00000   50.00000   90.00000   90.00000   90.00000
LATT -1
SFAC C  
C      1  0.5099210000000  0.4190220000000  0.4990120000000 1.0
C      1  0.4941900000000  0.4573080000000  0.4121840000000 1.0
C      1  0.4828460000000  0.5633370000000  0.4712350000000 1.0
C      1  0.4362080000000  0.5547720000000  0.4835080000000 1.0
C      1  0.4750360000000  0.4794770000000  0.5857970000000 1.0
C      1  0.4472560000000  0.5178680000000  0.5958020000000 1.0
C      1  0.5383720000000  0.5820840000000  0.5487110000000 1.0
C      1  0.5583390000000  0.4781500000000  0.4624630000000 1.0
C      1  0.4558140000000  0.4433300000000  0.4925020000000 1.0
C      1  0.4127840000000  0.5479050000000  0.5203850000000 1.0
C      1  0.4860590000000  0.4193340000000  0.4144480000000 1.0
C      1  0.4826480000000  0.4118380000000  0.5100740000000 1.0
C      1  0.4476720000000  0.4506990000000  0.3983040000000 1.0
C      1  0.5724060000000  0.5530960000000  0.4883780000000 1.0
C      1  0.4691970000000  0.6065970000000  0.4834320000000 1.0
C      1  0.5915410000000  0.4538470000000  0.4945340000000 1.0
C      1  0.5301210000000  0.4838790000000  0.5387070000000 1.0
C      1  0.5361010000000  0.5775120000000  0.4620070000000 1.0
C      1  0.5753720000000  0.4561130000000  0.5427460000000 1.0
C      1  0.4149800000000  0.4934390000000  0.4527200000000 1.0
C      1  0.5371310000000  0.5556810000000  0.5916430000000 1.0
C      1  0.5693490000000  0.5726120000000  0.5137440000000 1.0
C      1  0.5007220000000  0.5184600000000  0.4501880000000 1.0
C      1  0.4000760000000  0.5548130000000  0.4949980000000 1.0
C      1  0.5232240000000  0.5410610000000  0.4886720000000 1.0
C      1  0.5173890000000  0.5122600000000  0.4036330000000 1.0
C      1  0.4451110000000  0.5009400000000  0.4149280000000 1.0
C      1  0.5368750000000  0.5779660000000  0.4344530000000 1.0
C      1  0.4722610000000  0.4395230000000  0.5182100000000 1.0
C      1  0.4333040000000  0.4626860000000  0.4908900000000 1.0
C      1  0.5020160000000  0.5097540000000  0.5673640000000 1.0
C      1  0.5880030000000  0.5405070000000  0.5475170000000 1.0
C      1  0.4691840000000  0.5995570000000  0.4556760000000 1.0
C      1  0.5817580000000  0.4400990000000  0.4701870000000 1.0
C      1  0.4266450000000  0.4503290000000  0.4204990000000 1.0
C      1  0.4859850000000  0.4867130000000  0.5588610000000 1.0
C      1  0.4557420000000  0.4745080000000  0.4256970000000 1.0
C      1  0.4702010000000  0.5266970000000  0.6092480000000 1.0
C      1  0.5216190000000  0.4116010000000  0.5674250000000 1.0
C      1  0.4381490000000  0.4118160000000  0.4925540000000 1.0
C      1  0.4974300000000  0.4851030000000  0.5062200000000 1.0
C      1  0.5796070000000  0.5666790000000  0.5412180000000 1.0
C      1  0.4407310000000  0.4710890000000  0.5411130000000 1.0
C      1  0.5291380000000  0.3971860000000  0.5029480000000 1.0
C      1  0.4612000000000  0.4178810000000  0.4563020000000 1.0
C      1  0.4094380000000  0.4991380000000  0.5095110000000 1.0
C      1  0.4635570000000  0.4896850000000  0.5384560000000 1.0
C      1  0.5167050000000  0.5033370000000  0.5211550000000 1.0
C      1  0.4942230000000  0.5704800000000  0.5703840000000 1.0
C      1  0.6002880000000  0.4971910000000  0.5329510000000 1.0
C      1  0.5100760000000  0.5877920000000  0.5531450000000 1.0
C      1  0.5395040000000  0.4518630000000  0.4324750000000 1.0
C      1  0.5347360000000  0.5566300000000  0.4181460000000 1.0
C      1  0.4933950000000  0.4897530000000  0.4575100000000 1.0
C      1  0.5742950000000  0.4839520000000  0.5333440000000 1.0
C      1  0.5336410000000  0.4306180000000  0.4533290000000 1.0
C      1  0.4747340000000  0.4688590000000  0.4494620000000 1.0
C      1  0.4252300000000  0.4213000000000  0.4684270000000 1.0
C      1  0.4728630000000  0.5448560000000  0.5148200000000 1.0
C      1  0.5342940000000  0.4969410000000  0.4749290000000 1.0
C      1  0.4219240000000  0.5137100000000  0.5561120000000 1.0
C      1  0.5120180000000  0.5259180000000  0.5437580000000 1.0
C      1  0.5562910000000  0.5115960000000  0.4336900000000 1.0
C      1  0.5525590000000  0.5383280000000  0.5214850000000 1.0
C      1  0.4757830000000  0.5276320000000  0.4348290000000 1.0
C      1  0.4456880000000  0.4879530000000  0.5903600000000 1.0
C      1  0.5523700000000  0.4990380000000  0.5511450000000 1.0
C      1  0.4777270000000  0.4363820000000  0.5621750000000 1.0
C      1  0.5503240000000  0.5576300000000  0.5639150000000 1.0
C      1  0.5425780000000  0.4573670000000  0.4931990000000 1.0
C      1  0.4772940000000  0.5559790000000  0.4280650000000 1.0
C      1  0.4280020000000  0.4854870000000  0.5648320000000 1.0
C      1  0.5934580000000  0.5231420000000  0.5247540000000 1.0
C      1  0.5092490000000  0.4818150000000  0.4787480000000 1.0
C      1  0.4125210000000  0.5431960000000  0.4465320000000 1.0
C      1  0.5457180000000  0.5508570000000  0.4701530000000 1.0
C      1  0.4426990000000  0.5904710000000  0.5247050000000 1.0
C      1  0.4631670000000  0.5650170000000  0.4950140000000 1.0
C      1  0.5641220000000  0.4806740000000  0.5031590000000 1.0
C      1  0.4220640000000  0.5199630000000  0.5265250000000 1.0
C      1  0.5154540000000  0.4588140000000  0.5865090000000 1.0
C      1  0.4908830000000  0.5577990000000  0.4035650000000 1.0
C      1  0.4654110000000  0.5768870000000  0.5653330000000 1.0
C      1  0.4166860000000  0.4489090000000  0.4705560000000 1.0
C      1  0.4950590000000  0.4142020000000  0.5525430000000 1.0
C      1  0.5828130000000  0.5304850000000  0.5733160000000 1.0
C      1  0.4748450000000  0.4614730000000  0.3901670000000 1.0
C      1  0.5223100000000  0.4937130000000  0.5876150000000 1.0
C      1  0.5414230000000  0.5806220000000  0.5195050000000 1.0
C      1  0.4849450000000  0.4516840000000  0.5866770000000 1.0
C      1  0.6004500000000  0.4821910000000  0.4888020000000 1.0
C      1  0.5139520000000  0.5416540000000  0.4074040000000 1.0
C      1  0.5432290000000  0.5026740000000  0.4102970000000 1.0
C      1  0.4292420000000  0.5150320000000  0.4370750000000 1.0
C      1  0.4546320000000  0.4429520000000  0.5438290000000 1.0
C      1  0.4380410000000  0.5317650000000  0.5717610000000 1.0
C      1  0.5886980000000  0.5060430000000  0.4770980000000 1.0
C      1  0.4531110000000  0.5208190000000  0.4537500000000 1.0
C      1  0.4221210000000  0.4730750000000  0.5156320000000 1.0
C      1  0.5221500000000  0.4465600000000  0.4094310000000 1.0
C      1  0.5540390000000  0.4326500000000  0.4779750000000 1.0
C      1  0.5812060000000  0.5061000000000  0.4484050000000 1.0
C      1  0.4709170000000  0.5126830000000  0.4093330000000 1.0
C      1  0.5341090000000  0.4386690000000  0.5702130000000 1.0
C      1  0.4925280000000  0.4944680000000  0.4004960000000 1.0
C      1  0.4322210000000  0.5648300000000  0.4554520000000 1.0
C      1  0.4646140000000  0.4001940000000  0.4897370000000 1.0
C      1  0.3979470000000  0.5349120000000  0.4729770000000 1.0
C      1  0.5229960000000  0.4433940000000  0.5129890000000 1.0
C      1  0.4448040000000  0.5990570000000  0.4971570000000 1.0
C      1  0.5020810000000  0.3953770000000  0.4506170000000 1.0
C      1  0.5866860000000  0.5281790000000  0.4961170000000 1.0
C      1  0.5427010000000  0.5309800000000  0.5483720000000 1.0
C      1  0.5516350000000  0.4940070000000  0.5796970000000 1.0
C      1  0.4588120000000  0.5750320000000  0.4428680000000 1.0
C      1  0.5259500000000  0.4059320000000  0.4372180000000 1.0
C      1  0.5475510000000  0.4434190000000  0.5429640000000 1.0
C      1  0.5664720000000  0.5161490000000  0.5918070000000 1.0
C      1  0.5669450000000  0.4509660000000  0.4257080000000 1.0
C      1  0.5203860000000  0.5602650000000  0.5117660000000 1.0
C      1  0.4779200000000  0.4032620000000  0.4367280000000 1.0
C      1  0.4660660000000  0.5950860000000  0.5414250000000 1.0
C      1  0.4413110000000  0.5249680000000  0.4813730000000 1.0
C      1  0.4975220000000  0.5523170000000  0.5312570000000 1.0
C      1  0.4136400000000  0.5096720000000  0.4803130000000 1.0
C      1  0.4983260000000  0.4582100000000  0.5209770000000 1.0
C      1  0.5128830000000  0.5869670000000  0.4771810000000 1.0
C      1  0.4977980000000  0.5367720000000  0.4739260000000 1.0
C      1  0.5864200000000  0.4391470000000  0.5218010000000 1.0
C      1  0.4182200000000  0.4643980000000  0.4461380000000 1.0
C      1  0.5201840000000  0.5140330000000  0.6111070000000 1.0
C      1  0.4926770000000  0.5911470000000  0.5280240000000 1.0
C      1  0.4974470000000  0.5327400000000  0.6051510000000 1.0
C      1  0.5668490000000  0.4176140000000  0.5223260000000 1.0
C      1  0.5452760000000  0.5312510000000  0.6068980000000 1.0
C      1  0.5075390000000  0.4666960000000  0.5499100000000 1.0
C      1  0.4277810000000  0.5676210000000  0.5364450000000 1.0
C      1  0.5363390000000  0.5149410000000  0.5009360000000 1.0
C      1  0.4560830000000  0.5206910000000  0.5084160000000 1.0
C      1  0.4936030000000  0.5973800000000  0.4969940000000 1.0
C      1  0.4421940000000  0.5587220000000  0.5607180000000 1.0
C      1  0.5185180000000  0.3973370000000  0.5399600000000 1.0
C      1  0.5076270000000  0.5574080000000  0.5928080000000 1.0
C      1  0.4698930000000  0.4946460000000  0.5107830000000 1.0
C      1  0.4758920000000  0.4429530000000  0.4663180000000 1.0
C      1  0.5795860000000  0.4597800000000  0.4489810000000 1.0
C      1  0.5147710000000  0.4180130000000  0.4117110000000 1.0
C      1  0.5048240000000  0.4274660000000  0.4695650000000 1.0
C      1  0.5547730000000  0.4092080000000  0.4976450000000 1.0
C      1  0.5357320000000  0.5252610000000  0.4491160000000 1.0
END
