TITL C-951348-1603-226 -7.74627457970333e-07 125000 -324.01531658385 0 0 53 (C1) n - 1
REM
REM in /home/bkarasulu/work/CARBON/AIRSS/Generating-Clusters/EDIP-Nigel-Params/with-SteepDescent/Only-C1/SD-CG/HFTN-CG
REM
REM
REM
REM
REM
REM ./C.cell (11c1c37f851c82e70ff6c80c92926a4b)
REM
REM compiler GCC version 9.2.1 20190827 (Red Hat 9.2.1-1)
REM options -cpp -mtune=generic -march=x86-64 -g -O0 -fpre-include=/usr/include/finclude/math-vector-fortran.h
REM seed -1110140598 2038225870 1648864416 -20636199 -667314838 -632113323 -1369232451 -382342015 -698909880 -874943204 243833831 61587618 1713515868 -980551401 1448769284 28838535 -630878449 -424995805 -1955526888 567181973 -1193799053 -144876961 -682085026 -1116690765 -729611193 588919751 -46821167 1141330492 1585992125 2069503990 1454816707 -130871510 -678069834
REM
CELL 1.54180   50.00000   50.00000   50.00000   90.00000   90.00000   90.00000
LATT -1
SFAC C  
C      1  0.4726530000000  0.5088260000000  0.4924430000000 1.0
C      1  0.5318290000000  0.4439750000000  0.4843820000000 1.0
C      1  0.5424790000000  0.4864820000000  0.5109840000000 1.0
C      1  0.5310560000000  0.4816740000000  0.5536690000000 1.0
C      1  0.4680890000000  0.4447060000000  0.4773360000000 1.0
C      1  0.5443560000000  0.5547950000000  0.5315710000000 1.0
C      1  0.5536440000000  0.4652360000000  0.5485620000000 1.0
C      1  0.4843920000000  0.4568850000000  0.4563720000000 1.0
C      1  0.5632720000000  0.5050980000000  0.4976710000000 1.0
C      1  0.4794520000000  0.5620360000000  0.4760540000000 1.0
C      1  0.4251450000000  0.5174210000000  0.4959020000000 1.0
C      1  0.5738650000000  0.5199210000000  0.5202780000000 1.0
C      1  0.4269370000000  0.4943430000000  0.4765370000000 1.0
C      1  0.5835000000000  0.4885890000000  0.4846100000000 1.0
C      1  0.4721430000000  0.4271930000000  0.5224490000000 1.0
C      1  0.5088830000000  0.4779070000000  0.5153370000000 1.0
C      1  0.4467280000000  0.5119400000000  0.5404910000000 1.0
C      1  0.4596520000000  0.5222160000000  0.4457910000000 1.0
C      1  0.5488380000000  0.4400800000000  0.5066210000000 1.0
C      1  0.4646420000000  0.5367270000000  0.5374450000000 1.0
C      1  0.4375060000000  0.5026730000000  0.4490660000000 1.0
C      1  0.4479520000000  0.4644830000000  0.4908090000000 1.0
C      1  0.5314220000000  0.5110060000000  0.5459190000000 1.0
C      1  0.5097200000000  0.5293300000000  0.4523540000000 1.0
C      1  0.5432810000000  0.4627580000000  0.4645650000000 1.0
C      1  0.4611300000000  0.4883480000000  0.4750770000000 1.0
C      1  0.4875690000000  0.5104250000000  0.4475770000000 1.0
C      1  0.5510090000000  0.5233790000000  0.4770350000000 1.0
C      1  0.5699450000000  0.4703280000000  0.4696980000000 1.0
C      1  0.5568070000000  0.4629590000000  0.5210250000000 1.0
C      1  0.4853240000000  0.4311180000000  0.4983340000000 1.0
C      1  0.5047200000000  0.4545760000000  0.4925610000000 1.0
C      1  0.4740330000000  0.5717970000000  0.5023570000000 1.0
C      1  0.5313410000000  0.5683740000000  0.5120800000000 1.0
C      1  0.4501860000000  0.4655730000000  0.5208790000000 1.0
C      1  0.4649210000000  0.4879170000000  0.5348620000000 1.0
C      1  0.4238540000000  0.5125970000000  0.5236110000000 1.0
C      1  0.4566250000000  0.5519570000000  0.5129870000000 1.0
C      1  0.4921440000000  0.5262620000000  0.5322890000000 1.0
C      1  0.5088570000000  0.5251080000000  0.5546230000000 1.0
C      1  0.4860650000000  0.5006750000000  0.5171240000000 1.0
C      1  0.5060580000000  0.5498360000000  0.4731000000000 1.0
C      1  0.4517820000000  0.5308750000000  0.4923450000000 1.0
C      1  0.5330960000000  0.5122480000000  0.4572470000000 1.0
C      1  0.4553490000000  0.5453680000000  0.4656940000000 1.0
C      1  0.4515450000000  0.4405630000000  0.5334600000000 1.0
C      1  0.5302350000000  0.5618930000000  0.4848800000000 1.0
C      1  0.5533470000000  0.5289450000000  0.5373530000000 1.0
C      1  0.5055320000000  0.4683650000000  0.5447850000000 1.0
C      1  0.4809960000000  0.4769190000000  0.5568330000000 1.0
C      1  0.5545420000000  0.5510780000000  0.4760970000000 1.0
C      1  0.4970130000000  0.4816930000000  0.4502510000000 1.0
C      1  0.5245440000000  0.4845230000000  0.4586170000000 1.0
END
