TITL C-950525-1983-26 -1.5448310573803e-06 125000 -670.653006606571 0 0 109 (C1) n - 1
REM
REM in /home/bkarasulu/work/CARBON/AIRSS/Generating-Clusters/EDIP-Nigel-Params/with-SteepDescent/Only-C1/SD-CG/HFTN-CG
REM
REM
REM
REM
REM
REM ./C.cell (11c1c37f851c82e70ff6c80c92926a4b)
REM
REM compiler GCC version 9.2.1 20190827 (Red Hat 9.2.1-1)
REM options -cpp -mtune=generic -march=x86-64 -g -O0 -fpre-include=/usr/include/finclude/math-vector-fortran.h
REM seed -1934284190 -314677575 -2078150279 -1364106128 -523290443 886994051 459895814 1998590021 1280315794 1408119252 1493605902 -2072736801 1446006898 548168343 2030725313 -1755051755 -1301219834 -968973848 -1791186721 -1547246260 208261738 -2073244565 1902435116 548186628 1267349292 1768137495 -465392483 -1373920365 1125390705 -1900370147 -382497497 -334033150 -2014046720
REM
CELL 1.54180   50.00000   50.00000   50.00000   90.00000   90.00000   90.00000
LATT -1
SFAC C  
C      1  0.4257480000000  0.4614400000000  0.5431740000000 1.0
C      1  0.5024660000000  0.4215270000000  0.4686700000000 1.0
C      1  0.5109810000000  0.5363300000000  0.5017940000000 1.0
C      1  0.4268050000000  0.5340260000000  0.4623440000000 1.0
C      1  0.5143930000000  0.4367090000000  0.5566610000000 1.0
C      1  0.4886550000000  0.5886160000000  0.5151450000000 1.0
C      1  0.5005630000000  0.4806070000000  0.5786800000000 1.0
C      1  0.5129710000000  0.4492520000000  0.4325330000000 1.0
C      1  0.4340360000000  0.4904980000000  0.4407280000000 1.0
C      1  0.4691070000000  0.5439020000000  0.4834560000000 1.0
C      1  0.5616880000000  0.4778600000000  0.4685590000000 1.0
C      1  0.5350440000000  0.5917940000000  0.4962290000000 1.0
C      1  0.4550020000000  0.4624910000000  0.4762570000000 1.0
C      1  0.4621450000000  0.5225570000000  0.4133110000000 1.0
C      1  0.6074580000000  0.4699740000000  0.4803930000000 1.0
C      1  0.5565090000000  0.4975090000000  0.4235080000000 1.0
C      1  0.5389260000000  0.4553580000000  0.4338650000000 1.0
C      1  0.5590230000000  0.5403440000000  0.5114590000000 1.0
C      1  0.5121850000000  0.5349290000000  0.5917690000000 1.0
C      1  0.5535920000000  0.4266960000000  0.4697580000000 1.0
C      1  0.4294030000000  0.4487930000000  0.5174520000000 1.0
C      1  0.5069580000000  0.5484120000000  0.4408100000000 1.0
C      1  0.5057600000000  0.4052780000000  0.5123730000000 1.0
C      1  0.5631540000000  0.5284440000000  0.4702130000000 1.0
C      1  0.5269830000000  0.4909350000000  0.5749000000000 1.0
C      1  0.5377640000000  0.5166470000000  0.4205340000000 1.0
C      1  0.5485950000000  0.4719200000000  0.5725320000000 1.0
C      1  0.5718450000000  0.5656890000000  0.5226650000000 1.0
C      1  0.4360840000000  0.4442120000000  0.4609510000000 1.0
C      1  0.4547440000000  0.4681400000000  0.5491570000000 1.0
C      1  0.5177390000000  0.5211360000000  0.4392220000000 1.0
C      1  0.5036700000000  0.4507830000000  0.4799780000000 1.0
C      1  0.5948060000000  0.4737050000000  0.5056800000000 1.0
C      1  0.5643060000000  0.5153590000000  0.5496260000000 1.0
C      1  0.4796490000000  0.5189050000000  0.5277700000000 1.0
C      1  0.5317840000000  0.4013190000000  0.5024040000000 1.0
C      1  0.5502280000000  0.4978590000000  0.4909250000000 1.0
C      1  0.4297260000000  0.5052690000000  0.5244110000000 1.0
C      1  0.4777540000000  0.4242670000000  0.4408420000000 1.0
C      1  0.4868850000000  0.4069330000000  0.4898510000000 1.0
C      1  0.4845720000000  0.5454840000000  0.5124660000000 1.0
C      1  0.4462570000000  0.5554250000000  0.5316310000000 1.0
C      1  0.4337880000000  0.5122070000000  0.5564690000000 1.0
C      1  0.5262750000000  0.5115840000000  0.5426680000000 1.0
C      1  0.4939060000000  0.5988700000000  0.4721590000000 1.0
C      1  0.4336330000000  0.4708950000000  0.4965330000000 1.0
C      1  0.4120430000000  0.5145650000000  0.4797450000000 1.0
C      1  0.4558810000000  0.4935380000000  0.4095410000000 1.0
C      1  0.5600760000000  0.5752760000000  0.4937360000000 1.0
C      1  0.4764490000000  0.4538680000000  0.4957860000000 1.0
C      1  0.5014940000000  0.5551640000000  0.4127920000000 1.0
C      1  0.4611460000000  0.4182570000000  0.4949430000000 1.0
C      1  0.4717700000000  0.5121540000000  0.4842880000000 1.0
C      1  0.4950490000000  0.4528910000000  0.5710560000000 1.0
C      1  0.4674920000000  0.5478580000000  0.5737370000000 1.0
C      1  0.5415390000000  0.4466280000000  0.5578960000000 1.0
C      1  0.4778240000000  0.4779730000000  0.4483100000000 1.0
C      1  0.4587010000000  0.5017380000000  0.4565600000000 1.0
C      1  0.5030870000000  0.5115770000000  0.4867410000000 1.0
C      1  0.4140320000000  0.5244200000000  0.5080250000000 1.0
C      1  0.4821630000000  0.5699650000000  0.5614200000000 1.0
C      1  0.5742390000000  0.4533450000000  0.5102710000000 1.0
C      1  0.4838480000000  0.5369120000000  0.4022910000000 1.0
C      1  0.4677400000000  0.4456270000000  0.5631710000000 1.0
C      1  0.5684380000000  0.4852690000000  0.5541990000000 1.0
C      1  0.5563790000000  0.5672630000000  0.5483920000000 1.0
C      1  0.4729150000000  0.4742860000000  0.5215620000000 1.0
C      1  0.4791430000000  0.4999410000000  0.5789980000000 1.0
C      1  0.4401340000000  0.5519970000000  0.4817260000000 1.0
C      1  0.4436760000000  0.5408580000000  0.5569700000000 1.0
C      1  0.4117860000000  0.4859750000000  0.5388120000000 1.0
C      1  0.4702710000000  0.4248820000000  0.5425970000000 1.0
C      1  0.4720230000000  0.4428770000000  0.4172490000000 1.0
C      1  0.4725150000000  0.4719170000000  0.4204960000000 1.0
C      1  0.5592140000000  0.5420540000000  0.5658940000000 1.0
C      1  0.4483720000000  0.4258830000000  0.4422480000000 1.0
C      1  0.4122680000000  0.4829960000000  0.4789720000000 1.0
C      1  0.5279190000000  0.4563680000000  0.4966720000000 1.0
C      1  0.5379450000000  0.5400240000000  0.5842760000000 1.0
C      1  0.5559220000000  0.4675020000000  0.5298710000000 1.0
C      1  0.5913060000000  0.4860440000000  0.4635130000000 1.0
C      1  0.5178760000000  0.5069560000000  0.4632350000000 1.0
C      1  0.5337190000000  0.4814650000000  0.5122180000000 1.0
C      1  0.4281470000000  0.5502180000000  0.5084840000000 1.0
C      1  0.5203650000000  0.5900400000000  0.4705120000000 1.0
C      1  0.5177030000000  0.5858670000000  0.5192870000000 1.0
C      1  0.4610650000000  0.5016130000000  0.5125190000000 1.0
C      1  0.5282000000000  0.5650660000000  0.4571340000000 1.0
C      1  0.5534470000000  0.5558000000000  0.4707260000000 1.0
C      1  0.5059950000000  0.4674260000000  0.4547050000000 1.0
C      1  0.5098550000000  0.5654000000000  0.5618280000000 1.0
C      1  0.5883880000000  0.5140140000000  0.4758420000000 1.0
C      1  0.5556110000000  0.4513490000000  0.4851840000000 1.0
C      1  0.5309130000000  0.4110200000000  0.4758540000000 1.0
C      1  0.4181490000000  0.4687860000000  0.4524380000000 1.0
C      1  0.4582850000000  0.5294180000000  0.4419950000000 1.0
C      1  0.4859730000000  0.5274830000000  0.5839810000000 1.0
C      1  0.5802480000000  0.5012450000000  0.5037290000000 1.0
C      1  0.5275970000000  0.5649860000000  0.5390710000000 1.0
C      1  0.4795600000000  0.5478300000000  0.4542370000000 1.0
C      1  0.4510200000000  0.4274350000000  0.5198530000000 1.0
C      1  0.4988340000000  0.4208080000000  0.5366800000000 1.0
C      1  0.5027250000000  0.4979300000000  0.5285220000000 1.0
C      1  0.4541290000000  0.4925470000000  0.5665750000000 1.0
C      1  0.5306430000000  0.5373960000000  0.5241050000000 1.0
C      1  0.5469490000000  0.4799270000000  0.4433020000000 1.0
C      1  0.5778610000000  0.5217850000000  0.5246300000000 1.0
C      1  0.4780970000000  0.6028380000000  0.4935220000000 1.0
C      1  0.4702780000000  0.5745690000000  0.5345630000000 1.0
END
