TITL C-950528-5794-578 3.84489672971805e-07 125000 -240.947955450433 0 0 41 (C1) n - 1
REM
REM in /home/bkarasulu/work/CARBON/AIRSS/Generating-Clusters/EDIP-Nigel-Params/with-SteepDescent/Only-C1/SD-CG/HFTN-CG
REM
REM
REM
REM
REM
REM ./C.cell (11c1c37f851c82e70ff6c80c92926a4b)
REM
REM compiler GCC version 9.2.1 20190827 (Red Hat 9.2.1-1)
REM options -cpp -mtune=generic -march=x86-64 -g -O0 -fpre-include=/usr/include/finclude/math-vector-fortran.h
REM seed -509852368 1688778947 -325950607 126719785 -1757669751 -1484020014 -76228450 1449251066 378568305 -1800724295 -620375227 -180425493 -1295747841 -586382321 1411868703 -178553761 -568799546 1872764814 1999065036 1641688060 980242954 360585388 1800334711 1247234217 -1773878339 1722523643 875404799 -468738715 643751432 -758144927 916045068 -979840801 -913036268
REM
CELL 1.54180   50.00000   50.00000   50.00000   90.00000   90.00000   90.00000
LATT -1
SFAC C  
C      1  0.4510710000000  0.5073680000000  0.4732460000000 1.0
C      1  0.4924470000000  0.4648180000000  0.4845580000000 1.0
C      1  0.5432070000000  0.4577310000000  0.4480680000000 1.0
C      1  0.5020420000000  0.4889070000000  0.5649600000000 1.0
C      1  0.5295370000000  0.4980920000000  0.5130920000000 1.0
C      1  0.5320890000000  0.5209110000000  0.4495340000000 1.0
C      1  0.5604370000000  0.4895270000000  0.5479330000000 1.0
C      1  0.4677640000000  0.5230040000000  0.5555510000000 1.0
C      1  0.4987120000000  0.4511760000000  0.5296010000000 1.0
C      1  0.4332020000000  0.4971340000000  0.4938870000000 1.0
C      1  0.5539340000000  0.5276610000000  0.4650120000000 1.0
C      1  0.5201710000000  0.4398220000000  0.5122410000000 1.0
C      1  0.5029130000000  0.5130140000000  0.5238720000000 1.0
C      1  0.5102010000000  0.5421160000000  0.4851100000000 1.0
C      1  0.4644540000000  0.4897140000000  0.4521520000000 1.0
C      1  0.5238600000000  0.4752510000000  0.4415300000000 1.0
C      1  0.4452170000000  0.4988690000000  0.5196930000000 1.0
C      1  0.4974870000000  0.5415340000000  0.5118420000000 1.0
C      1  0.4731060000000  0.4883470000000  0.5210460000000 1.0
C      1  0.5401690000000  0.4518050000000  0.4747620000000 1.0
C      1  0.4758460000000  0.5105770000000  0.4897210000000 1.0
C      1  0.5138000000000  0.4719430000000  0.5450270000000 1.0
C      1  0.4505610000000  0.5535230000000  0.4901990000000 1.0
C      1  0.5157810000000  0.5270650000000  0.5661320000000 1.0
C      1  0.5421300000000  0.4611740000000  0.5127330000000 1.0
C      1  0.4682860000000  0.5513030000000  0.4563040000000 1.0
C      1  0.5368040000000  0.5303680000000  0.4866770000000 1.0
C      1  0.5492990000000  0.5109130000000  0.5335920000000 1.0
C      1  0.4519380000000  0.5254790000000  0.5321060000000 1.0
C      1  0.4785260000000  0.4618310000000  0.5109780000000 1.0
C      1  0.5139840000000  0.4435930000000  0.4836780000000 1.0
C      1  0.4869850000000  0.5057910000000  0.4424270000000 1.0
C      1  0.5050390000000  0.4932450000000  0.4845940000000 1.0
C      1  0.4735780000000  0.4650160000000  0.4624750000000 1.0
C      1  0.4447830000000  0.5366850000000  0.4664000000000 1.0
C      1  0.4932740000000  0.5382360000000  0.4607220000000 1.0
C      1  0.4952410000000  0.5134750000000  0.5532160000000 1.0
C      1  0.5132050000000  0.4984800000000  0.4543110000000 1.0
C      1  0.5384240000000  0.5299980000000  0.5508980000000 1.0
C      1  0.5431790000000  0.4680130000000  0.5420810000000 1.0
C      1  0.4673150000000  0.5364920000000  0.5080390000000 1.0
END
