TITL C-951338-5626-665 -1.69430697971802e-06 125000 -577.889105915607 0 0 95 (C1) n - 1
REM
REM in /home/bkarasulu/work/CARBON/AIRSS/Generating-Clusters/EDIP-Nigel-Params/with-SteepDescent/Only-C1/SD-CG/HFTN-CG
REM
REM
REM
REM
REM
REM ./C.cell (11c1c37f851c82e70ff6c80c92926a4b)
REM
REM compiler GCC version 9.2.1 20190827 (Red Hat 9.2.1-1)
REM options -cpp -mtune=generic -march=x86-64 -g -O0 -fpre-include=/usr/include/finclude/math-vector-fortran.h
REM seed -1212890038 -1292427692 -950355361 2082127043 -207824663 795482951 -1992198773 -1638827339 2024268560 -440851482 -960229428 -85534842 649119400 258624124 -1307948574 -1711770545 -1288212865 865277005 -227823676 1884050001 -706026990 375575847 1766302700 493044852 -1575281136 1330567361 -1188082017 -446505743 -561569370 -956869252 994883329 171041358 211728833
REM
CELL 1.54180   50.00000   50.00000   50.00000   90.00000   90.00000   90.00000
LATT -1
SFAC C  
C      1  0.4424820000000  0.5538680000000  0.4914220000000 1.0
C      1  0.5487490000000  0.5066560000000  0.5655380000000 1.0
C      1  0.4566420000000  0.4416270000000  0.5483810000000 1.0
C      1  0.5501230000000  0.5175330000000  0.4433950000000 1.0
C      1  0.5770960000000  0.5188150000000  0.5270370000000 1.0
C      1  0.5162740000000  0.4247270000000  0.4655900000000 1.0
C      1  0.5128380000000  0.5223180000000  0.4167370000000 1.0
C      1  0.4546900000000  0.5260910000000  0.4939390000000 1.0
C      1  0.4250550000000  0.5046480000000  0.5311610000000 1.0
C      1  0.5244230000000  0.5754320000000  0.5317800000000 1.0
C      1  0.4420380000000  0.4750460000000  0.4411030000000 1.0
C      1  0.5109470000000  0.5813670000000  0.5555640000000 1.0
C      1  0.4948550000000  0.5610090000000  0.5671870000000 1.0
C      1  0.5540070000000  0.5313670000000  0.5168720000000 1.0
C      1  0.5622860000000  0.4766920000000  0.4882010000000 1.0
C      1  0.5615500000000  0.4590350000000  0.4479740000000 1.0
C      1  0.5049240000000  0.4668380000000  0.4745310000000 1.0
C      1  0.5332970000000  0.5445700000000  0.5339700000000 1.0
C      1  0.4987980000000  0.5197410000000  0.5945780000000 1.0
C      1  0.5129500000000  0.5416050000000  0.5808260000000 1.0
C      1  0.4938320000000  0.4052920000000  0.5069410000000 1.0
C      1  0.4643790000000  0.4942420000000  0.6057380000000 1.0
C      1  0.5335830000000  0.4317410000000  0.5321780000000 1.0
C      1  0.5862010000000  0.4772370000000  0.5078920000000 1.0
C      1  0.5765940000000  0.5071640000000  0.4401240000000 1.0
C      1  0.4893530000000  0.4132430000000  0.4769790000000 1.0
C      1  0.5122860000000  0.5825360000000  0.4814980000000 1.0
C      1  0.5912100000000  0.5063260000000  0.5049290000000 1.0
C      1  0.4523390000000  0.5686340000000  0.5164030000000 1.0
C      1  0.4344190000000  0.5285610000000  0.5430400000000 1.0
C      1  0.4762720000000  0.4539480000000  0.5798870000000 1.0
C      1  0.4844690000000  0.5280140000000  0.4986400000000 1.0
C      1  0.4623660000000  0.4297960000000  0.4723480000000 1.0
C      1  0.5395880000000  0.5893560000000  0.4763610000000 1.0
C      1  0.4992510000000  0.4382810000000  0.5688570000000 1.0
C      1  0.5599610000000  0.4490810000000  0.4759960000000 1.0
C      1  0.4155130000000  0.5099720000000  0.5040970000000 1.0
C      1  0.5563800000000  0.4439050000000  0.5201370000000 1.0
C      1  0.4516210000000  0.5138020000000  0.4663730000000 1.0
C      1  0.5356070000000  0.5451110000000  0.4748530000000 1.0
C      1  0.5783840000000  0.5150370000000  0.4776680000000 1.0
C      1  0.5299750000000  0.4969490000000  0.4531840000000 1.0
C      1  0.4784590000000  0.5009530000000  0.4633330000000 1.0
C      1  0.5022940000000  0.5684770000000  0.4569640000000 1.0
C      1  0.5803480000000  0.4823900000000  0.4543830000000 1.0
C      1  0.5226200000000  0.4771220000000  0.5482080000000 1.0
C      1  0.4659470000000  0.4758630000000  0.5029110000000 1.0
C      1  0.5224430000000  0.4475270000000  0.5540940000000 1.0
C      1  0.5155670000000  0.4570060000000  0.4998740000000 1.0
C      1  0.4295290000000  0.4952710000000  0.4594090000000 1.0
C      1  0.4823200000000  0.4505150000000  0.5365530000000 1.0
C      1  0.4863450000000  0.4525550000000  0.4340530000000 1.0
C      1  0.5130730000000  0.4825440000000  0.5190580000000 1.0
C      1  0.4190230000000  0.4610670000000  0.4915740000000 1.0
C      1  0.4634740000000  0.5246970000000  0.4247450000000 1.0
C      1  0.4867520000000  0.4776210000000  0.4176980000000 1.0
C      1  0.5506010000000  0.5232250000000  0.4888730000000 1.0
C      1  0.5340740000000  0.4890690000000  0.5833140000000 1.0
C      1  0.5062130000000  0.4938400000000  0.5855720000000 1.0
C      1  0.5479230000000  0.5675480000000  0.4602500000000 1.0
C      1  0.4753450000000  0.5851350000000  0.5145380000000 1.0
C      1  0.5337490000000  0.5640910000000  0.4345740000000 1.0
C      1  0.4972690000000  0.5441790000000  0.5199180000000 1.0
C      1  0.5203710000000  0.4088280000000  0.5196310000000 1.0
C      1  0.4415120000000  0.4601100000000  0.5108210000000 1.0
C      1  0.4134020000000  0.4880450000000  0.4831650000000 1.0
C      1  0.4845300000000  0.4774780000000  0.5953380000000 1.0
C      1  0.5340070000000  0.5326130000000  0.5615510000000 1.0
C      1  0.5695470000000  0.4679990000000  0.5306950000000 1.0
C      1  0.5128780000000  0.4923230000000  0.4180200000000 1.0
C      1  0.4172050000000  0.5380240000000  0.4955050000000 1.0
C      1  0.4998950000000  0.5152710000000  0.4773410000000 1.0
C      1  0.4447080000000  0.4327770000000  0.4957490000000 1.0
C      1  0.5380480000000  0.5364910000000  0.4236470000000 1.0
C      1  0.4641200000000  0.4557040000000  0.4547290000000 1.0
C      1  0.4522470000000  0.5508370000000  0.5408170000000 1.0
C      1  0.4615690000000  0.4927150000000  0.4232960000000 1.0
C      1  0.5109840000000  0.5363280000000  0.4584440000000 1.0
C      1  0.4839870000000  0.4792800000000  0.5263650000000 1.0
C      1  0.4741300000000  0.5719490000000  0.4542390000000 1.0
C      1  0.4898760000000  0.5362940000000  0.4258420000000 1.0
C      1  0.5112790000000  0.4508540000000  0.4510980000000 1.0
C      1  0.5362450000000  0.4345810000000  0.4882160000000 1.0
C      1  0.5019300000000  0.5746300000000  0.5096880000000 1.0
C      1  0.5348110000000  0.4965790000000  0.4861510000000 1.0
C      1  0.4947000000000  0.4373050000000  0.5121290000000 1.0
C      1  0.4455830000000  0.5349380000000  0.4468090000000 1.0
C      1  0.4774690000000  0.4746170000000  0.4748030000000 1.0
C      1  0.4440230000000  0.4639420000000  0.5603660000000 1.0
C      1  0.4722920000000  0.5206360000000  0.6045640000000 1.0
C      1  0.5340620000000  0.4682360000000  0.4398990000000 1.0
C      1  0.4496540000000  0.5608660000000  0.4613030000000 1.0
C      1  0.4316090000000  0.4759230000000  0.5367160000000 1.0
C      1  0.4807050000000  0.5439190000000  0.5460430000000 1.0
C      1  0.5516470000000  0.4919990000000  0.5372160000000 1.0
END
