TITL C-951348-1603-285 -2.78941038944327e-07 125000 -731.541827857867 0 0 118 (C1) n - 1
REM
REM in /home/bkarasulu/work/CARBON/AIRSS/Generating-Clusters/EDIP-Nigel-Params/with-SteepDescent/Only-C1/SD-CG/HFTN-CG
REM
REM
REM
REM
REM
REM ./C.cell (11c1c37f851c82e70ff6c80c92926a4b)
REM
REM compiler GCC version 9.2.1 20190827 (Red Hat 9.2.1-1)
REM options -cpp -mtune=generic -march=x86-64 -g -O0 -fpre-include=/usr/include/finclude/math-vector-fortran.h
REM seed -6386662 7656959 530189 790481996 -1631201981 -1166057647 -760746894 -1346123605 206353911 -1955908439 -1095562640 758016320 -665965591 1765136216 2041289103 -586611149 -889875412 1205411923 285228883 -1315034207 -550764560 840371403 -183201872 1638095214 1953092379 -1542080002 -2012824447 1358622260 57953441 -1556950091 200278600 -916345416 421644925
REM
CELL 1.54180   50.00000   50.00000   50.00000   90.00000   90.00000   90.00000
LATT -1
SFAC C  
C      1  0.4981370000000  0.5476790000000  0.5769550000000 1.0
C      1  0.5899960000000  0.5468540000000  0.4995170000000 1.0
C      1  0.4903400000000  0.5404860000000  0.4141270000000 1.0
C      1  0.5407610000000  0.5550130000000  0.4462780000000 1.0
C      1  0.5200270000000  0.4006920000000  0.5118260000000 1.0
C      1  0.5479900000000  0.4486350000000  0.5569030000000 1.0
C      1  0.5572080000000  0.5317770000000  0.4341690000000 1.0
C      1  0.5423410000000  0.4568740000000  0.4357980000000 1.0
C      1  0.4740110000000  0.5853660000000  0.5547270000000 1.0
C      1  0.5830270000000  0.4670130000000  0.5266170000000 1.0
C      1  0.5284780000000  0.5028830000000  0.4005020000000 1.0
C      1  0.5229120000000  0.5411480000000  0.4681330000000 1.0
C      1  0.5375430000000  0.5178250000000  0.5770390000000 1.0
C      1  0.4643020000000  0.4175670000000  0.5283020000000 1.0
C      1  0.4645920000000  0.5903170000000  0.4790310000000 1.0
C      1  0.5336380000000  0.5420070000000  0.5016390000000 1.0
C      1  0.4561730000000  0.5531500000000  0.4443190000000 1.0
C      1  0.4413930000000  0.5282410000000  0.4360710000000 1.0
C      1  0.4675250000000  0.4390580000000  0.5741570000000 1.0
C      1  0.5143910000000  0.5945120000000  0.4861480000000 1.0
C      1  0.5788320000000  0.5510720000000  0.4741170000000 1.0
C      1  0.4193160000000  0.5697300000000  0.5089200000000 1.0
C      1  0.4310720000000  0.4331010000000  0.4633990000000 1.0
C      1  0.4826360000000  0.4293440000000  0.5499230000000 1.0
C      1  0.4310420000000  0.4770100000000  0.4855950000000 1.0
C      1  0.4651660000000  0.5124450000000  0.5789790000000 1.0
C      1  0.5481590000000  0.4397490000000  0.4592080000000 1.0
C      1  0.4774280000000  0.4594640000000  0.5265260000000 1.0
C      1  0.5688060000000  0.4900940000000  0.5384380000000 1.0
C      1  0.5569010000000  0.5698460000000  0.4670800000000 1.0
C      1  0.5533140000000  0.5840940000000  0.5148450000000 1.0
C      1  0.4969920000000  0.5784680000000  0.4417150000000 1.0
C      1  0.4876900000000  0.4747000000000  0.4490310000000 1.0
C      1  0.4274220000000  0.4536790000000  0.5234960000000 1.0
C      1  0.4594410000000  0.5822190000000  0.5309590000000 1.0
C      1  0.5604050000000  0.4984820000000  0.5805120000000 1.0
C      1  0.4933340000000  0.5502990000000  0.4681110000000 1.0
C      1  0.4384330000000  0.5385130000000  0.5440550000000 1.0
C      1  0.5294820000000  0.4255000000000  0.5196340000000 1.0
C      1  0.5879450000000  0.5143590000000  0.5382140000000 1.0
C      1  0.4513060000000  0.4128810000000  0.4631720000000 1.0
C      1  0.4939650000000  0.5055200000000  0.4509720000000 1.0
C      1  0.5000750000000  0.5269970000000  0.5388050000000 1.0
C      1  0.5215310000000  0.4473200000000  0.4182220000000 1.0
C      1  0.5846210000000  0.4690620000000  0.4974300000000 1.0
C      1  0.4920500000000  0.5938780000000  0.4653820000000 1.0
C      1  0.4451870000000  0.4859020000000  0.5588190000000 1.0
C      1  0.5217860000000  0.5125230000000  0.4605470000000 1.0
C      1  0.4789680000000  0.5616470000000  0.4280160000000 1.0
C      1  0.4457770000000  0.5703130000000  0.4666960000000 1.0
C      1  0.5128390000000  0.5046410000000  0.5867480000000 1.0
C      1  0.4429620000000  0.4313420000000  0.5145740000000 1.0
C      1  0.4187840000000  0.4973400000000  0.5588720000000 1.0
C      1  0.4854430000000  0.5027240000000  0.5307050000000 1.0
C      1  0.4241500000000  0.5591950000000  0.4836060000000 1.0
C      1  0.5536250000000  0.4711530000000  0.5739700000000 1.0
C      1  0.4495530000000  0.4608840000000  0.5726770000000 1.0
C      1  0.5816700000000  0.5197030000000  0.5072640000000 1.0
C      1  0.4142440000000  0.5128010000000  0.5125550000000 1.0
C      1  0.4248710000000  0.5165140000000  0.4571600000000 1.0
C      1  0.4905220000000  0.5232100000000  0.5884040000000 1.0
C      1  0.5248510000000  0.4207760000000  0.4547610000000 1.0
C      1  0.5285320000000  0.5195770000000  0.5477170000000 1.0
C      1  0.5163470000000  0.4209590000000  0.4275400000000 1.0
C      1  0.4529080000000  0.3980990000000  0.4867090000000 1.0
C      1  0.5023800000000  0.4932060000000  0.4050610000000 1.0
C      1  0.5001070000000  0.4590850000000  0.4765180000000 1.0
C      1  0.4987220000000  0.4669690000000  0.4197800000000 1.0
C      1  0.5418970000000  0.5003790000000  0.5273260000000 1.0
C      1  0.4166040000000  0.5314060000000  0.4810480000000 1.0
C      1  0.5057430000000  0.5414920000000  0.5138150000000 1.0
C      1  0.4300330000000  0.4878530000000  0.4578490000000 1.0
C      1  0.5002140000000  0.4262480000000  0.4712210000000 1.0
C      1  0.4520070000000  0.4556590000000  0.4865750000000 1.0
C      1  0.5955620000000  0.4978800000000  0.4907860000000 1.0
C      1  0.5616100000000  0.4490880000000  0.4858880000000 1.0
C      1  0.5008710000000  0.5841250000000  0.5470820000000 1.0
C      1  0.4834380000000  0.4966000000000  0.5029530000000 1.0
C      1  0.4362660000000  0.5649750000000  0.5307140000000 1.0
C      1  0.4768000000000  0.4208710000000  0.4549930000000 1.0
C      1  0.4099150000000  0.4359340000000  0.4817260000000 1.0
C      1  0.4477720000000  0.4760110000000  0.5297390000000 1.0
C      1  0.5447020000000  0.5063260000000  0.4232530000000 1.0
C      1  0.5059650000000  0.4650990000000  0.5402570000000 1.0
C      1  0.5561930000000  0.4321710000000  0.5102210000000 1.0
C      1  0.5573910000000  0.4816940000000  0.4323700000000 1.0
C      1  0.5683470000000  0.4836250000000  0.4592060000000 1.0
C      1  0.4836800000000  0.4391620000000  0.5969750000000 1.0
C      1  0.5402180000000  0.4956310000000  0.4778130000000 1.0
C      1  0.5245140000000  0.4726450000000  0.4903170000000 1.0
C      1  0.4755700000000  0.5804620000000  0.5058750000000 1.0
C      1  0.4642780000000  0.5162530000000  0.4937770000000 1.0
C      1  0.5891140000000  0.5033770000000  0.4623050000000 1.0
C      1  0.4391520000000  0.4975850000000  0.5059110000000 1.0
C      1  0.5840640000000  0.5103300000000  0.5677370000000 1.0
C      1  0.5023320000000  0.4582370000000  0.5935020000000 1.0
C      1  0.5672390000000  0.4441150000000  0.5346070000000 1.0
C      1  0.4158930000000  0.5197590000000  0.5412700000000 1.0
C      1  0.5204300000000  0.4379350000000  0.5457230000000 1.0
C      1  0.4530240000000  0.4820900000000  0.4402430000000 1.0
C      1  0.4727570000000  0.3992680000000  0.5067020000000 1.0
C      1  0.4786810000000  0.4670990000000  0.4965260000000 1.0
C      1  0.5419320000000  0.5836790000000  0.4886400000000 1.0
C      1  0.5153670000000  0.5636480000000  0.5617720000000 1.0
C      1  0.4740440000000  0.5246050000000  0.4649670000000 1.0
C      1  0.4986530000000  0.4060220000000  0.4948500000000 1.0
C      1  0.4097260000000  0.4588010000000  0.4986870000000 1.0
C      1  0.5066210000000  0.4786070000000  0.5753540000000 1.0
C      1  0.4831080000000  0.5506730000000  0.4980390000000 1.0
C      1  0.4640490000000  0.5254200000000  0.5531510000000 1.0
C      1  0.5484780000000  0.5576210000000  0.5236230000000 1.0
C      1  0.5495490000000  0.5149550000000  0.5022110000000 1.0
C      1  0.4865290000000  0.5127960000000  0.4212540000000 1.0
C      1  0.5742760000000  0.5279860000000  0.4579360000000 1.0
C      1  0.5007640000000  0.5957350000000  0.5116260000000 1.0
C      1  0.5216770000000  0.4802770000000  0.5188950000000 1.0
C      1  0.4569540000000  0.5060950000000  0.4231210000000 1.0
C      1  0.5396220000000  0.5482090000000  0.5518700000000 1.0
END
