TITL C-950523-3027-88 6.91654463401827e-07 125000 -366.215587163742 0 0 60 (C1) n - 1
REM
REM in /home/bkarasulu/work/CARBON/AIRSS/Generating-Clusters/EDIP-Nigel-Params/with-SteepDescent/Only-C1/SD-CG/HFTN-CG
REM
REM
REM
REM
REM
REM ./C.cell (11c1c37f851c82e70ff6c80c92926a4b)
REM
REM compiler GCC version 9.2.1 20190827 (Red Hat 9.2.1-1)
REM options -cpp -mtune=generic -march=x86-64 -g -O0 -fpre-include=/usr/include/finclude/math-vector-fortran.h
REM seed -1483706226 787962265 78415266 107791011 -666988863 -870581286 35104507 -1710980504 -1641214523 -912479817 -1151707341 -825371244 70252952 1598935831 -1227776971 -1115725698 -1176664162 -804173413 495421133 447475438 155128101 -1781197225 1571130308 151343111 1046869036 1078073977 -1606769557 -478117695 1839646656 1589609782 860577790 620824224 358205871
REM
CELL 1.54180   50.00000   50.00000   50.00000   90.00000   90.00000   90.00000
LATT -1
SFAC C  
C      1  0.5030710000000  0.5395330000000  0.5666110000000 1.0
C      1  0.5440950000000  0.5353530000000  0.5101620000000 1.0
C      1  0.5399780000000  0.5103200000000  0.5535640000000 1.0
C      1  0.5710050000000  0.5009740000000  0.4795390000000 1.0
C      1  0.4467130000000  0.4449340000000  0.5069760000000 1.0
C      1  0.5003130000000  0.4650180000000  0.4372880000000 1.0
C      1  0.4417520000000  0.5374380000000  0.5014700000000 1.0
C      1  0.4769270000000  0.4383500000000  0.4695560000000 1.0
C      1  0.4253410000000  0.4801910000000  0.4897670000000 1.0
C      1  0.4775130000000  0.4761130000000  0.5113740000000 1.0
C      1  0.4965270000000  0.4605850000000  0.5629540000000 1.0
C      1  0.5638580000000  0.5285560000000  0.4884070000000 1.0
C      1  0.5251400000000  0.4289680000000  0.5064960000000 1.0
C      1  0.4746290000000  0.5454510000000  0.5541800000000 1.0
C      1  0.4519090000000  0.4690830000000  0.5237820000000 1.0
C      1  0.5310340000000  0.5431320000000  0.4539800000000 1.0
C      1  0.4833550000000  0.5573830000000  0.4668400000000 1.0
C      1  0.5644210000000  0.4973440000000  0.4522740000000 1.0
C      1  0.5686710000000  0.4784800000000  0.4966470000000 1.0
C      1  0.4738180000000  0.4344850000000  0.4973140000000 1.0
C      1  0.4379930000000  0.5198560000000  0.5255880000000 1.0
C      1  0.4302930000000  0.4899760000000  0.5183740000000 1.0
C      1  0.5096900000000  0.5435380000000  0.4754490000000 1.0
C      1  0.5537790000000  0.4869610000000  0.5429940000000 1.0
C      1  0.4757830000000  0.5219390000000  0.4357180000000 1.0
C      1  0.4984110000000  0.5080560000000  0.4453340000000 1.0
C      1  0.5377120000000  0.4426750000000  0.4813100000000 1.0
C      1  0.4854370000000  0.5178050000000  0.5211020000000 1.0
C      1  0.4931340000000  0.4889810000000  0.5581000000000 1.0
C      1  0.5570890000000  0.5424640000000  0.4646770000000 1.0
C      1  0.5226990000000  0.5533750000000  0.5014650000000 1.0
C      1  0.4618960000000  0.5603300000000  0.5057790000000 1.0
C      1  0.4979260000000  0.4375620000000  0.5155490000000 1.0
C      1  0.4969700000000  0.4913820000000  0.5283110000000 1.0
C      1  0.4274130000000  0.4516970000000  0.4870460000000 1.0
C      1  0.5252030000000  0.4753540000000  0.4319850000000 1.0
C      1  0.5029710000000  0.5122780000000  0.4756570000000 1.0
C      1  0.4657430000000  0.4984210000000  0.5622150000000 1.0
C      1  0.4950200000000  0.4416520000000  0.5434090000000 1.0
C      1  0.4704490000000  0.5754820000000  0.4837130000000 1.0
C      1  0.4780240000000  0.5084780000000  0.4920150000000 1.0
C      1  0.4789610000000  0.5638720000000  0.5305610000000 1.0
C      1  0.5240680000000  0.5203090000000  0.4355370000000 1.0
C      1  0.4644590000000  0.5372590000000  0.4562150000000 1.0
C      1  0.5491120000000  0.4402280000000  0.5237390000000 1.0
C      1  0.5430150000000  0.4974730000000  0.4336970000000 1.0
C      1  0.5242890000000  0.4667320000000  0.4747580000000 1.0
C      1  0.5401490000000  0.4623740000000  0.5399510000000 1.0
C      1  0.5453980000000  0.5363830000000  0.5402520000000 1.0
C      1  0.5231800000000  0.4919440000000  0.4874650000000 1.0
C      1  0.5133100000000  0.5102010000000  0.5680300000000 1.0
C      1  0.4638760000000  0.5202250000000  0.5421310000000 1.0
C      1  0.5628620000000  0.4505240000000  0.4976820000000 1.0
C      1  0.5234220000000  0.5550320000000  0.5499210000000 1.0
C      1  0.4762610000000  0.4586380000000  0.4504130000000 1.0
C      1  0.5246540000000  0.4895370000000  0.5177090000000 1.0
C      1  0.5091800000000  0.5657390000000  0.5256740000000 1.0
C      1  0.4560960000000  0.4780230000000  0.4531050000000 1.0
C      1  0.4403580000000  0.4951180000000  0.4692540000000 1.0
C      1  0.4536410000000  0.5204360000000  0.4789360000000 1.0
END
