TITL C-950522-5749-376 -1.36729773656296e-06 125000 -356.273372237235 0 0 59 (C1) n - 1
REM
REM in /home/bkarasulu/work/CARBON/AIRSS/Generating-Clusters/EDIP-Nigel-Params/with-SteepDescent/Only-C1/SD-CG/HFTN-CG
REM
REM
REM
REM
REM
REM ./C.cell (11c1c37f851c82e70ff6c80c92926a4b)
REM
REM compiler GCC version 9.2.1 20190827 (Red Hat 9.2.1-1)
REM options -cpp -mtune=generic -march=x86-64 -g -O0 -fpre-include=/usr/include/finclude/math-vector-fortran.h
REM seed -1618940465 1121367338 74876518 306547726 1322379673 1123661415 -37823140 -1508210121 -1210971636 -1169660957 -297283127 1468970607 1794002171 -1849117708 922468601 1137452800 318450564 1033713983 82997021 -2045779885 -1946985137 -1772408809 209212944 817863886 -2050432589 1068892198 168114294 117055061 -377576414 -552095870 403775163 -1871409918 -1316585274
REM
CELL 1.54180   50.00000   50.00000   50.00000   90.00000   90.00000   90.00000
LATT -1
SFAC C  
C      1  0.5197210000000  0.5221740000000  0.4464470000000 1.0
C      1  0.5028640000000  0.4987980000000  0.5778420000000 1.0
C      1  0.4707950000000  0.4785650000000  0.5471260000000 1.0
C      1  0.5458680000000  0.5286770000000  0.4551330000000 1.0
C      1  0.4862160000000  0.4697950000000  0.4336190000000 1.0
C      1  0.4881630000000  0.5186050000000  0.4900550000000 1.0
C      1  0.4378070000000  0.4775210000000  0.5092870000000 1.0
C      1  0.4807940000000  0.4973810000000  0.4678090000000 1.0
C      1  0.4850110000000  0.4968660000000  0.4259520000000 1.0
C      1  0.5207680000000  0.4209220000000  0.5075360000000 1.0
C      1  0.5771220000000  0.4980830000000  0.5398420000000 1.0
C      1  0.5136280000000  0.5695950000000  0.5338500000000 1.0
C      1  0.4673700000000  0.5717930000000  0.5093320000000 1.0
C      1  0.4632230000000  0.4621450000000  0.4475890000000 1.0
C      1  0.5730350000000  0.4793540000000  0.4935690000000 1.0
C      1  0.4847580000000  0.4376760000000  0.4813070000000 1.0
C      1  0.4944550000000  0.4337690000000  0.5087190000000 1.0
C      1  0.4646610000000  0.4870520000000  0.5193330000000 1.0
C      1  0.4456710000000  0.5060710000000  0.4535310000000 1.0
C      1  0.4292330000000  0.5437790000000  0.5131760000000 1.0
C      1  0.4634580000000  0.5610900000000  0.4817310000000 1.0
C      1  0.5351840000000  0.4692640000000  0.4466640000000 1.0
C      1  0.5136420000000  0.4892800000000  0.5114050000000 1.0
C      1  0.4413130000000  0.4580260000000  0.4899060000000 1.0
C      1  0.4423830000000  0.5154210000000  0.4802910000000 1.0
C      1  0.4968170000000  0.5778520000000  0.5106550000000 1.0
C      1  0.5301340000000  0.5298540000000  0.5524080000000 1.0
C      1  0.4247620000000  0.5017450000000  0.4992680000000 1.0
C      1  0.5266650000000  0.4970880000000  0.4858210000000 1.0
C      1  0.5372920000000  0.5604520000000  0.5175260000000 1.0
C      1  0.4703450000000  0.5173130000000  0.5146740000000 1.0
C      1  0.5052290000000  0.5456090000000  0.5502790000000 1.0
C      1  0.5120630000000  0.4962590000000  0.4597240000000 1.0
C      1  0.5101480000000  0.4555600000000  0.4429810000000 1.0
C      1  0.5291280000000  0.4827380000000  0.5379750000000 1.0
C      1  0.5458620000000  0.4360200000000  0.5111080000000 1.0
C      1  0.4799500000000  0.5282150000000  0.5444440000000 1.0
C      1  0.4906410000000  0.5460230000000  0.4769990000000 1.0
C      1  0.5365700000000  0.4364250000000  0.5394390000000 1.0
C      1  0.5720890000000  0.5097270000000  0.4940980000000 1.0
C      1  0.5245190000000  0.5025150000000  0.5601210000000 1.0
C      1  0.4166180000000  0.5194040000000  0.5197540000000 1.0
C      1  0.5040060000000  0.4352530000000  0.4612370000000 1.0
C      1  0.4666550000000  0.5148590000000  0.4368790000000 1.0
C      1  0.5117220000000  0.5629860000000  0.4901370000000 1.0
C      1  0.5711750000000  0.5197830000000  0.5225530000000 1.0
C      1  0.4995160000000  0.5418930000000  0.4494570000000 1.0
C      1  0.4893290000000  0.4720500000000  0.5078470000000 1.0
C      1  0.5544080000000  0.4596620000000  0.4659230000000 1.0
C      1  0.4899890000000  0.4541230000000  0.5415640000000 1.0
C      1  0.5458780000000  0.5347790000000  0.5283300000000 1.0
C      1  0.5187340000000  0.4571510000000  0.5487560000000 1.0
C      1  0.4548800000000  0.5508390000000  0.5266300000000 1.0
C      1  0.4802200000000  0.5026770000000  0.5617100000000 1.0
C      1  0.5577020000000  0.4795240000000  0.5344480000000 1.0
C      1  0.5464220000000  0.5184560000000  0.4817110000000 1.0
C      1  0.4387520000000  0.5438740000000  0.4848720000000 1.0
C      1  0.4645620000000  0.4569540000000  0.4749060000000 1.0
C      1  0.5500790000000  0.4606390000000  0.4947150000000 1.0
END
