TITL C-951335-1172-726 -1.90082075067501e-07 125000 -529.772655568975 0 0 86 (C1) n - 1
REM
REM in /home/bkarasulu/work/CARBON/AIRSS/Generating-Clusters/EDIP-Nigel-Params/with-SteepDescent/Only-C1/SD-CG/HFTN-CG
REM
REM
REM
REM
REM
REM ./C.cell (11c1c37f851c82e70ff6c80c92926a4b)
REM
REM compiler GCC version 9.2.1 20190827 (Red Hat 9.2.1-1)
REM options -cpp -mtune=generic -march=x86-64 -g -O0 -fpre-include=/usr/include/finclude/math-vector-fortran.h
REM seed -704351242 1179496373 -791162942 -1312822311 -1571493518 -1141993283 1640218020 -597988111 656599394 147833923 1073414067 1270834912 756490306 2090781653 -1225350961 -894288557 -1278403916 1208892212 780226328 -1929614888 -560245857 2129597460 -838144462 588863649 1356091596 -349852041 1159578734 389709148 -1479752470 -13980444 -68420112 -1711679025 594782624
REM
CELL 1.54180   50.00000   50.00000   50.00000   90.00000   90.00000   90.00000
LATT -1
SFAC C  
C      1  0.5475520000000  0.5462490000000  0.4907010000000 1.0
C      1  0.4945240000000  0.4659160000000  0.5119040000000 1.0
C      1  0.4658720000000  0.5689820000000  0.4843320000000 1.0
C      1  0.4928480000000  0.5267380000000  0.5236550000000 1.0
C      1  0.5248410000000  0.4805760000000  0.5864120000000 1.0
C      1  0.5258680000000  0.5423730000000  0.4234490000000 1.0
C      1  0.4292780000000  0.4812020000000  0.4801050000000 1.0
C      1  0.5098090000000  0.4228340000000  0.4807390000000 1.0
C      1  0.4951070000000  0.4864310000000  0.4642420000000 1.0
C      1  0.4693950000000  0.5261640000000  0.4225630000000 1.0
C      1  0.4931170000000  0.5097260000000  0.5682830000000 1.0
C      1  0.5756830000000  0.5176020000000  0.4694580000000 1.0
C      1  0.4762850000000  0.4738230000000  0.4880420000000 1.0
C      1  0.5062720000000  0.4450850000000  0.5543150000000 1.0
C      1  0.4816290000000  0.5612990000000  0.4609680000000 1.0
C      1  0.5835830000000  0.5196310000000  0.4995380000000 1.0
C      1  0.5275530000000  0.4985750000000  0.4525300000000 1.0
C      1  0.5370210000000  0.5433390000000  0.5567740000000 1.0
C      1  0.5221510000000  0.5685660000000  0.5315030000000 1.0
C      1  0.4417140000000  0.5067630000000  0.5532240000000 1.0
C      1  0.4600430000000  0.5106690000000  0.4909930000000 1.0
C      1  0.4971580000000  0.5188920000000  0.4164810000000 1.0
C      1  0.5708500000000  0.4626560000000  0.4316050000000 1.0
C      1  0.4624770000000  0.5520870000000  0.4389970000000 1.0
C      1  0.5695450000000  0.4690620000000  0.4592840000000 1.0
C      1  0.5703560000000  0.5423250000000  0.5163160000000 1.0
C      1  0.4367490000000  0.4779400000000  0.5080960000000 1.0
C      1  0.5271630000000  0.4892570000000  0.5382680000000 1.0
C      1  0.5704660000000  0.4957780000000  0.5113370000000 1.0
C      1  0.4563350000000  0.5077270000000  0.4426820000000 1.0
C      1  0.5148670000000  0.4224360000000  0.5081470000000 1.0
C      1  0.5327630000000  0.5206870000000  0.4992620000000 1.0
C      1  0.5348250000000  0.5067960000000  0.5883410000000 1.0
C      1  0.4640160000000  0.4662850000000  0.5522830000000 1.0
C      1  0.4290990000000  0.5195780000000  0.4500250000000 1.0
C      1  0.5289540000000  0.4728980000000  0.5126060000000 1.0
C      1  0.4502080000000  0.4420890000000  0.5411210000000 1.0
C      1  0.5526650000000  0.5461770000000  0.4351390000000 1.0
C      1  0.5593360000000  0.5002740000000  0.5389120000000 1.0
C      1  0.5552590000000  0.4937620000000  0.4673110000000 1.0
C      1  0.5192850000000  0.5261180000000  0.5748200000000 1.0
C      1  0.4761900000000  0.5100650000000  0.4655070000000 1.0
C      1  0.5389890000000  0.4463520000000  0.4512140000000 1.0
C      1  0.4954040000000  0.4829500000000  0.5849010000000 1.0
C      1  0.4312570000000  0.5041840000000  0.5232530000000 1.0
C      1  0.5045050000000  0.5243210000000  0.4959970000000 1.0
C      1  0.5138440000000  0.4332260000000  0.4552740000000 1.0
C      1  0.5427630000000  0.4605070000000  0.4250300000000 1.0
C      1  0.4867010000000  0.4729660000000  0.4377870000000 1.0
C      1  0.4189070000000  0.5083460000000  0.4753620000000 1.0
C      1  0.4935560000000  0.4449360000000  0.4401770000000 1.0
C      1  0.4447180000000  0.5460920000000  0.4849520000000 1.0
C      1  0.5015630000000  0.5503630000000  0.5425150000000 1.0
C      1  0.4768030000000  0.5664270000000  0.5487090000000 1.0
C      1  0.4568250000000  0.5571290000000  0.5258670000000 1.0
C      1  0.4227560000000  0.5259800000000  0.5003770000000 1.0
C      1  0.5491410000000  0.4513940000000  0.5225270000000 1.0
C      1  0.4426380000000  0.4633170000000  0.4593900000000 1.0
C      1  0.4563670000000  0.4778620000000  0.4364440000000 1.0
C      1  0.4496320000000  0.4314700000000  0.4983340000000 1.0
C      1  0.4636400000000  0.5233880000000  0.5643570000000 1.0
C      1  0.4626270000000  0.5272470000000  0.5202290000000 1.0
C      1  0.4958610000000  0.4380630000000  0.5249010000000 1.0
C      1  0.4369890000000  0.5472230000000  0.4553250000000 1.0
C      1  0.5411320000000  0.4254250000000  0.5163900000000 1.0
C      1  0.5616920000000  0.5423560000000  0.4631080000000 1.0
C      1  0.5023640000000  0.4894960000000  0.4165490000000 1.0
C      1  0.5565460000000  0.4574810000000  0.5514970000000 1.0
C      1  0.5606490000000  0.5305320000000  0.5429410000000 1.0
C      1  0.5282620000000  0.4665770000000  0.5592870000000 1.0
C      1  0.4686790000000  0.4249190000000  0.5242230000000 1.0
C      1  0.4585570000000  0.5515590000000  0.5645500000000 1.0
C      1  0.4334520000000  0.4504580000000  0.5174020000000 1.0
C      1  0.4440660000000  0.4820170000000  0.5655670000000 1.0
C      1  0.5305350000000  0.4875040000000  0.4244940000000 1.0
C      1  0.5730420000000  0.4805430000000  0.5559730000000 1.0
C      1  0.5116000000000  0.5793240000000  0.5069820000000 1.0
C      1  0.4822110000000  0.5777170000000  0.5063810000000 1.0
C      1  0.5452590000000  0.4937120000000  0.4958510000000 1.0
C      1  0.4626730000000  0.4486180000000  0.4765420000000 1.0
C      1  0.4794430000000  0.4818610000000  0.5312160000000 1.0
C      1  0.5214120000000  0.5290870000000  0.4505250000000 1.0
C      1  0.5057320000000  0.5454940000000  0.4721560000000 1.0
C      1  0.4851900000000  0.4580570000000  0.5712830000000 1.0
C      1  0.5247240000000  0.5661000000000  0.4839790000000 1.0
C      1  0.4985830000000  0.5019870000000  0.5399120000000 1.0
END
