TITL C-950522-5749-317 3.4661216632105e-06 125000 -947.235415358987 0 0 151 (C1) n - 1
REM
REM in /home/bkarasulu/work/CARBON/AIRSS/Generating-Clusters/EDIP-Nigel-Params/with-SteepDescent/Only-C1/SD-CG/HFTN-CG
REM
REM
REM
REM
REM
REM ./C.cell (11c1c37f851c82e70ff6c80c92926a4b)
REM
REM compiler GCC version 9.2.1 20190827 (Red Hat 9.2.1-1)
REM options -cpp -mtune=generic -march=x86-64 -g -O0 -fpre-include=/usr/include/finclude/math-vector-fortran.h
REM seed 1195183438 -1035251607 -419086811 -282381095 915162224 1036890247 1594953658 1647937477 483239124 -1255007575 -1193422275 -1952420290 801334328 2013917570 -1347692450 -538258022 1738345831 -1077312943 275073741 28619307 -1727870393 -95525841 995874171 295862003 1108500990 1797300989 1624776654 465338045 -766938923 1924068853 -2056374909 -677942492 33416191
REM
CELL 1.54180   50.00000   50.00000   50.00000   90.00000   90.00000   90.00000
LATT -1
SFAC C  
C      1  0.5647120000000  0.5717500000000  0.4697070000000 1.0
C      1  0.4652890000000  0.3993590000000  0.5139170000000 1.0
C      1  0.5732680000000  0.4143350000000  0.4999080000000 1.0
C      1  0.4833800000000  0.4918430000000  0.5422110000000 1.0
C      1  0.4588900000000  0.5423780000000  0.4127170000000 1.0
C      1  0.4967940000000  0.4371360000000  0.5826230000000 1.0
C      1  0.4651000000000  0.5448320000000  0.4835990000000 1.0
C      1  0.5371620000000  0.5333560000000  0.5790300000000 1.0
C      1  0.5236350000000  0.4304300000000  0.4085340000000 1.0
C      1  0.5316640000000  0.5218600000000  0.4295020000000 1.0
C      1  0.5902100000000  0.4793060000000  0.4884050000000 1.0
C      1  0.4963840000000  0.5328120000000  0.5211320000000 1.0
C      1  0.5034190000000  0.5408360000000  0.5480190000000 1.0
C      1  0.4399310000000  0.5844430000000  0.4845200000000 1.0
C      1  0.4431510000000  0.4426800000000  0.5518910000000 1.0
C      1  0.4822560000000  0.5269140000000  0.4215050000000 1.0
C      1  0.4742250000000  0.3972860000000  0.4851900000000 1.0
C      1  0.4436040000000  0.4803440000000  0.5093790000000 1.0
C      1  0.4631700000000  0.4713930000000  0.4769290000000 1.0
C      1  0.4725810000000  0.5166020000000  0.5266920000000 1.0
C      1  0.5304800000000  0.5286090000000  0.4589160000000 1.0
C      1  0.4832690000000  0.6060700000000  0.4958380000000 1.0
C      1  0.4032140000000  0.5288300000000  0.5365920000000 1.0
C      1  0.4159820000000  0.5478340000000  0.4919110000000 1.0
C      1  0.4320690000000  0.4524520000000  0.5002510000000 1.0
C      1  0.5269720000000  0.4150850000000  0.4832900000000 1.0
C      1  0.4884220000000  0.5568300000000  0.5026080000000 1.0
C      1  0.5731950000000  0.4988010000000  0.5930080000000 1.0
C      1  0.4867930000000  0.3966620000000  0.5359110000000 1.0
C      1  0.5048120000000  0.6058160000000  0.4780060000000 1.0
C      1  0.4752770000000  0.4990060000000  0.4314550000000 1.0
C      1  0.4491600000000  0.5630460000000  0.4640030000000 1.0
C      1  0.4301480000000  0.4511420000000  0.4698420000000 1.0
C      1  0.5419780000000  0.5820290000000  0.4534900000000 1.0
C      1  0.5417720000000  0.4407840000000  0.4798010000000 1.0
C      1  0.4461940000000  0.5745950000000  0.5509070000000 1.0
C      1  0.4639750000000  0.4993740000000  0.4610370000000 1.0
C      1  0.5238430000000  0.4826550000000  0.5844610000000 1.0
C      1  0.4813050000000  0.4088700000000  0.5620060000000 1.0
C      1  0.5503960000000  0.4783490000000  0.5978490000000 1.0
C      1  0.4955090000000  0.5898280000000  0.5651890000000 1.0
C      1  0.4354190000000  0.5281760000000  0.4233380000000 1.0
C      1  0.4796120000000  0.5228190000000  0.4703310000000 1.0
C      1  0.5031690000000  0.4854650000000  0.5206310000000 1.0
C      1  0.4107360000000  0.5002860000000  0.4762070000000 1.0
C      1  0.5864120000000  0.4747380000000  0.5654450000000 1.0
C      1  0.4697170000000  0.5108020000000  0.5933900000000 1.0
C      1  0.5225080000000  0.5852110000000  0.5533800000000 1.0
C      1  0.5645810000000  0.4542990000000  0.4205160000000 1.0
C      1  0.5973390000000  0.5150370000000  0.5282020000000 1.0
C      1  0.3876820000000  0.4647160000000  0.5026070000000 1.0
C      1  0.5395740000000  0.5738600000000  0.4263740000000 1.0
C      1  0.4743060000000  0.5857120000000  0.5445160000000 1.0
C      1  0.5446660000000  0.4744370000000  0.4065100000000 1.0
C      1  0.4900130000000  0.5520360000000  0.5968120000000 1.0
C      1  0.5630390000000  0.4514850000000  0.5291200000000 1.0
C      1  0.4377210000000  0.4766050000000  0.4334990000000 1.0
C      1  0.4992200000000  0.4787190000000  0.4284210000000 1.0
C      1  0.4767520000000  0.4450640000000  0.4100380000000 1.0
C      1  0.4488830000000  0.5317150000000  0.5273870000000 1.0
C      1  0.4936630000000  0.5789100000000  0.5907360000000 1.0
C      1  0.5441750000000  0.4350270000000  0.4311630000000 1.0
C      1  0.5859900000000  0.4542120000000  0.4701700000000 1.0
C      1  0.4982490000000  0.4216360000000  0.4470420000000 1.0
C      1  0.5973120000000  0.5370930000000  0.5072040000000 1.0
C      1  0.5436810000000  0.4804720000000  0.4525790000000 1.0
C      1  0.4993860000000  0.5063940000000  0.6009080000000 1.0
C      1  0.5353820000000  0.4183230000000  0.5391800000000 1.0
C      1  0.5884780000000  0.5299580000000  0.4789450000000 1.0
C      1  0.4561360000000  0.4910370000000  0.5773740000000 1.0
C      1  0.4191200000000  0.4763450000000  0.4565760000000 1.0
C      1  0.5150360000000  0.5583290000000  0.4875290000000 1.0
C      1  0.5302740000000  0.5549660000000  0.5530120000000 1.0
C      1  0.5692280000000  0.4285470000000  0.4746460000000 1.0
C      1  0.4394610000000  0.4996480000000  0.4168330000000 1.0
C      1  0.5144990000000  0.5810420000000  0.4664220000000 1.0
C      1  0.3911380000000  0.4923450000000  0.4988260000000 1.0
C      1  0.5687890000000  0.4612600000000  0.5830720000000 1.0
C      1  0.4000230000000  0.5005040000000  0.5261710000000 1.0
C      1  0.4580870000000  0.6056790000000  0.4839710000000 1.0
C      1  0.4962150000000  0.5723100000000  0.4445470000000 1.0
C      1  0.5833140000000  0.4652650000000  0.4420250000000 1.0
C      1  0.5819430000000  0.5599310000000  0.5187720000000 1.0
C      1  0.4235430000000  0.4836320000000  0.5358320000000 1.0
C      1  0.5093930000000  0.5366170000000  0.4154660000000 1.0
C      1  0.5182800000000  0.5895670000000  0.5247090000000 1.0
C      1  0.4414010000000  0.5325180000000  0.4990530000000 1.0
C      1  0.4989260000000  0.5137940000000  0.5622680000000 1.0
C      1  0.5639800000000  0.4219710000000  0.5257150000000 1.0
C      1  0.4686620000000  0.4400200000000  0.5908070000000 1.0
C      1  0.4564040000000  0.4216480000000  0.5715110000000 1.0
C      1  0.4153620000000  0.4549800000000  0.5431170000000 1.0
C      1  0.5272770000000  0.4483700000000  0.5439390000000 1.0
C      1  0.4063370000000  0.4478760000000  0.5150080000000 1.0
C      1  0.4346570000000  0.4993280000000  0.5596390000000 1.0
C      1  0.4959280000000  0.4448790000000  0.5032840000000 1.0
C      1  0.5383870000000  0.4895970000000  0.4809680000000 1.0
C      1  0.5668700000000  0.5257450000000  0.5824630000000 1.0
C      1  0.5238970000000  0.4044610000000  0.4565780000000 1.0
C      1  0.5840600000000  0.5324300000000  0.5601370000000 1.0
C      1  0.5137770000000  0.4024900000000  0.5240070000000 1.0
C      1  0.4377460000000  0.5797400000000  0.5134450000000 1.0
C      1  0.5135350000000  0.5335890000000  0.6014220000000 1.0
C      1  0.5946700000000  0.4865600000000  0.5174520000000 1.0
C      1  0.4902800000000  0.4595620000000  0.4780360000000 1.0
C      1  0.5861660000000  0.4674280000000  0.5376760000000 1.0
C      1  0.5387230000000  0.5056900000000  0.5365540000000 1.0
C      1  0.5835280000000  0.5519000000000  0.4587310000000 1.0
C      1  0.4713740000000  0.4476040000000  0.5194490000000 1.0
C      1  0.4681650000000  0.5379710000000  0.5832500000000 1.0
C      1  0.5227440000000  0.4567040000000  0.3941900000000 1.0
C      1  0.4377710000000  0.5037650000000  0.4890080000000 1.0
C      1  0.5615410000000  0.5720120000000  0.4998760000000 1.0
C      1  0.5576350000000  0.5304690000000  0.4201770000000 1.0
C      1  0.5778990000000  0.5434590000000  0.4326320000000 1.0
C      1  0.5125800000000  0.5657860000000  0.4209530000000 1.0
C      1  0.5514870000000  0.5168230000000  0.4764100000000 1.0
C      1  0.4566440000000  0.4533880000000  0.4314230000000 1.0
C      1  0.5171620000000  0.4605650000000  0.5174870000000 1.0
C      1  0.4721220000000  0.4157590000000  0.4617300000000 1.0
C      1  0.4282940000000  0.5410510000000  0.4499460000000 1.0
C      1  0.4517100000000  0.4252740000000  0.5190150000000 1.0
C      1  0.4953170000000  0.4668980000000  0.4011040000000 1.0
C      1  0.4575310000000  0.4651400000000  0.5866090000000 1.0
C      1  0.4444220000000  0.5489740000000  0.5681650000000 1.0
C      1  0.4066290000000  0.5301720000000  0.4677890000000 1.0
C      1  0.4959250000000  0.4229170000000  0.4175120000000 1.0
C      1  0.5921030000000  0.5016240000000  0.4696400000000 1.0
C      1  0.5326530000000  0.5679730000000  0.5104420000000 1.0
C      1  0.5505570000000  0.5346550000000  0.5003880000000 1.0
C      1  0.5329740000000  0.4521750000000  0.4537460000000 1.0
C      1  0.5036740000000  0.4156270000000  0.4994050000000 1.0
C      1  0.5287730000000  0.4907720000000  0.4279440000000 1.0
C      1  0.5662030000000  0.5463370000000  0.5416180000000 1.0
C      1  0.4512650000000  0.4359780000000  0.4540020000000 1.0
C      1  0.5592140000000  0.5221500000000  0.5252840000000 1.0
C      1  0.5792280000000  0.4933660000000  0.4454150000000 1.0
C      1  0.5527700000000  0.4109600000000  0.4474190000000 1.0
C      1  0.5281930000000  0.5070530000000  0.5647980000000 1.0
C      1  0.3995370000000  0.5518770000000  0.5175130000000 1.0
C      1  0.4888430000000  0.5855530000000  0.5173350000000 1.0
C      1  0.5414100000000  0.4646260000000  0.4994810000000 1.0
C      1  0.4666030000000  0.4647920000000  0.5431970000000 1.0
C      1  0.5028760000000  0.4524530000000  0.4519860000000 1.0
C      1  0.5135240000000  0.4573610000000  0.5699170000000 1.0
C      1  0.4311670000000  0.5277460000000  0.5504260000000 1.0
C      1  0.5176260000000  0.5102000000000  0.5137670000000 1.0
C      1  0.4146320000000  0.5743370000000  0.5290130000000 1.0
C      1  0.4670930000000  0.5745900000000  0.4422850000000 1.0
C      1  0.4578350000000  0.5702410000000  0.4162370000000 1.0
C      1  0.5079900000000  0.5214540000000  0.4779940000000 1.0
END
