TITL C-951345-2650-662 -2.82156765042305e-06 125000 -1251.63696942856 0 0 199 (C1) n - 1
REM
REM in /home/bkarasulu/work/CARBON/AIRSS/Generating-Clusters/EDIP-Nigel-Params/with-SteepDescent/Only-C1/SD-CG/HFTN-CG
REM
REM
REM
REM
REM
REM ./C.cell (11c1c37f851c82e70ff6c80c92926a4b)
REM
REM compiler GCC version 9.2.1 20190827 (Red Hat 9.2.1-1)
REM options -cpp -mtune=generic -march=x86-64 -g -O0 -fpre-include=/usr/include/finclude/math-vector-fortran.h
REM seed 530415467 193548184 -1403249832 913130144 -1895167206 -1832947921 1419451518 1250264140 -1158812760 940960284 230269006 -657171533 -1866480339 -1368598855 1810586758 559061614 -1942596534 -904324249 -1351166168 2087867923 -807711312 1605459056 557692204 -1130172137 1164430986 1662382661 -1164533163 -1089953418 -484190799 -1011561321 1769619156 1708705093 -1573422641
REM
CELL 1.54180   50.00000   50.00000   50.00000   90.00000   90.00000   90.00000
LATT -1
SFAC C  
C      1  0.4318710000000  0.5393590000000  0.5896020000000 1.0
C      1  0.5094460000000  0.5454280000000  0.4361890000000 1.0
C      1  0.4586850000000  0.5514570000000  0.5419770000000 1.0
C      1  0.6130420000000  0.4631720000000  0.4864190000000 1.0
C      1  0.5260630000000  0.4395350000000  0.5964820000000 1.0
C      1  0.5350970000000  0.5174120000000  0.4418130000000 1.0
C      1  0.5937390000000  0.4484420000000  0.4684820000000 1.0
C      1  0.4317640000000  0.5662980000000  0.5449660000000 1.0
C      1  0.4071640000000  0.5346430000000  0.5247030000000 1.0
C      1  0.5594840000000  0.5228860000000  0.4195330000000 1.0
C      1  0.5540050000000  0.4740900000000  0.4175170000000 1.0
C      1  0.4508920000000  0.5522670000000  0.4902020000000 1.0
C      1  0.5405440000000  0.4839570000000  0.4460330000000 1.0
C      1  0.4548470000000  0.5217420000000  0.5401930000000 1.0
C      1  0.4800400000000  0.5105380000000  0.4486360000000 1.0
C      1  0.4161670000000  0.5593430000000  0.4447760000000 1.0
C      1  0.5203710000000  0.5601220000000  0.4875070000000 1.0
C      1  0.6020370000000  0.5386470000000  0.4927860000000 1.0
C      1  0.4530700000000  0.4491800000000  0.5293650000000 1.0
C      1  0.4720090000000  0.4653830000000  0.3941490000000 1.0
C      1  0.4890310000000  0.5367800000000  0.4558960000000 1.0
C      1  0.3908180000000  0.5190970000000  0.4503180000000 1.0
C      1  0.4919180000000  0.5821240000000  0.5136310000000 1.0
C      1  0.6034810000000  0.4777960000000  0.5118170000000 1.0
C      1  0.4009160000000  0.4570370000000  0.5530380000000 1.0
C      1  0.3885850000000  0.5213640000000  0.5040240000000 1.0
C      1  0.4524770000000  0.5531400000000  0.6040440000000 1.0
C      1  0.4904850000000  0.5594860000000  0.4154540000000 1.0
C      1  0.4834580000000  0.4477550000000  0.5203600000000 1.0
C      1  0.5228720000000  0.5740930000000  0.5142640000000 1.0
C      1  0.5378800000000  0.5178940000000  0.4741670000000 1.0
C      1  0.5333120000000  0.4712120000000  0.3948300000000 1.0
C      1  0.5730820000000  0.4486140000000  0.5590140000000 1.0
C      1  0.5138090000000  0.5291810000000  0.4916850000000 1.0
C      1  0.4390590000000  0.4871800000000  0.6020810000000 1.0
C      1  0.5069830000000  0.4576760000000  0.4013250000000 1.0
C      1  0.5696050000000  0.4539120000000  0.6050210000000 1.0
C      1  0.5497750000000  0.5316930000000  0.3919050000000 1.0
C      1  0.4830630000000  0.4785140000000  0.6199710000000 1.0
C      1  0.3798140000000  0.4695390000000  0.5070100000000 1.0
C      1  0.5094800000000  0.5124070000000  0.4069960000000 1.0
C      1  0.5593660000000  0.5926720000000  0.5441880000000 1.0
C      1  0.6249330000000  0.5242100000000  0.5305750000000 1.0
C      1  0.4007180000000  0.4370210000000  0.4756290000000 1.0
C      1  0.6078610000000  0.4851400000000  0.5576670000000 1.0
C      1  0.5652320000000  0.5002040000000  0.5356610000000 1.0
C      1  0.4148750000000  0.4826020000000  0.5507300000000 1.0
C      1  0.4729950000000  0.3856300000000  0.4893430000000 1.0
C      1  0.4434520000000  0.4698170000000  0.5113090000000 1.0
C      1  0.5327870000000  0.4634110000000  0.4918700000000 1.0
C      1  0.5743360000000  0.4408630000000  0.5155820000000 1.0
C      1  0.4520740000000  0.3999270000000  0.5242830000000 1.0
C      1  0.5574420000000  0.5456390000000  0.5475820000000 1.0
C      1  0.4493760000000  0.5403800000000  0.4014970000000 1.0
C      1  0.4256640000000  0.5714460000000  0.4910760000000 1.0
C      1  0.5578510000000  0.5344070000000  0.5764600000000 1.0
C      1  0.4895690000000  0.4728220000000  0.4789760000000 1.0
C      1  0.5728550000000  0.5502010000000  0.4249340000000 1.0
C      1  0.4474550000000  0.3791990000000  0.5035430000000 1.0
C      1  0.6041480000000  0.5059780000000  0.4585580000000 1.0
C      1  0.5711730000000  0.5775100000000  0.4662060000000 1.0
C      1  0.5195460000000  0.5763000000000  0.5725000000000 1.0
C      1  0.3937310000000  0.4900460000000  0.4576560000000 1.0
C      1  0.5623880000000  0.4684640000000  0.4906100000000 1.0
C      1  0.4695340000000  0.4936790000000  0.4698980000000 1.0
C      1  0.5540090000000  0.4263250000000  0.4327810000000 1.0
C      1  0.4135140000000  0.5319410000000  0.4359240000000 1.0
C      1  0.4049590000000  0.5049950000000  0.5679400000000 1.0
C      1  0.5336710000000  0.5551590000000  0.3954900000000 1.0
C      1  0.5746700000000  0.5103830000000  0.5814760000000 1.0
C      1  0.5822430000000  0.4206860000000  0.4742710000000 1.0
C      1  0.4354190000000  0.4954470000000  0.4073540000000 1.0
C      1  0.5211370000000  0.4791340000000  0.5153490000000 1.0
C      1  0.4783590000000  0.4846440000000  0.5609620000000 1.0
C      1  0.3892270000000  0.5352070000000  0.4765420000000 1.0
C      1  0.5085040000000  0.4280690000000  0.4089740000000 1.0
C      1  0.4776740000000  0.5581500000000  0.5640230000000 1.0
C      1  0.5033680000000  0.3977630000000  0.5318670000000 1.0
C      1  0.4751360000000  0.4554380000000  0.5588210000000 1.0
C      1  0.4236080000000  0.5105060000000  0.5900910000000 1.0
C      1  0.4744300000000  0.4478840000000  0.4770510000000 1.0
C      1  0.4792680000000  0.5025490000000  0.5369110000000 1.0
C      1  0.4622570000000  0.4941160000000  0.3960350000000 1.0
C      1  0.4323120000000  0.5175070000000  0.5212330000000 1.0
C      1  0.4222450000000  0.4890210000000  0.5218930000000 1.0
C      1  0.4670350000000  0.5091180000000  0.4946610000000 1.0
C      1  0.5744410000000  0.4971130000000  0.4156220000000 1.0
C      1  0.5880550000000  0.5587270000000  0.5087290000000 1.0
C      1  0.4414980000000  0.5220820000000  0.4929020000000 1.0
C      1  0.4350770000000  0.4240000000000  0.5216630000000 1.0
C      1  0.5057210000000  0.5183930000000  0.5412260000000 1.0
C      1  0.4417020000000  0.5740420000000  0.4418830000000 1.0
C      1  0.6207340000000  0.4948450000000  0.4811400000000 1.0
C      1  0.5070520000000  0.4172640000000  0.5537330000000 1.0
C      1  0.5945790000000  0.4434060000000  0.5396170000000 1.0
C      1  0.5711270000000  0.4341260000000  0.5840880000000 1.0
C      1  0.3797140000000  0.4506570000000  0.4872920000000 1.0
C      1  0.6175800000000  0.5174390000000  0.5041640000000 1.0
C      1  0.4914380000000  0.4754890000000  0.5096780000000 1.0
C      1  0.4888090000000  0.4149630000000  0.5779510000000 1.0
C      1  0.4050800000000  0.5602960000000  0.4719510000000 1.0
C      1  0.5363750000000  0.4829790000000  0.6176190000000 1.0
C      1  0.5433250000000  0.4087860000000  0.4999940000000 1.0
C      1  0.4673040000000  0.4011450000000  0.4644070000000 1.0
C      1  0.4296030000000  0.4764290000000  0.4278470000000 1.0
C      1  0.4767920000000  0.5156250000000  0.5927270000000 1.0
C      1  0.4919660000000  0.5839090000000  0.5635290000000 1.0
C      1  0.4001530000000  0.5316160000000  0.5539810000000 1.0
C      1  0.5255150000000  0.4341790000000  0.4942090000000 1.0
C      1  0.4456420000000  0.4555220000000  0.4840910000000 1.0
C      1  0.4718130000000  0.5567410000000  0.5146550000000 1.0
C      1  0.5498840000000  0.6093010000000  0.4883570000000 1.0
C      1  0.5749710000000  0.4846800000000  0.5120670000000 1.0
C      1  0.5425070000000  0.4553230000000  0.6145620000000 1.0
C      1  0.5726730000000  0.4156120000000  0.5016040000000 1.0
C      1  0.5893640000000  0.5073790000000  0.5556270000000 1.0
C      1  0.4028820000000  0.4701270000000  0.4368110000000 1.0
C      1  0.4783370000000  0.5456930000000  0.5918580000000 1.0
C      1  0.5377860000000  0.4153660000000  0.5541230000000 1.0
C      1  0.5130420000000  0.5534430000000  0.5902420000000 1.0
C      1  0.5427350000000  0.5123190000000  0.3726680000000 1.0
C      1  0.5308160000000  0.3936110000000  0.5224350000000 1.0
C      1  0.5185720000000  0.5087120000000  0.5666170000000 1.0
C      1  0.5683490000000  0.4807080000000  0.4618530000000 1.0
C      1  0.4053630000000  0.4418270000000  0.4470950000000 1.0
C      1  0.4705520000000  0.5235300000000  0.3887300000000 1.0
C      1  0.5282070000000  0.4638580000000  0.5419130000000 1.0
C      1  0.5301600000000  0.5296890000000  0.5851630000000 1.0
C      1  0.4858230000000  0.5295750000000  0.5056630000000 1.0
C      1  0.6127780000000  0.4662380000000  0.5375750000000 1.0
C      1  0.5522850000000  0.5245970000000  0.5225200000000 1.0
C      1  0.5372990000000  0.3992530000000  0.4699540000000 1.0
C      1  0.4424970000000  0.6162560000000  0.5238310000000 1.0
C      1  0.4182900000000  0.4960080000000  0.4754800000000 1.0
C      1  0.6043450000000  0.5326480000000  0.5478260000000 1.0
C      1  0.4423650000000  0.5901900000000  0.4686930000000 1.0
C      1  0.4939680000000  0.4972280000000  0.4269780000000 1.0
C      1  0.5150820000000  0.4219520000000  0.4685010000000 1.0
C      1  0.4982650000000  0.4686570000000  0.4280620000000 1.0
C      1  0.4987920000000  0.5382640000000  0.3948990000000 1.0
C      1  0.4166420000000  0.5525980000000  0.5676980000000 1.0
C      1  0.5391250000000  0.5703410000000  0.5494480000000 1.0
C      1  0.4281490000000  0.4292200000000  0.4869410000000 1.0
C      1  0.4930470000000  0.5986530000000  0.4440930000000 1.0
C      1  0.5620560000000  0.4091060000000  0.4551050000000 1.0
C      1  0.4556730000000  0.6257200000000  0.5015860000000 1.0
C      1  0.4623460000000  0.4458460000000  0.4155470000000 1.0
C      1  0.5575720000000  0.4853520000000  0.5866020000000 1.0
C      1  0.5928010000000  0.4581260000000  0.4399060000000 1.0
C      1  0.5253570000000  0.6087470000000  0.4730930000000 1.0
C      1  0.5210520000000  0.5948300000000  0.4476670000000 1.0
C      1  0.4855760000000  0.4251600000000  0.4605250000000 1.0
C      1  0.4619940000000  0.6093230000000  0.4791580000000 1.0
C      1  0.5327310000000  0.4182280000000  0.4172740000000 1.0
C      1  0.5487400000000  0.5672390000000  0.4183290000000 1.0
C      1  0.4726550000000  0.5576500000000  0.4684200000000 1.0
C      1  0.5780010000000  0.5831230000000  0.4946080000000 1.0
C      1  0.4612800000000  0.4181550000000  0.5725120000000 1.0
C      1  0.5015080000000  0.4456110000000  0.5454410000000 1.0
C      1  0.4301320000000  0.4277000000000  0.4399800000000 1.0
C      1  0.4970550000000  0.4348750000000  0.5974170000000 1.0
C      1  0.5191810000000  0.4722070000000  0.4665050000000 1.0
C      1  0.5060940000000  0.6292940000000  0.4766500000000 1.0
C      1  0.4387430000000  0.4110710000000  0.4635680000000 1.0
C      1  0.4196720000000  0.4351010000000  0.5543750000000 1.0
C      1  0.5244090000000  0.5127930000000  0.5187080000000 1.0
C      1  0.4961130000000  0.4957110000000  0.5818950000000 1.0
C      1  0.5407960000000  0.4877340000000  0.5593690000000 1.0
C      1  0.4399220000000  0.4289660000000  0.4134740000000 1.0
C      1  0.5942830000000  0.5325510000000  0.4660200000000 1.0
C      1  0.5093180000000  0.4905290000000  0.6175230000000 1.0
C      1  0.4484230000000  0.4586390000000  0.5932730000000 1.0
C      1  0.4605370000000  0.5597970000000  0.4206800000000 1.0
C      1  0.4929190000000  0.5783160000000  0.4761450000000 1.0
C      1  0.4852520000000  0.4322740000000  0.4296630000000 1.0
C      1  0.5232880000000  0.4969480000000  0.3858530000000 1.0
C      1  0.5695140000000  0.4489640000000  0.4238360000000 1.0
C      1  0.5462380000000  0.5601100000000  0.4688350000000 1.0
C      1  0.4628170000000  0.5002020000000  0.6145290000000 1.0
C      1  0.4813420000000  0.4043950000000  0.5137360000000 1.0
C      1  0.4280290000000  0.5231800000000  0.4121530000000 1.0
C      1  0.5442910000000  0.4207980000000  0.5830810000000 1.0
C      1  0.4886560000000  0.5997440000000  0.5381150000000 1.0
C      1  0.5500340000000  0.4411170000000  0.5409350000000 1.0
C      1  0.5957750000000  0.4887720000000  0.4351780000000 1.0
C      1  0.5857560000000  0.5831650000000  0.5492780000000 1.0
C      1  0.5581580000000  0.5316560000000  0.4912770000000 1.0
C      1  0.3991150000000  0.4921830000000  0.5017950000000 1.0
C      1  0.4835590000000  0.6186390000000  0.4626030000000 1.0
C      1  0.4763760000000  0.4556830000000  0.6029070000000 1.0
C      1  0.5863280000000  0.5560740000000  0.4505410000000 1.0
C      1  0.5313190000000  0.5672890000000  0.4427370000000 1.0
C      1  0.3829350000000  0.4579010000000  0.5319020000000 1.0
C      1  0.5472760000000  0.5953290000000  0.5146280000000 1.0
C      1  0.4412850000000  0.4790700000000  0.4642320000000 1.0
C      1  0.4664350000000  0.6184240000000  0.5377230000000 1.0
C      1  0.5858130000000  0.5558050000000  0.5388970000000 1.0
C      1  0.4398660000000  0.4360510000000  0.5755870000000 1.0
C      1  0.4149170000000  0.5640940000000  0.5198790000000 1.0
END
