TITL C-951340-9809-439 9.04559051288028e-06 125000 -478.725802860021 0 0 78 (C1) n - 1
REM
REM in /home/bkarasulu/work/CARBON/AIRSS/Generating-Clusters/EDIP-Nigel-Params/with-SteepDescent/Only-C1/SD-CG/HFTN-CG
REM
REM
REM
REM
REM
REM ./C.cell (11c1c37f851c82e70ff6c80c92926a4b)
REM
REM compiler GCC version 9.2.1 20190827 (Red Hat 9.2.1-1)
REM options -cpp -mtune=generic -march=x86-64 -g -O0 -fpre-include=/usr/include/finclude/math-vector-fortran.h
REM seed 367418021 -1780119827 193098427 1087436968 1367489272 -1949411242 210255638 1019331224 1121666586 -168329423 -1816425855 -2007603673 -1997003030 1899215622 -878421370 -773276279 -1914528863 921009881 1245334140 -2023488549 1265110149 -320052794 -1718195736 1929860301 -563530765 -1997427361 333480926 2058316973 -1417295607 1845557190 1327532442 -1688690205 -832363270
REM
CELL 1.54180   50.00000   50.00000   50.00000   90.00000   90.00000   90.00000
LATT -1
SFAC C  
C      1  0.4799330000000  0.5130410000000  0.4341840000000 1.0
C      1  0.4726230000000  0.5125500000000  0.5747950000000 1.0
C      1  0.5001110000000  0.4294500000000  0.4843970000000 1.0
C      1  0.5116600000000  0.4941760000000  0.5336280000000 1.0
C      1  0.4874300000000  0.5422390000000  0.4366380000000 1.0
C      1  0.5302090000000  0.5655610000000  0.5401030000000 1.0
C      1  0.4445730000000  0.5119080000000  0.5732980000000 1.0
C      1  0.5419470000000  0.4367670000000  0.5087510000000 1.0
C      1  0.4529490000000  0.4282970000000  0.5014850000000 1.0
C      1  0.4516610000000  0.5026130000000  0.4330610000000 1.0
C      1  0.4310290000000  0.4818890000000  0.5347690000000 1.0
C      1  0.5634390000000  0.4442080000000  0.4905360000000 1.0
C      1  0.5021630000000  0.5698040000000  0.5328230000000 1.0
C      1  0.4910380000000  0.4313530000000  0.4551390000000 1.0
C      1  0.4872860000000  0.4642390000000  0.5747870000000 1.0
C      1  0.4309190000000  0.4858060000000  0.5054070000000 1.0
C      1  0.4392080000000  0.5076990000000  0.5458890000000 1.0
C      1  0.5073300000000  0.4767640000000  0.4356360000000 1.0
C      1  0.4341130000000  0.5145860000000  0.4989400000000 1.0
C      1  0.4770860000000  0.5243730000000  0.4939960000000 1.0
C      1  0.4550080000000  0.5535890000000  0.4733650000000 1.0
C      1  0.5469070000000  0.4854950000000  0.4946720000000 1.0
C      1  0.5450140000000  0.4798840000000  0.4656200000000 1.0
C      1  0.4238250000000  0.4803360000000  0.4592200000000 1.0
C      1  0.5253790000000  0.5127130000000  0.5132600000000 1.0
C      1  0.5312960000000  0.5202600000000  0.4341020000000 1.0
C      1  0.5481890000000  0.5794660000000  0.5238120000000 1.0
C      1  0.5571720000000  0.4855710000000  0.5528130000000 1.0
C      1  0.5170450000000  0.5823180000000  0.4871880000000 1.0
C      1  0.5780220000000  0.5210350000000  0.4541250000000 1.0
C      1  0.4428480000000  0.4596300000000  0.5474840000000 1.0
C      1  0.4441460000000  0.5255020000000  0.5236070000000 1.0
C      1  0.4965070000000  0.4198480000000  0.5276060000000 1.0
C      1  0.4945180000000  0.5785570000000  0.5055930000000 1.0
C      1  0.5146630000000  0.4561470000000  0.5631690000000 1.0
C      1  0.4889650000000  0.5060520000000  0.4628220000000 1.0
C      1  0.5077370000000  0.4474850000000  0.5346110000000 1.0
C      1  0.4388840000000  0.5284310000000  0.4733580000000 1.0
C      1  0.4444990000000  0.4426840000000  0.4788300000000 1.0
C      1  0.5146580000000  0.4481450000000  0.4437260000000 1.0
C      1  0.5155960000000  0.5428260000000  0.4460870000000 1.0
C      1  0.4982700000000  0.4972310000000  0.4148200000000 1.0
C      1  0.4596610000000  0.5496030000000  0.5252370000000 1.0
C      1  0.5697010000000  0.5286620000000  0.5312380000000 1.0
C      1  0.4700620000000  0.4681550000000  0.5503990000000 1.0
C      1  0.4695200000000  0.5588500000000  0.4500960000000 1.0
C      1  0.4904840000000  0.4919780000000  0.5873140000000 1.0
C      1  0.5711010000000  0.4701030000000  0.5040960000000 1.0
C      1  0.5603410000000  0.5267550000000  0.4334270000000 1.0
C      1  0.5359390000000  0.5371070000000  0.5484280000000 1.0
C      1  0.4885880000000  0.5351950000000  0.5665820000000 1.0
C      1  0.5450670000000  0.5765600000000  0.4961420000000 1.0
C      1  0.5391620000000  0.4512700000000  0.4619820000000 1.0
C      1  0.5247170000000  0.4956500000000  0.4513790000000 1.0
C      1  0.5039560000000  0.4589030000000  0.4876480000000 1.0
C      1  0.5170910000000  0.5296430000000  0.5712290000000 1.0
C      1  0.4537290000000  0.4796520000000  0.4542510000000 1.0
C      1  0.5522640000000  0.5261000000000  0.5087850000000 1.0
C      1  0.5696790000000  0.4709840000000  0.5321280000000 1.0
C      1  0.4631080000000  0.4436040000000  0.4544460000000 1.0
C      1  0.5269590000000  0.4839310000000  0.5577670000000 1.0
C      1  0.4683830000000  0.5622940000000  0.4997200000000 1.0
C      1  0.5229670000000  0.4164630000000  0.5008980000000 1.0
C      1  0.5651540000000  0.5133220000000  0.5544300000000 1.0
C      1  0.5697630000000  0.5455310000000  0.4642910000000 1.0
C      1  0.4805070000000  0.4714580000000  0.4987130000000 1.0
C      1  0.5201930000000  0.5464710000000  0.4760940000000 1.0
C      1  0.4894370000000  0.4733360000000  0.5277850000000 1.0
C      1  0.5201670000000  0.5140700000000  0.4077280000000 1.0
C      1  0.4673730000000  0.4919960000000  0.4810900000000 1.0
C      1  0.5269920000000  0.4631030000000  0.5064500000000 1.0
C      1  0.5499150000000  0.5477080000000  0.4864290000000 1.0
C      1  0.5071550000000  0.5273130000000  0.4951060000000 1.0
C      1  0.5186800000000  0.5014100000000  0.5810230000000 1.0
C      1  0.4822580000000  0.5518690000000  0.5436260000000 1.0
C      1  0.4246770000000  0.4655830000000  0.4842800000000 1.0
C      1  0.4788860000000  0.4181270000000  0.5033820000000 1.0
C      1  0.4305110000000  0.5167150000000  0.4482330000000 1.0
END
