TITL C-950521-2237-117 -8.03057697674986e-07 125000 -330.458798861304 0 0 55 (C1) n - 1
REM
REM in /home/bkarasulu/work/CARBON/AIRSS/Generating-Clusters/EDIP-Nigel-Params/with-SteepDescent/Only-C1/SD-CG/HFTN-CG
REM
REM
REM
REM
REM
REM ./C.cell (11c1c37f851c82e70ff6c80c92926a4b)
REM
REM compiler GCC version 9.2.1 20190827 (Red Hat 9.2.1-1)
REM options -cpp -mtune=generic -march=x86-64 -g -O0 -fpre-include=/usr/include/finclude/math-vector-fortran.h
REM seed 1398369441 -74045830 -956480022 567938123 1379954365 1792962943 751567610 1940322320 1407732582 2093558352 -1814560679 1601453277 -1713307347 -2036332144 -1169473011 -902662631 -1858692490 -990272030 1462436040 693629190 -1439289564 -412690779 88833147 -1680992473 577215614 1319258623 1977591675 832043375 1406568735 -1582720879 1508586389 -1610316778 -2029341787
REM
CELL 1.54180   50.00000   50.00000   50.00000   90.00000   90.00000   90.00000
LATT -1
SFAC C  
C      1  0.4962500000000  0.5325610000000  0.5225850000000 1.0
C      1  0.4714640000000  0.4895410000000  0.5454030000000 1.0
C      1  0.4585490000000  0.5067750000000  0.4412510000000 1.0
C      1  0.5336340000000  0.5500040000000  0.5069280000000 1.0
C      1  0.5283930000000  0.5310140000000  0.5591770000000 1.0
C      1  0.5056860000000  0.5695500000000  0.4715020000000 1.0
C      1  0.5359800000000  0.4817490000000  0.5637750000000 1.0
C      1  0.5261840000000  0.5287530000000  0.4492680000000 1.0
C      1  0.4763810000000  0.4450140000000  0.4708340000000 1.0
C      1  0.4256510000000  0.5180850000000  0.4752100000000 1.0
C      1  0.4885370000000  0.5076140000000  0.4394080000000 1.0
C      1  0.4829460000000  0.5080030000000  0.5631230000000 1.0
C      1  0.5364990000000  0.4551060000000  0.5229300000000 1.0
C      1  0.4274100000000  0.4899700000000  0.4763080000000 1.0
C      1  0.4415170000000  0.5694940000000  0.5102620000000 1.0
C      1  0.5028570000000  0.5206930000000  0.5485710000000 1.0
C      1  0.4839340000000  0.5605720000000  0.5307970000000 1.0
C      1  0.4678690000000  0.4723750000000  0.4745210000000 1.0
C      1  0.4736290000000  0.5262400000000  0.4826800000000 1.0
C      1  0.5489510000000  0.5008680000000  0.5137980000000 1.0
C      1  0.5004780000000  0.5345300000000  0.4378380000000 1.0
C      1  0.5476400000000  0.5070260000000  0.5643330000000 1.0
C      1  0.4474230000000  0.4481080000000  0.5105810000000 1.0
C      1  0.5569160000000  0.5114020000000  0.4868900000000 1.0
C      1  0.4506080000000  0.5254970000000  0.4634730000000 1.0
C      1  0.4707250000000  0.4616030000000  0.5537170000000 1.0
C      1  0.4974220000000  0.4258630000000  0.5375380000000 1.0
C      1  0.5097760000000  0.4603480000000  0.4426170000000 1.0
C      1  0.5098000000000  0.4871090000000  0.4338900000000 1.0
C      1  0.4490300000000  0.4765510000000  0.4990550000000 1.0
C      1  0.4478870000000  0.4820070000000  0.4549190000000 1.0
C      1  0.4560010000000  0.5516530000000  0.5237290000000 1.0
C      1  0.5433010000000  0.5457710000000  0.5344300000000 1.0
C      1  0.5047610000000  0.4433040000000  0.4641300000000 1.0
C      1  0.5162270000000  0.5051090000000  0.5028320000000 1.0
C      1  0.5709730000000  0.4627310000000  0.4917900000000 1.0
C      1  0.5190480000000  0.4503990000000  0.4973430000000 1.0
C      1  0.4958310000000  0.5815730000000  0.5166830000000 1.0
C      1  0.5621120000000  0.4674550000000  0.4665240000000 1.0
C      1  0.4982900000000  0.4488640000000  0.5542820000000 1.0
C      1  0.4704000000000  0.4339510000000  0.4972040000000 1.0
C      1  0.5340720000000  0.5014520000000  0.4433460000000 1.0
C      1  0.4517170000000  0.4471430000000  0.5384160000000 1.0
C      1  0.5431280000000  0.4895140000000  0.4694930000000 1.0
C      1  0.5487100000000  0.5381660000000  0.4862220000000 1.0
C      1  0.5217360000000  0.4655050000000  0.5461750000000 1.0
C      1  0.4584640000000  0.4971330000000  0.5202560000000 1.0
C      1  0.4898930000000  0.5555460000000  0.4535750000000 1.0
C      1  0.5054140000000  0.5290600000000  0.4810490000000 1.0
C      1  0.5130910000000  0.5688220000000  0.4985620000000 1.0
C      1  0.5174900000000  0.4798820000000  0.4851930000000 1.0
C      1  0.4953640000000  0.4374520000000  0.5116730000000 1.0
C      1  0.5589660000000  0.4720510000000  0.5154240000000 1.0
C      1  0.5584690000000  0.5186940000000  0.5372730000000 1.0
C      1  0.4665170000000  0.5247430000000  0.5112160000000 1.0
END
