TITL C-951333-8791-679 1.37804934288061e-06 125000 -577.135761543775 0 0 93 (C1) n - 1
REM
REM in /home/bkarasulu/work/CARBON/AIRSS/Generating-Clusters/EDIP-Nigel-Params/with-SteepDescent/Only-C1/SD-CG/HFTN-CG
REM
REM
REM
REM
REM
REM ./C.cell (11c1c37f851c82e70ff6c80c92926a4b)
REM
REM compiler GCC version 9.2.1 20190827 (Red Hat 9.2.1-1)
REM options -cpp -mtune=generic -march=x86-64 -g -O0 -fpre-include=/usr/include/finclude/math-vector-fortran.h
REM seed 42228158 -1231715052 1678930334 -938332713 -780220778 740060728 1628382398 -463069711 632922284 -1660261432 -2055651503 -860320196 -2132891463 1090726222 1855021191 -1967377606 -787790947 1430383733 -455177499 128921528 678484586 314114894 -291076148 1912624925 -216365574 -1251560625 -822127848 1305153241 -198432497 -230606721 -631569928 978706309 -1344466364
REM
CELL 1.54180   50.00000   50.00000   50.00000   90.00000   90.00000   90.00000
LATT -1
SFAC C  
C      1  0.5867980000000  0.5092370000000  0.5200870000000 1.0
C      1  0.4789880000000  0.4918020000000  0.5365240000000 1.0
C      1  0.5036210000000  0.5537060000000  0.5672200000000 1.0
C      1  0.5120310000000  0.5514680000000  0.5388700000000 1.0
C      1  0.5126910000000  0.4575860000000  0.5225290000000 1.0
C      1  0.4621470000000  0.5795110000000  0.5274260000000 1.0
C      1  0.4427460000000  0.5481640000000  0.4914200000000 1.0
C      1  0.5006830000000  0.4465990000000  0.5635200000000 1.0
C      1  0.5522880000000  0.4579220000000  0.4864660000000 1.0
C      1  0.4676020000000  0.5580930000000  0.5067090000000 1.0
C      1  0.5152720000000  0.5643590000000  0.4276820000000 1.0
C      1  0.5330310000000  0.4185710000000  0.5068340000000 1.0
C      1  0.4196840000000  0.4655910000000  0.4751250000000 1.0
C      1  0.5113150000000  0.5744550000000  0.5020660000000 1.0
C      1  0.4999070000000  0.5322010000000  0.4755770000000 1.0
C      1  0.5068520000000  0.4521020000000  0.4542190000000 1.0
C      1  0.4966590000000  0.6017810000000  0.5023140000000 1.0
C      1  0.4930060000000  0.4611490000000  0.4990280000000 1.0
C      1  0.5360690000000  0.5154710000000  0.5707090000000 1.0
C      1  0.5449410000000  0.4971240000000  0.4261540000000 1.0
C      1  0.4686710000000  0.4785190000000  0.5082260000000 1.0
C      1  0.4282480000000  0.5236180000000  0.4987550000000 1.0
C      1  0.4672330000000  0.5537580000000  0.5724290000000 1.0
C      1  0.4755300000000  0.6007420000000  0.4833060000000 1.0
C      1  0.4764980000000  0.4361210000000  0.4354490000000 1.0
C      1  0.5404130000000  0.5441250000000  0.5289440000000 1.0
C      1  0.4399950000000  0.4835780000000  0.4374510000000 1.0
C      1  0.5516480000000  0.5081150000000  0.4862840000000 1.0
C      1  0.5407560000000  0.4480410000000  0.5130080000000 1.0
C      1  0.4602020000000  0.4976270000000  0.4843560000000 1.0
C      1  0.5867270000000  0.4569920000000  0.5195980000000 1.0
C      1  0.4743540000000  0.5214000000000  0.5359060000000 1.0
C      1  0.5562250000000  0.5305070000000  0.4646230000000 1.0
C      1  0.5576530000000  0.5618890000000  0.4867300000000 1.0
C      1  0.5100520000000  0.4640810000000  0.4131580000000 1.0
C      1  0.4840690000000  0.4260820000000  0.5141160000000 1.0
C      1  0.4498060000000  0.5635400000000  0.5505990000000 1.0
C      1  0.5075120000000  0.4731330000000  0.4753280000000 1.0
C      1  0.4770230000000  0.5766000000000  0.4684770000000 1.0
C      1  0.4466310000000  0.4580080000000  0.5167060000000 1.0
C      1  0.5203320000000  0.4912460000000  0.4107180000000 1.0
C      1  0.4888960000000  0.5134910000000  0.5888120000000 1.0
C      1  0.4487730000000  0.5376730000000  0.5337120000000 1.0
C      1  0.5449050000000  0.5248260000000  0.4367010000000 1.0
C      1  0.4898470000000  0.4884540000000  0.5738440000000 1.0
C      1  0.4914830000000  0.5387930000000  0.5199760000000 1.0
C      1  0.4882540000000  0.5921170000000  0.5281700000000 1.0
C      1  0.4720440000000  0.5233910000000  0.4696680000000 1.0
C      1  0.4782780000000  0.4224620000000  0.4855370000000 1.0
C      1  0.5225140000000  0.5719230000000  0.4537280000000 1.0
C      1  0.4328770000000  0.4453440000000  0.4934910000000 1.0
C      1  0.5341360000000  0.5187910000000  0.5108800000000 1.0
C      1  0.4662570000000  0.4840330000000  0.4262940000000 1.0
C      1  0.4226610000000  0.5231490000000  0.5277720000000 1.0
C      1  0.4994330000000  0.4232300000000  0.4643600000000 1.0
C      1  0.5473860000000  0.4359050000000  0.4645380000000 1.0
C      1  0.5030240000000  0.5628580000000  0.4745500000000 1.0
C      1  0.4324920000000  0.4941290000000  0.4740090000000 1.0
C      1  0.4754500000000  0.5109690000000  0.4216170000000 1.0
C      1  0.5037200000000  0.5153800000000  0.4145160000000 1.0
C      1  0.4819740000000  0.4604370000000  0.4191520000000 1.0
C      1  0.5321380000000  0.4993870000000  0.5350910000000 1.0
C      1  0.5126230000000  0.4695420000000  0.5794510000000 1.0
C      1  0.4516260000000  0.4293120000000  0.4767150000000 1.0
C      1  0.5484650000000  0.4765020000000  0.4462180000000 1.0
C      1  0.5169100000000  0.4286910000000  0.5485440000000 1.0
C      1  0.4641270000000  0.5293000000000  0.4409920000000 1.0
C      1  0.4632630000000  0.5243040000000  0.5787560000000 1.0
C      1  0.5410900000000  0.5678150000000  0.5093770000000 1.0
C      1  0.5197180000000  0.5365450000000  0.4272820000000 1.0
C      1  0.5376290000000  0.4819480000000  0.4744720000000 1.0
C      1  0.5401700000000  0.4832440000000  0.5757570000000 1.0
C      1  0.5499410000000  0.5683810000000  0.4605680000000 1.0
C      1  0.4236320000000  0.5050580000000  0.5492100000000 1.0
C      1  0.5095930000000  0.4138040000000  0.5250380000000 1.0
C      1  0.5795780000000  0.4684110000000  0.4946700000000 1.0
C      1  0.5279640000000  0.4166840000000  0.4766630000000 1.0
C      1  0.5347450000000  0.4506930000000  0.4400870000000 1.0
C      1  0.5124980000000  0.5305920000000  0.5828020000000 1.0
C      1  0.4293860000000  0.4589310000000  0.4473730000000 1.0
C      1  0.5562020000000  0.4827230000000  0.5476140000000 1.0
C      1  0.5060930000000  0.5217270000000  0.5013840000000 1.0
C      1  0.5781960000000  0.4980500000000  0.4960290000000 1.0
C      1  0.4497750000000  0.4367240000000  0.4489670000000 1.0
C      1  0.4470950000000  0.5015950000000  0.5646350000000 1.0
C      1  0.4728660000000  0.4522090000000  0.5549680000000 1.0
C      1  0.5747910000000  0.5072770000000  0.5451520000000 1.0
C      1  0.5620440000000  0.4560220000000  0.5332370000000 1.0
C      1  0.5082940000000  0.4837120000000  0.5341720000000 1.0
C      1  0.4620910000000  0.4376800000000  0.5320960000000 1.0
C      1  0.4560350000000  0.4733360000000  0.5680040000000 1.0
C      1  0.4539940000000  0.5573060000000  0.4654920000000 1.0
C      1  0.5571120000000  0.5305280000000  0.5532160000000 1.0
END
