TITL C-950525-1983-444 -2.92110658599893e-07 125000 -330.894525771948 0 0 55 (C1) n - 1
REM
REM in /home/bkarasulu/work/CARBON/AIRSS/Generating-Clusters/EDIP-Nigel-Params/with-SteepDescent/Only-C1/SD-CG/HFTN-CG
REM
REM
REM
REM
REM
REM ./C.cell (11c1c37f851c82e70ff6c80c92926a4b)
REM
REM compiler GCC version 9.2.1 20190827 (Red Hat 9.2.1-1)
REM options -cpp -mtune=generic -march=x86-64 -g -O0 -fpre-include=/usr/include/finclude/math-vector-fortran.h
REM seed 317271732 -2019470490 1636323742 -1902005316 987503276 1890869679 1507683660 575542775 2002327442 467000751 -897243511 1565923306 -2099926366 1670474543 -1382033016 -459674250 1054216289 1793938265 -628408070 -281005616 1728137969 209588902 -1983809017 616940707 -671628133 981303706 -530873066 325941961 -1916635770 1237431054 -1675412580 1721219011 -785598804
REM
CELL 1.54180   50.00000   50.00000   50.00000   90.00000   90.00000   90.00000
LATT -1
SFAC C  
C      1  0.4295210000000  0.5288250000000  0.4902390000000 1.0
C      1  0.4638020000000  0.4429670000000  0.5039540000000 1.0
C      1  0.5052080000000  0.4275040000000  0.5087960000000 1.0
C      1  0.5261820000000  0.4831390000000  0.4335610000000 1.0
C      1  0.5555940000000  0.4659790000000  0.5366720000000 1.0
C      1  0.5168100000000  0.4606160000000  0.4487930000000 1.0
C      1  0.4896440000000  0.5760220000000  0.4925580000000 1.0
C      1  0.5208140000000  0.5423740000000  0.5413760000000 1.0
C      1  0.5379520000000  0.5209570000000  0.5436940000000 1.0
C      1  0.5205470000000  0.5430280000000  0.4665160000000 1.0
C      1  0.5622020000000  0.5255510000000  0.5289210000000 1.0
C      1  0.4848420000000  0.5288190000000  0.5116960000000 1.0
C      1  0.5434390000000  0.4765000000000  0.5595410000000 1.0
C      1  0.4523700000000  0.4589390000000  0.4813710000000 1.0
C      1  0.4431880000000  0.5060570000000  0.4751810000000 1.0
C      1  0.5242250000000  0.5188500000000  0.4840500000000 1.0
C      1  0.4609420000000  0.4973400000000  0.4525080000000 1.0
C      1  0.5376640000000  0.5613510000000  0.4828280000000 1.0
C      1  0.4973420000000  0.4976490000000  0.5631580000000 1.0
C      1  0.5187340000000  0.4750960000000  0.5214310000000 1.0
C      1  0.4689910000000  0.5588410000000  0.4835170000000 1.0
C      1  0.5701440000000  0.5198460000000  0.4858390000000 1.0
C      1  0.4980140000000  0.4838680000000  0.5019110000000 1.0
C      1  0.5235880000000  0.4322640000000  0.4884000000000 1.0
C      1  0.5311280000000  0.4547830000000  0.4739190000000 1.0
C      1  0.5462270000000  0.4765240000000  0.4868020000000 1.0
C      1  0.5452470000000  0.5007080000000  0.4444690000000 1.0
C      1  0.4787870000000  0.5192970000000  0.5572660000000 1.0
C      1  0.5152210000000  0.5688450000000  0.5022720000000 1.0
C      1  0.4432860000000  0.5545000000000  0.4992140000000 1.0
C      1  0.5132310000000  0.5404390000000  0.5131120000000 1.0
C      1  0.5595190000000  0.5456160000000  0.4960080000000 1.0
C      1  0.5482520000000  0.5032920000000  0.4735930000000 1.0
C      1  0.4791390000000  0.4194830000000  0.5015850000000 1.0
C      1  0.4861430000000  0.4721610000000  0.5664250000000 1.0
C      1  0.4808260000000  0.5191180000000  0.4477490000000 1.0
C      1  0.5083610000000  0.4469810000000  0.5312990000000 1.0
C      1  0.4451590000000  0.5456340000000  0.5281140000000 1.0
C      1  0.4716130000000  0.5382030000000  0.5364820000000 1.0
C      1  0.4344070000000  0.4817550000000  0.4883130000000 1.0
C      1  0.5246690000000  0.5391170000000  0.4384540000000 1.0
C      1  0.4843720000000  0.4986790000000  0.5216540000000 1.0
C      1  0.4219180000000  0.5175000000000  0.5163330000000 1.0
C      1  0.4601570000000  0.4539690000000  0.5310230000000 1.0
C      1  0.5077000000000  0.5163400000000  0.4340210000000 1.0
C      1  0.5613850000000  0.4785500000000  0.5116310000000 1.0
C      1  0.5236430000000  0.4946980000000  0.5475300000000 1.0
C      1  0.4837180000000  0.4501020000000  0.5487760000000 1.0
C      1  0.4287220000000  0.4888450000000  0.5166420000000 1.0
C      1  0.5747810000000  0.5054930000000  0.5119460000000 1.0
C      1  0.4521970000000  0.4818370000000  0.5320640000000 1.0
C      1  0.5038570000000  0.4996710000000  0.4803190000000 1.0
C      1  0.4670070000000  0.4677540000000  0.4566120000000 1.0
C      1  0.4895530000000  0.4542830000000  0.4461570000000 1.0
C      1  0.4780160000000  0.5334420000000  0.4737030000000 1.0
END
