TITL C-951344-124-158 -2.7511427222667e-06 125000 -1096.94799407143 0 0 177 (C1) n - 1
REM
REM in /home/bkarasulu/work/CARBON/AIRSS/Generating-Clusters/EDIP-Nigel-Params/with-SteepDescent/Only-C1/SD-CG/HFTN-CG
REM
REM
REM
REM
REM
REM ./C.cell (11c1c37f851c82e70ff6c80c92926a4b)
REM
REM compiler GCC version 9.2.1 20190827 (Red Hat 9.2.1-1)
REM options -cpp -mtune=generic -march=x86-64 -g -O0 -fpre-include=/usr/include/finclude/math-vector-fortran.h
REM seed 1037989329 255735279 1550812926 1677819944 -1715204901 1509470313 -1690026920 1220186032 1319004421 929324755 -1822076020 -1780067363 1897630638 380200489 -305508181 26375702 -1242157858 852035236 -1519536784 669382652 1664605139 -1631066677 -371390967 -1669511984 1848221520 1733187437 176896608 -908959075 -1715445411 1531038200 1601955869 1181775453 49957019
REM
CELL 1.54180   50.00000   50.00000   50.00000   90.00000   90.00000   90.00000
LATT -1
SFAC C  
C      1  0.4131270000000  0.4243650000000  0.4669460000000 1.0
C      1  0.5218670000000  0.5141570000000  0.5727490000000 1.0
C      1  0.5154780000000  0.5616940000000  0.5849110000000 1.0
C      1  0.5277580000000  0.4854150000000  0.5039570000000 1.0
C      1  0.4933470000000  0.5713130000000  0.4865540000000 1.0
C      1  0.4591990000000  0.5270640000000  0.4593520000000 1.0
C      1  0.4830720000000  0.4713440000000  0.6004740000000 1.0
C      1  0.4184260000000  0.5547760000000  0.4299630000000 1.0
C      1  0.4617300000000  0.5455600000000  0.5161580000000 1.0
C      1  0.5261120000000  0.4597840000000  0.4512580000000 1.0
C      1  0.4661610000000  0.5460630000000  0.5881960000000 1.0
C      1  0.4563180000000  0.4608740000000  0.6033250000000 1.0
C      1  0.4622710000000  0.4327640000000  0.4991200000000 1.0
C      1  0.6032260000000  0.4586490000000  0.4574170000000 1.0
C      1  0.5792520000000  0.4839820000000  0.5841620000000 1.0
C      1  0.5676600000000  0.4938310000000  0.4669380000000 1.0
C      1  0.5717480000000  0.5402170000000  0.4196610000000 1.0
C      1  0.5972470000000  0.5503790000000  0.4807540000000 1.0
C      1  0.5515970000000  0.4677610000000  0.5037910000000 1.0
C      1  0.5154830000000  0.4045920000000  0.5303740000000 1.0
C      1  0.4072330000000  0.4834250000000  0.4297110000000 1.0
C      1  0.5126660000000  0.4356750000000  0.4342220000000 1.0
C      1  0.5633740000000  0.5043710000000  0.5974320000000 1.0
C      1  0.5515830000000  0.5323710000000  0.5224810000000 1.0
C      1  0.4623190000000  0.5302550000000  0.5477210000000 1.0
C      1  0.5514840000000  0.4090270000000  0.4467470000000 1.0
C      1  0.5615320000000  0.5001150000000  0.5411140000000 1.0
C      1  0.4623880000000  0.4768930000000  0.5607150000000 1.0
C      1  0.5095560000000  0.4872180000000  0.4432730000000 1.0
C      1  0.4312160000000  0.4064900000000  0.5155950000000 1.0
C      1  0.4570210000000  0.5382410000000  0.4166790000000 1.0
C      1  0.4435010000000  0.4967500000000  0.4647500000000 1.0
C      1  0.4279180000000  0.4100180000000  0.4478510000000 1.0
C      1  0.5069500000000  0.4006060000000  0.5012560000000 1.0
C      1  0.4897850000000  0.4784900000000  0.5719760000000 1.0
C      1  0.5473320000000  0.5142000000000  0.4584830000000 1.0
C      1  0.4264020000000  0.4474530000000  0.5405000000000 1.0
C      1  0.5174130000000  0.4447770000000  0.5923960000000 1.0
C      1  0.5057820000000  0.4657960000000  0.4970420000000 1.0
C      1  0.5387250000000  0.4636290000000  0.5960880000000 1.0
C      1  0.4467180000000  0.4579950000000  0.4912040000000 1.0
C      1  0.5640100000000  0.5736680000000  0.5453520000000 1.0
C      1  0.5685210000000  0.4389680000000  0.5639330000000 1.0
C      1  0.5621310000000  0.4358610000000  0.4414480000000 1.0
C      1  0.4384640000000  0.5511820000000  0.5777620000000 1.0
C      1  0.4353540000000  0.5829310000000  0.5361550000000 1.0
C      1  0.4124130000000  0.5267140000000  0.4701740000000 1.0
C      1  0.5657520000000  0.5618960000000  0.5174470000000 1.0
C      1  0.4323560000000  0.4930370000000  0.4169850000000 1.0
C      1  0.5192070000000  0.4959500000000  0.5295460000000 1.0
C      1  0.5393290000000  0.5517640000000  0.4572910000000 1.0
C      1  0.4475810000000  0.4777600000000  0.5130680000000 1.0
C      1  0.4869070000000  0.4991730000000  0.6110440000000 1.0
C      1  0.5482130000000  0.5569720000000  0.4277360000000 1.0
C      1  0.5525450000000  0.4503030000000  0.4170280000000 1.0
C      1  0.4661850000000  0.5174840000000  0.5985480000000 1.0
C      1  0.5678680000000  0.5254480000000  0.3956030000000 1.0
C      1  0.5603400000000  0.4631630000000  0.5776630000000 1.0
C      1  0.6134710000000  0.4777300000000  0.4768830000000 1.0
C      1  0.4499850000000  0.5676320000000  0.4952590000000 1.0
C      1  0.5403770000000  0.6058370000000  0.5106210000000 1.0
C      1  0.4216050000000  0.4940580000000  0.5159940000000 1.0
C      1  0.4277470000000  0.4172620000000  0.5433270000000 1.0
C      1  0.5540770000000  0.4050020000000  0.4766270000000 1.0
C      1  0.4712870000000  0.4968320000000  0.5090710000000 1.0
C      1  0.5340740000000  0.5758100000000  0.5471480000000 1.0
C      1  0.5056290000000  0.6047200000000  0.4457260000000 1.0
C      1  0.4397060000000  0.4289900000000  0.4320270000000 1.0
C      1  0.4250980000000  0.5789150000000  0.5084070000000 1.0
C      1  0.4880910000000  0.5274690000000  0.4653170000000 1.0
C      1  0.6006920000000  0.4824890000000  0.5190920000000 1.0
C      1  0.5090580000000  0.4470470000000  0.5310640000000 1.0
C      1  0.4460740000000  0.5551910000000  0.4656310000000 1.0
C      1  0.5220890000000  0.5965330000000  0.5302600000000 1.0
C      1  0.5273280000000  0.5441800000000  0.5417970000000 1.0
C      1  0.5006050000000  0.4122030000000  0.5563740000000 1.0
C      1  0.5075330000000  0.6116770000000  0.5510140000000 1.0
C      1  0.5949550000000  0.4991140000000  0.4239090000000 1.0
C      1  0.4170030000000  0.4687350000000  0.5616130000000 1.0
C      1  0.5284080000000  0.5081620000000  0.4828200000000 1.0
C      1  0.3915610000000  0.5365220000000  0.5083960000000 1.0
C      1  0.5343640000000  0.4912230000000  0.5548390000000 1.0
C      1  0.5767660000000  0.4453220000000  0.4660690000000 1.0
C      1  0.5214170000000  0.4096550000000  0.4470740000000 1.0
C      1  0.4129320000000  0.4842750000000  0.4600130000000 1.0
C      1  0.4629550000000  0.5939390000000  0.5359190000000 1.0
C      1  0.4455630000000  0.5640240000000  0.4223370000000 1.0
C      1  0.5242530000000  0.5522120000000  0.4095820000000 1.0
C      1  0.5748440000000  0.4988100000000  0.4033550000000 1.0
C      1  0.4782550000000  0.4263490000000  0.4738950000000 1.0
C      1  0.5565920000000  0.4667800000000  0.4728250000000 1.0
C      1  0.4578940000000  0.3958750000000  0.5120420000000 1.0
C      1  0.5266450000000  0.4400960000000  0.4075820000000 1.0
C      1  0.4919160000000  0.5812760000000  0.4336600000000 1.0
C      1  0.5982460000000  0.5325660000000  0.5249720000000 1.0
C      1  0.5861350000000  0.5229470000000  0.4390830000000 1.0
C      1  0.5735560000000  0.4735830000000  0.5266070000000 1.0
C      1  0.5121280000000  0.5327480000000  0.4295080000000 1.0
C      1  0.5502000000000  0.5813090000000  0.4989910000000 1.0
C      1  0.4394800000000  0.5055000000000  0.5955710000000 1.0
C      1  0.5148470000000  0.4580240000000  0.3895300000000 1.0
C      1  0.4789610000000  0.6118310000000  0.5522250000000 1.0
C      1  0.5147460000000  0.5070630000000  0.6098910000000 1.0
C      1  0.4821920000000  0.4445480000000  0.4502290000000 1.0
C      1  0.5186550000000  0.5061110000000  0.3950220000000 1.0
C      1  0.6160210000000  0.4661430000000  0.5022450000000 1.0
C      1  0.5247630000000  0.5863610000000  0.5735810000000 1.0
C      1  0.4015760000000  0.5630610000000  0.5061310000000 1.0
C      1  0.4831200000000  0.5364990000000  0.4042060000000 1.0
C      1  0.6012290000000  0.4737930000000  0.4341620000000 1.0
C      1  0.4407610000000  0.4765540000000  0.5842580000000 1.0
C      1  0.5213860000000  0.4232530000000  0.5735150000000 1.0
C      1  0.5387590000000  0.4911770000000  0.6063770000000 1.0
C      1  0.4770320000000  0.4460440000000  0.5224680000000 1.0
C      1  0.4326870000000  0.5553360000000  0.5480390000000 1.0
C      1  0.4653920000000  0.5934370000000  0.4709030000000 1.0
C      1  0.4864560000000  0.5747580000000  0.5429900000000 1.0
C      1  0.4017200000000  0.4554900000000  0.4285260000000 1.0
C      1  0.4500250000000  0.5025020000000  0.5491550000000 1.0
C      1  0.5951640000000  0.5022950000000  0.4783850000000 1.0
C      1  0.6013230000000  0.5281620000000  0.4640220000000 1.0
C      1  0.5327800000000  0.6008690000000  0.4569370000000 1.0
C      1  0.4213730000000  0.5270120000000  0.5846480000000 1.0
C      1  0.4590210000000  0.5221380000000  0.4978570000000 1.0
C      1  0.4568070000000  0.4784720000000  0.4268040000000 1.0
C      1  0.4019870000000  0.4483440000000  0.4559810000000 1.0
C      1  0.4489880000000  0.4092340000000  0.5593020000000 1.0
C      1  0.5298580000000  0.5066680000000  0.4321290000000 1.0
C      1  0.4896730000000  0.6121290000000  0.4706390000000 1.0
C      1  0.5896040000000  0.5335940000000  0.5546060000000 1.0
C      1  0.5083390000000  0.5376360000000  0.5192090000000 1.0
C      1  0.4054800000000  0.5189790000000  0.5603130000000 1.0
C      1  0.4938420000000  0.5201030000000  0.5568670000000 1.0
C      1  0.3895050000000  0.4905320000000  0.4812190000000 1.0
C      1  0.4582040000000  0.4500760000000  0.5453460000000 1.0
C      1  0.5389920000000  0.4430560000000  0.5146080000000 1.0
C      1  0.5777810000000  0.4439000000000  0.5365790000000 1.0
C      1  0.5456410000000  0.5784090000000  0.4702620000000 1.0
C      1  0.5231790000000  0.4162400000000  0.4799760000000 1.0
C      1  0.4628550000000  0.4722650000000  0.4698270000000 1.0
C      1  0.5538760000000  0.4785950000000  0.4080090000000 1.0
C      1  0.4292470000000  0.5169520000000  0.4956820000000 1.0
C      1  0.4910570000000  0.4996390000000  0.5331890000000 1.0
C      1  0.5102260000000  0.5970230000000  0.4882610000000 1.0
C      1  0.5295970000000  0.5321880000000  0.4993530000000 1.0
C      1  0.4132770000000  0.4506690000000  0.5111770000000 1.0
C      1  0.5937480000000  0.5563720000000  0.5080960000000 1.0
C      1  0.5947770000000  0.5082740000000  0.5082140000000 1.0
C      1  0.4893710000000  0.5562900000000  0.5702500000000 1.0
C      1  0.5171110000000  0.4472780000000  0.4769720000000 1.0
C      1  0.4207710000000  0.4965240000000  0.5476010000000 1.0
C      1  0.4628330000000  0.5812500000000  0.4416410000000 1.0
C      1  0.5373700000000  0.5412120000000  0.5791340000000 1.0
C      1  0.5699430000000  0.5528940000000  0.5644610000000 1.0
C      1  0.5619990000000  0.4253210000000  0.5185600000000 1.0
C      1  0.4172790000000  0.5530250000000  0.4585650000000 1.0
C      1  0.4187560000000  0.4249360000000  0.4958660000000 1.0
C      1  0.5456950000000  0.4048760000000  0.5355770000000 1.0
C      1  0.5050920000000  0.5519330000000  0.4626780000000 1.0
C      1  0.5311290000000  0.4810330000000  0.3907900000000 1.0
C      1  0.4844530000000  0.4897010000000  0.4233110000000 1.0
C      1  0.4064760000000  0.5419170000000  0.5426780000000 1.0
C      1  0.4888570000000  0.5584500000000  0.5153110000000 1.0
C      1  0.3868090000000  0.5213750000000  0.4832920000000 1.0
C      1  0.4588680000000  0.4494020000000  0.4325960000000 1.0
C      1  0.4737040000000  0.4202730000000  0.5641210000000 1.0
C      1  0.5019220000000  0.5024940000000  0.4690310000000 1.0
C      1  0.5481130000000  0.4170530000000  0.5629420000000 1.0
C      1  0.5808370000000  0.5064240000000  0.5631090000000 1.0
C      1  0.4852890000000  0.4841940000000  0.4857730000000 1.0
C      1  0.5015180000000  0.5703910000000  0.4087150000000 1.0
C      1  0.3978480000000  0.4780900000000  0.5071260000000 1.0
C      1  0.4794280000000  0.3939790000000  0.4931870000000 1.0
C      1  0.5142520000000  0.4641200000000  0.5592980000000 1.0
C      1  0.5742250000000  0.4224700000000  0.4887800000000 1.0
C      1  0.4906280000000  0.5078540000000  0.4004560000000 1.0
C      1  0.4331490000000  0.5221770000000  0.4148560000000 1.0
END
