TITL C-951338-5626-401 0.410947024311597 125000 -87.2632455198294 0 0 17 (C1) n - 1
REM
REM in /home/bkarasulu/work/CARBON/AIRSS/Generating-Clusters/EDIP-Nigel-Params/with-SteepDescent/Only-C1/SD-CG/HFTN-CG
REM
REM
REM
REM
REM
REM ./C.cell (11c1c37f851c82e70ff6c80c92926a4b)
REM
REM compiler GCC version 9.2.1 20190827 (Red Hat 9.2.1-1)
REM options -cpp -mtune=generic -march=x86-64 -g -O0 -fpre-include=/usr/include/finclude/math-vector-fortran.h
REM seed -803349228 -420829770 -1473600300 -1110821908 -1442223692 634693530 1063787289 -359273616 1948945493 1481551330 48191855 1846011207 1515965265 1287143153 -843875816 -270084572 -1898244182 -1971996452 -1598122612 119717679 1887453923 1131835884 361671352 -235957376 1983065033 -363644219 -370802224 518054935 -205796744 -157166672 -1543452708 1935316817 -1438046167
REM
CELL 1.54180   50.00000   50.00000   50.00000   90.00000   90.00000   90.00000
LATT -1
SFAC C  
C      1  0.5175440000000  0.4481710000000  0.5109950000000 1.0
C      1  0.4550380000000  0.4946340000000  0.4894820000000 1.0
C      1  0.4529900000000  0.4773640000000  0.4688920000000 1.0
C      1  0.5038610000000  0.4841660000000  0.5156450000000 1.0
C      1  0.5378210000000  0.5336230000000  0.4909780000000 1.0
C      1  0.5484600000000  0.5088680000000  0.4834040000000 1.0
C      1  0.5452700000000  0.4962750000000  0.5230310000000 1.0
C      1  0.5011520000000  0.4593760000000  0.5304330000000 1.0
C      1  0.5280650000000  0.4657970000000  0.4914350000000 1.0
C      1  0.5290320000000  0.5189610000000  0.5251760000000 1.0
C      1  0.5485470000000  0.4846870000000  0.4976430000000 1.0
C      1  0.4495670000000  0.5226600000000  0.4807090000000 1.0
C      1  0.4590750000000  0.5447370000000  0.4958060000000 1.0
C      1  0.4706760000000  0.5395920000000  0.4721380000000 1.0
C      1  0.5374020000000  0.5439260000000  0.5166370000000 1.0
C      1  0.4352180000000  0.4852460000000  0.5051490000000 1.0
C      1  0.4802820000000  0.4919170000000  0.5024460000000 1.0
END
