TITL C-950523-3027-592 -8.57647470756939e-07 125000 -1035.4072483122 0 0 166 (C1) n - 1
REM
REM in /home/bkarasulu/work/CARBON/AIRSS/Generating-Clusters/EDIP-Nigel-Params/with-SteepDescent/Only-C1/SD-CG/HFTN-CG
REM
REM
REM
REM
REM
REM ./C.cell (11c1c37f851c82e70ff6c80c92926a4b)
REM
REM compiler GCC version 9.2.1 20190827 (Red Hat 9.2.1-1)
REM options -cpp -mtune=generic -march=x86-64 -g -O0 -fpre-include=/usr/include/finclude/math-vector-fortran.h
REM seed -798098931 680625751 1351583902 1281565265 1725234420 -498274630 -1650422051 1506308518 -870397138 -1806301283 1159028533 -1165501084 1049518277 -2090101117 684225842 1429394689 2127909651 -1270496777 492871670 592564766 1964098909 1927652093 -497399883 -772593113 956424203 -1780944450 -1227607197 1565256162 -2072880623 -856528278 -1109526240 -539079801 -446685582
REM
CELL 1.54180   50.00000   50.00000   50.00000   90.00000   90.00000   90.00000
LATT -1
SFAC C  
C      1  0.4191090000000  0.4227940000000  0.5022730000000 1.0
C      1  0.4393240000000  0.4787690000000  0.5073860000000 1.0
C      1  0.4517900000000  0.5637500000000  0.5223070000000 1.0
C      1  0.4182750000000  0.4473330000000  0.5597700000000 1.0
C      1  0.4823730000000  0.4782130000000  0.5915350000000 1.0
C      1  0.5182780000000  0.5883620000000  0.5120120000000 1.0
C      1  0.5408070000000  0.4206780000000  0.4121880000000 1.0
C      1  0.5306040000000  0.5024250000000  0.4363160000000 1.0
C      1  0.4627330000000  0.4721860000000  0.4384860000000 1.0
C      1  0.5022250000000  0.5139540000000  0.3983030000000 1.0
C      1  0.4841110000000  0.4342560000000  0.5426310000000 1.0
C      1  0.5540080000000  0.5302530000000  0.4044260000000 1.0
C      1  0.4243080000000  0.4913140000000  0.5562130000000 1.0
C      1  0.5585190000000  0.5114090000000  0.5762280000000 1.0
C      1  0.4372580000000  0.5378180000000  0.4912880000000 1.0
C      1  0.4359480000000  0.5693670000000  0.5496770000000 1.0
C      1  0.5299580000000  0.4067630000000  0.5083820000000 1.0
C      1  0.4820510000000  0.5616140000000  0.4254190000000 1.0
C      1  0.5692170000000  0.5357130000000  0.4290490000000 1.0
C      1  0.4640640000000  0.5545580000000  0.4715830000000 1.0
C      1  0.5568990000000  0.4819730000000  0.5853550000000 1.0
C      1  0.5660520000000  0.4944180000000  0.5282650000000 1.0
C      1  0.5296660000000  0.4714820000000  0.5934230000000 1.0
C      1  0.4512090000000  0.4998920000000  0.5948400000000 1.0
C      1  0.5527220000000  0.5006240000000  0.4044780000000 1.0
C      1  0.5298390000000  0.5169530000000  0.5679720000000 1.0
C      1  0.5187670000000  0.4743470000000  0.4460280000000 1.0
C      1  0.4604800000000  0.6072440000000  0.4983210000000 1.0
C      1  0.4051130000000  0.5563260000000  0.4804220000000 1.0
C      1  0.5384150000000  0.4015390000000  0.5350570000000 1.0
C      1  0.5789250000000  0.5611230000000  0.4703460000000 1.0
C      1  0.5425530000000  0.5694770000000  0.5077220000000 1.0
C      1  0.5091720000000  0.4894470000000  0.6039740000000 1.0
C      1  0.4560110000000  0.3979880000000  0.5187060000000 1.0
C      1  0.5474700000000  0.5651520000000  0.4758880000000 1.0
C      1  0.5955950000000  0.5450130000000  0.5152550000000 1.0
C      1  0.5209310000000  0.4630180000000  0.4035000000000 1.0
C      1  0.4706290000000  0.5866760000000  0.5174090000000 1.0
C      1  0.5162200000000  0.4472330000000  0.5833760000000 1.0
C      1  0.5464820000000  0.4482420000000  0.4101270000000 1.0
C      1  0.4724660000000  0.4473240000000  0.4262160000000 1.0
C      1  0.5095270000000  0.5219890000000  0.4273600000000 1.0
C      1  0.4223430000000  0.4994850000000  0.4311030000000 1.0
C      1  0.4772190000000  0.4985620000000  0.4302010000000 1.0
C      1  0.4159240000000  0.5786630000000  0.5267550000000 1.0
C      1  0.4582030000000  0.4901810000000  0.4866120000000 1.0
C      1  0.4990890000000  0.5053940000000  0.4773420000000 1.0
C      1  0.5131410000000  0.5164740000000  0.5929380000000 1.0
C      1  0.5686500000000  0.5835400000000  0.5156950000000 1.0
C      1  0.4835890000000  0.4055380000000  0.5314120000000 1.0
C      1  0.5204820000000  0.4925070000000  0.5512560000000 1.0
C      1  0.4874810000000  0.5216800000000  0.5829430000000 1.0
C      1  0.4356150000000  0.5743700000000  0.4375600000000 1.0
C      1  0.4714730000000  0.5071680000000  0.4021400000000 1.0
C      1  0.4772860000000  0.5307720000000  0.5067060000000 1.0
C      1  0.4626690000000  0.4354750000000  0.4870850000000 1.0
C      1  0.4177740000000  0.5099820000000  0.4592390000000 1.0
C      1  0.5768850000000  0.4344470000000  0.5430870000000 1.0
C      1  0.3958910000000  0.5112800000000  0.5285660000000 1.0
C      1  0.4403990000000  0.4331430000000  0.5462880000000 1.0
C      1  0.5514210000000  0.5204260000000  0.4506300000000 1.0
C      1  0.5323270000000  0.5985170000000  0.4665700000000 1.0
C      1  0.4603870000000  0.5852880000000  0.5634430000000 1.0
C      1  0.5974990000000  0.4545840000000  0.4698950000000 1.0
C      1  0.5712200000000  0.4881090000000  0.4271800000000 1.0
C      1  0.4617280000000  0.5199570000000  0.4437760000000 1.0
C      1  0.4141100000000  0.5140220000000  0.5050310000000 1.0
C      1  0.4191450000000  0.4387020000000  0.4787830000000 1.0
C      1  0.5642060000000  0.4638450000000  0.5642900000000 1.0
C      1  0.5297420000000  0.4239520000000  0.5718590000000 1.0
C      1  0.5148310000000  0.6080880000000  0.4882370000000 1.0
C      1  0.4448690000000  0.5297280000000  0.5895070000000 1.0
C      1  0.4331510000000  0.5366620000000  0.5612790000000 1.0
C      1  0.5203870000000  0.4719490000000  0.5074210000000 1.0
C      1  0.3852460000000  0.4843940000000  0.5309070000000 1.0
C      1  0.4320070000000  0.4130520000000  0.5259170000000 1.0
C      1  0.5894370000000  0.5695470000000  0.4993490000000 1.0
C      1  0.4786410000000  0.4024590000000  0.4503510000000 1.0
C      1  0.5000360000000  0.4780890000000  0.4685010000000 1.0
C      1  0.5476260000000  0.4745740000000  0.5421100000000 1.0
C      1  0.4900610000000  0.5499400000000  0.4894640000000 1.0
C      1  0.4183570000000  0.5767920000000  0.4971220000000 1.0
C      1  0.4840120000000  0.6130470000000  0.4788830000000 1.0
C      1  0.4408330000000  0.5227270000000  0.4213770000000 1.0
C      1  0.4073230000000  0.4709970000000  0.5436890000000 1.0
C      1  0.5000640000000  0.4054700000000  0.5041760000000 1.0
C      1  0.4347450000000  0.4749560000000  0.4332260000000 1.0
C      1  0.5386720000000  0.4345260000000  0.4661570000000 1.0
C      1  0.5299830000000  0.5662220000000  0.5725780000000 1.0
C      1  0.5874260000000  0.4819660000000  0.4755920000000 1.0
C      1  0.4733670000000  0.4818960000000  0.5409400000000 1.0
C      1  0.4715280000000  0.5433070000000  0.5914600000000 1.0
C      1  0.5938460000000  0.4380350000000  0.4949070000000 1.0
C      1  0.5723520000000  0.4175600000000  0.4579570000000 1.0
C      1  0.4941140000000  0.4313300000000  0.4889900000000 1.0
C      1  0.5690250000000  0.5738350000000  0.5436080000000 1.0
C      1  0.5896460000000  0.5313870000000  0.4679500000000 1.0
C      1  0.5627790000000  0.4601660000000  0.4336870000000 1.0
C      1  0.4779190000000  0.3900080000000  0.4767890000000 1.0
C      1  0.4248570000000  0.5486510000000  0.4328510000000 1.0
C      1  0.4529310000000  0.5236220000000  0.5441140000000 1.0
C      1  0.5439120000000  0.4628040000000  0.4573720000000 1.0
C      1  0.4700370000000  0.5419570000000  0.5310670000000 1.0
C      1  0.4706880000000  0.4682660000000  0.4683550000000 1.0
C      1  0.5269440000000  0.5431500000000  0.4102970000000 1.0
C      1  0.5234510000000  0.5442920000000  0.5524790000000 1.0
C      1  0.4774030000000  0.5439200000000  0.4471010000000 1.0
C      1  0.4937090000000  0.5560390000000  0.5474270000000 1.0
C      1  0.5373410000000  0.5440280000000  0.5249920000000 1.0
C      1  0.4980150000000  0.4549440000000  0.5060850000000 1.0
C      1  0.5211730000000  0.5833100000000  0.4451530000000 1.0
C      1  0.5574890000000  0.4795980000000  0.4839500000000 1.0
C      1  0.4083620000000  0.5183710000000  0.5559830000000 1.0
C      1  0.5309780000000  0.5199690000000  0.5084630000000 1.0
C      1  0.4097740000000  0.5391380000000  0.4566310000000 1.0
C      1  0.5737660000000  0.4179450000000  0.4873180000000 1.0
C      1  0.5070140000000  0.4089560000000  0.4454080000000 1.0
C      1  0.4912020000000  0.4891560000000  0.5627060000000 1.0
C      1  0.4942000000000  0.5732120000000  0.5063920000000 1.0
C      1  0.5788780000000  0.5449670000000  0.5399880000000 1.0
C      1  0.5136380000000  0.4979550000000  0.5210390000000 1.0
C      1  0.4063560000000  0.4953290000000  0.4829100000000 1.0
C      1  0.5663970000000  0.5641830000000  0.4359630000000 1.0
C      1  0.4824740000000  0.5028470000000  0.5027670000000 1.0
C      1  0.4819870000000  0.5662690000000  0.5742680000000 1.0
C      1  0.5492260000000  0.4250780000000  0.5487480000000 1.0
C      1  0.4287580000000  0.4551270000000  0.5851210000000 1.0
C      1  0.5888000000000  0.4510620000000  0.5215650000000 1.0
C      1  0.4375480000000  0.5946900000000  0.4832650000000 1.0
C      1  0.4770340000000  0.4567600000000  0.5263270000000 1.0
C      1  0.5941090000000  0.4820420000000  0.5241810000000 1.0
C      1  0.5862480000000  0.5020760000000  0.4518340000000 1.0
C      1  0.4842630000000  0.3999790000000  0.5695690000000 1.0
C      1  0.5100630000000  0.4310680000000  0.4635320000000 1.0
C      1  0.5481360000000  0.4593270000000  0.5071530000000 1.0
C      1  0.5242750000000  0.4912400000000  0.3945940000000 1.0
C      1  0.5989800000000  0.4991640000000  0.5490280000000 1.0
C      1  0.4460430000000  0.5138250000000  0.4701750000000 1.0
C      1  0.5817750000000  0.5210990000000  0.5587060000000 1.0
C      1  0.4935950000000  0.5841540000000  0.4379010000000 1.0
C      1  0.5126280000000  0.4012870000000  0.5631980000000 1.0
C      1  0.4869020000000  0.4471970000000  0.5884330000000 1.0
C      1  0.4605870000000  0.4262800000000  0.4439750000000 1.0
C      1  0.4341050000000  0.4305200000000  0.4554110000000 1.0
C      1  0.5377200000000  0.5667180000000  0.4286240000000 1.0
C      1  0.4575010000000  0.4046540000000  0.4900990000000 1.0
C      1  0.4518990000000  0.5815610000000  0.4606170000000 1.0
C      1  0.5346430000000  0.5407120000000  0.4647740000000 1.0
C      1  0.5095540000000  0.5912590000000  0.5434070000000 1.0
C      1  0.5840000000000  0.4416760000000  0.4464310000000 1.0
C      1  0.4750010000000  0.5990320000000  0.4540650000000 1.0
C      1  0.4110730000000  0.4663930000000  0.4838430000000 1.0
C      1  0.4714980000000  0.4283820000000  0.5689240000000 1.0
C      1  0.5068840000000  0.5774820000000  0.5850490000000 1.0
C      1  0.5135210000000  0.4196630000000  0.4191850000000 1.0
C      1  0.5449410000000  0.5841640000000  0.5570470000000 1.0
C      1  0.4477490000000  0.4953460000000  0.5361700000000 1.0
C      1  0.5026240000000  0.4474200000000  0.4232060000000 1.0
C      1  0.5555500000000  0.5049700000000  0.5020450000000 1.0
C      1  0.5952080000000  0.5232770000000  0.4953090000000 1.0
C      1  0.4511990000000  0.4503560000000  0.5134060000000 1.0
C      1  0.4315980000000  0.4827550000000  0.5830420000000 1.0
C      1  0.6019600000000  0.4948590000000  0.4984740000000 1.0
C      1  0.5467290000000  0.4291570000000  0.4952800000000 1.0
C      1  0.5159490000000  0.5293720000000  0.4837640000000 1.0
C      1  0.4788640000000  0.5981560000000  0.5434150000000 1.0
END
