TITL C-950527-2551-683 -4.88278742945041e-06 125000 -907.91685792088 0 0 146 (C1) n - 1
REM
REM in /home/bkarasulu/work/CARBON/AIRSS/Generating-Clusters/EDIP-Nigel-Params/with-SteepDescent/Only-C1/SD-CG/HFTN-CG
REM
REM
REM
REM
REM
REM ./C.cell (11c1c37f851c82e70ff6c80c92926a4b)
REM
REM compiler GCC version 9.2.1 20190827 (Red Hat 9.2.1-1)
REM options -cpp -mtune=generic -march=x86-64 -g -O0 -fpre-include=/usr/include/finclude/math-vector-fortran.h
REM seed 2112470735 646676429 -1077820541 -180575559 -1585290889 181177038 2126857118 -943824053 -1156631749 -497756539 -195087265 -1843938960 691029494 484453167 -878106972 1577612287 -1075742640 1872134596 -650869163 -857620736 1568126610 -1692421148 1488173546 287837834 1676156207 1342205629 -904854358 1397842483 -733968257 -861220173 -780108050 -1775410259 -458274015
REM
CELL 1.54180   50.00000   50.00000   50.00000   90.00000   90.00000   90.00000
LATT -1
SFAC C  
C      1  0.5593540000000  0.4775490000000  0.4237080000000 1.0
C      1  0.4888400000000  0.4224080000000  0.5523100000000 1.0
C      1  0.4975120000000  0.5708760000000  0.5220590000000 1.0
C      1  0.6116120000000  0.5146360000000  0.5025590000000 1.0
C      1  0.4069170000000  0.4557510000000  0.4423840000000 1.0
C      1  0.5777730000000  0.5465430000000  0.5131330000000 1.0
C      1  0.5598740000000  0.4267810000000  0.4804110000000 1.0
C      1  0.4805840000000  0.5055270000000  0.3946080000000 1.0
C      1  0.5818710000000  0.4424140000000  0.4738140000000 1.0
C      1  0.4993250000000  0.5608410000000  0.5936160000000 1.0
C      1  0.5239530000000  0.4963580000000  0.6138540000000 1.0
C      1  0.4946870000000  0.5316180000000  0.5991640000000 1.0
C      1  0.6000550000000  0.5387390000000  0.4944150000000 1.0
C      1  0.4661560000000  0.4899750000000  0.4720580000000 1.0
C      1  0.5101230000000  0.5521820000000  0.5450700000000 1.0
C      1  0.5469360000000  0.5522610000000  0.4487470000000 1.0
C      1  0.5571910000000  0.5085410000000  0.4600280000000 1.0
C      1  0.5611090000000  0.4816180000000  0.5857910000000 1.0
C      1  0.4391580000000  0.5374620000000  0.4348630000000 1.0
C      1  0.5528180000000  0.4773080000000  0.5207890000000 1.0
C      1  0.5089590000000  0.5408990000000  0.4160370000000 1.0
C      1  0.4349940000000  0.4681910000000  0.5779330000000 1.0
C      1  0.4926890000000  0.4478590000000  0.4810190000000 1.0
C      1  0.4922400000000  0.3965990000000  0.5371710000000 1.0
C      1  0.4743190000000  0.4873210000000  0.4994610000000 1.0
C      1  0.5154600000000  0.5958590000000  0.5222450000000 1.0
C      1  0.5338030000000  0.4493300000000  0.5585780000000 1.0
C      1  0.4815400000000  0.5154860000000  0.4600200000000 1.0
C      1  0.5246060000000  0.3982660000000  0.5437840000000 1.0
C      1  0.5417420000000  0.5614260000000  0.4771310000000 1.0
C      1  0.5013340000000  0.4707870000000  0.5530740000000 1.0
C      1  0.4842290000000  0.5006880000000  0.4329780000000 1.0
C      1  0.3938030000000  0.5351920000000  0.5114760000000 1.0
C      1  0.5312350000000  0.4092820000000  0.5162790000000 1.0
C      1  0.5571170000000  0.5067690000000  0.4137240000000 1.0
C      1  0.5722480000000  0.4864930000000  0.4984680000000 1.0
C      1  0.5039550000000  0.5591770000000  0.4397370000000 1.0
C      1  0.4607810000000  0.6007370000000  0.4598970000000 1.0
C      1  0.5271570000000  0.5163810000000  0.4102460000000 1.0
C      1  0.5905660000000  0.5132230000000  0.5604380000000 1.0
C      1  0.5494090000000  0.5267890000000  0.5497700000000 1.0
C      1  0.5724590000000  0.4685770000000  0.4740020000000 1.0
C      1  0.4638170000000  0.4317230000000  0.5636810000000 1.0
C      1  0.4174860000000  0.4407280000000  0.5028630000000 1.0
C      1  0.4556430000000  0.4923730000000  0.4215420000000 1.0
C      1  0.4615060000000  0.5475840000000  0.4171160000000 1.0
C      1  0.5020130000000  0.4756740000000  0.4356180000000 1.0
C      1  0.4400680000000  0.4233320000000  0.5086590000000 1.0
C      1  0.4833530000000  0.5335650000000  0.4036020000000 1.0
C      1  0.5535190000000  0.5866400000000  0.4899210000000 1.0
C      1  0.4791770000000  0.4471960000000  0.4213300000000 1.0
C      1  0.4327710000000  0.4970220000000  0.5685840000000 1.0
C      1  0.5273620000000  0.4388230000000  0.4380250000000 1.0
C      1  0.4727660000000  0.4021720000000  0.4773390000000 1.0
C      1  0.4897300000000  0.4315970000000  0.5063370000000 1.0
C      1  0.4386840000000  0.4295320000000  0.5476110000000 1.0
C      1  0.5849960000000  0.4674860000000  0.5490420000000 1.0
C      1  0.4759920000000  0.5731910000000  0.5829850000000 1.0
C      1  0.4067740000000  0.5620510000000  0.5204210000000 1.0
C      1  0.5202420000000  0.4560340000000  0.4781410000000 1.0
C      1  0.4245600000000  0.5677940000000  0.4968370000000 1.0
C      1  0.4166270000000  0.4801990000000  0.4838500000000 1.0
C      1  0.5370480000000  0.5481610000000  0.5325680000000 1.0
C      1  0.4285220000000  0.5220940000000  0.4895720000000 1.0
C      1  0.5212660000000  0.5596000000000  0.5736210000000 1.0
C      1  0.4115910000000  0.4990190000000  0.5479650000000 1.0
C      1  0.4254930000000  0.4684690000000  0.5108610000000 1.0
C      1  0.4475580000000  0.4179020000000  0.4792270000000 1.0
C      1  0.5375550000000  0.4577400000000  0.4164530000000 1.0
C      1  0.4053790000000  0.4570440000000  0.4706590000000 1.0
C      1  0.5823750000000  0.4876260000000  0.5688670000000 1.0
C      1  0.5116910000000  0.5683150000000  0.4703160000000 1.0
C      1  0.5488740000000  0.5388210000000  0.4993900000000 1.0
C      1  0.4914020000000  0.4738760000000  0.5822290000000 1.0
C      1  0.5101540000000  0.4977730000000  0.5400430000000 1.0
C      1  0.5716490000000  0.4274250000000  0.5282570000000 1.0
C      1  0.4586650000000  0.5033000000000  0.5545030000000 1.0
C      1  0.4986550000000  0.4314560000000  0.4369820000000 1.0
C      1  0.5584990000000  0.4155240000000  0.5072910000000 1.0
C      1  0.4969800000000  0.5252540000000  0.5508010000000 1.0
C      1  0.4704350000000  0.4777680000000  0.5436810000000 1.0
C      1  0.5093800000000  0.4960750000000  0.3970420000000 1.0
C      1  0.4003910000000  0.5332640000000  0.4817870000000 1.0
C      1  0.5276070000000  0.6032090000000  0.4961700000000 1.0
C      1  0.4641520000000  0.4402890000000  0.5205650000000 1.0
C      1  0.5861820000000  0.5158620000000  0.4531270000000 1.0
C      1  0.4333520000000  0.5954220000000  0.4993590000000 1.0
C      1  0.4363260000000  0.4987540000000  0.4691930000000 1.0
C      1  0.4468750000000  0.5453650000000  0.4949230000000 1.0
C      1  0.5396580000000  0.4212130000000  0.4595710000000 1.0
C      1  0.4205040000000  0.4519230000000  0.5570290000000 1.0
C      1  0.4184200000000  0.5203580000000  0.5279520000000 1.0
C      1  0.5350400000000  0.5971650000000  0.5422710000000 1.0
C      1  0.5513570000000  0.5747020000000  0.5375880000000 1.0
C      1  0.5227160000000  0.4890060000000  0.4990880000000 1.0
C      1  0.5793480000000  0.5256150000000  0.4253840000000 1.0
C      1  0.5997940000000  0.4902120000000  0.5082470000000 1.0
C      1  0.5166900000000  0.4356080000000  0.5205300000000 1.0
C      1  0.4768480000000  0.5264390000000  0.5746910000000 1.0
C      1  0.4736640000000  0.4593320000000  0.4604080000000 1.0
C      1  0.4951510000000  0.5549330000000  0.4912600000000 1.0
C      1  0.5237810000000  0.4780620000000  0.4584810000000 1.0
C      1  0.5059090000000  0.5283290000000  0.4950260000000 1.0
C      1  0.4247330000000  0.5598880000000  0.4477590000000 1.0
C      1  0.5197660000000  0.5172330000000  0.5949910000000 1.0
C      1  0.5161230000000  0.3934030000000  0.4955020000000 1.0
C      1  0.6047940000000  0.4732280000000  0.5298430000000 1.0
C      1  0.5158250000000  0.4732430000000  0.5995480000000 1.0
C      1  0.4598980000000  0.5716450000000  0.4550350000000 1.0
C      1  0.5347700000000  0.5247650000000  0.4474720000000 1.0
C      1  0.4351880000000  0.5079670000000  0.4388280000000 1.0
C      1  0.5191040000000  0.4014120000000  0.4671610000000 1.0
C      1  0.5698640000000  0.5772490000000  0.5145000000000 1.0
C      1  0.5538660000000  0.4801200000000  0.4529360000000 1.0
C      1  0.4621780000000  0.5247570000000  0.5303480000000 1.0
C      1  0.4639690000000  0.4559770000000  0.5816820000000 1.0
C      1  0.5176460000000  0.4226120000000  0.5625430000000 1.0
C      1  0.4331060000000  0.4460520000000  0.4382190000000 1.0
C      1  0.4776120000000  0.6019130000000  0.4822010000000 1.0
C      1  0.4585650000000  0.4697680000000  0.5174290000000 1.0
C      1  0.4867670000000  0.5110820000000  0.5117620000000 1.0
C      1  0.5727230000000  0.5535380000000  0.4360260000000 1.0
C      1  0.4240450000000  0.5485500000000  0.5408880000000 1.0
C      1  0.5070530000000  0.5972460000000  0.4752430000000 1.0
C      1  0.4473340000000  0.4441840000000  0.4637430000000 1.0
C      1  0.5510080000000  0.5091460000000  0.4897800000000 1.0
C      1  0.4927800000000  0.4077490000000  0.4548620000000 1.0
C      1  0.5934910000000  0.5404370000000  0.4661540000000 1.0
C      1  0.4099600000000  0.4717660000000  0.5366840000000 1.0
C      1  0.4528390000000  0.4611760000000  0.4214270000000 1.0
C      1  0.5382600000000  0.5346690000000  0.5787030000000 1.0
C      1  0.5387760000000  0.4645960000000  0.5840910000000 1.0
C      1  0.5107450000000  0.5156030000000  0.4686260000000 1.0
C      1  0.4768900000000  0.5675980000000  0.4317910000000 1.0
C      1  0.4541790000000  0.5535330000000  0.5418070000000 1.0
C      1  0.4881970000000  0.3995590000000  0.5044010000000 1.0
C      1  0.4076960000000  0.5607690000000  0.4715740000000 1.0
C      1  0.5782880000000  0.5318500000000  0.5432510000000 1.0
C      1  0.5353860000000  0.4533020000000  0.5054910000000 1.0
C      1  0.4691080000000  0.5485080000000  0.4756460000000 1.0
C      1  0.4606210000000  0.5925960000000  0.5047040000000 1.0
C      1  0.4625600000000  0.5520920000000  0.5704890000000 1.0
C      1  0.5163370000000  0.4685920000000  0.3999860000000 1.0
C      1  0.5393110000000  0.5001330000000  0.5378930000000 1.0
C      1  0.5647030000000  0.4457380000000  0.5479650000000 1.0
C      1  0.4694210000000  0.5770100000000  0.5276850000000 1.0
END
