TITL C-951334-9093-628 -5.97855495681884e-06 125000 -890.306503027788 0 0 144 (C1) n - 1
REM
REM in /home/bkarasulu/work/CARBON/AIRSS/Generating-Clusters/EDIP-Nigel-Params/with-SteepDescent/Only-C1/SD-CG/HFTN-CG
REM
REM
REM
REM
REM
REM ./C.cell (11c1c37f851c82e70ff6c80c92926a4b)
REM
REM compiler GCC version 9.2.1 20190827 (Red Hat 9.2.1-1)
REM options -cpp -mtune=generic -march=x86-64 -g -O0 -fpre-include=/usr/include/finclude/math-vector-fortran.h
REM seed 526986370 1302530427 1140227698 1041149283 2139858532 767108508 1023582606 -55738691 1638707997 -11988000 -1317203841 2027174048 438626541 -2121513473 -158768492 581961433 344931655 1693388730 -1949568294 -1885798882 -2003049810 1031323368 1019307813 115400921 379766212 -3283530 -928530616 -246804905 -116406928 1717219079 -2136983736 21187914 -352453312
REM
CELL 1.54180   50.00000   50.00000   50.00000   90.00000   90.00000   90.00000
LATT -1
SFAC C  
C      1  0.4215500000000  0.5582000000000  0.5301880000000 1.0
C      1  0.4075090000000  0.5140310000000  0.5486140000000 1.0
C      1  0.4517270000000  0.4975540000000  0.4054230000000 1.0
C      1  0.5036430000000  0.4048160000000  0.5495220000000 1.0
C      1  0.5659920000000  0.5757590000000  0.4718170000000 1.0
C      1  0.5084900000000  0.5441810000000  0.5310610000000 1.0
C      1  0.4292400000000  0.5315490000000  0.4362270000000 1.0
C      1  0.5506950000000  0.4841470000000  0.4583400000000 1.0
C      1  0.5157970000000  0.5771320000000  0.5832780000000 1.0
C      1  0.4612680000000  0.5349400000000  0.5225580000000 1.0
C      1  0.4324200000000  0.4627720000000  0.5042900000000 1.0
C      1  0.5195990000000  0.4174640000000  0.4423240000000 1.0
C      1  0.4838970000000  0.5743930000000  0.4870920000000 1.0
C      1  0.5068610000000  0.6000070000000  0.5674190000000 1.0
C      1  0.5028240000000  0.5817660000000  0.4448710000000 1.0
C      1  0.4694110000000  0.4234730000000  0.5140890000000 1.0
C      1  0.5326040000000  0.4604080000000  0.4635680000000 1.0
C      1  0.4459400000000  0.4235410000000  0.5319090000000 1.0
C      1  0.5710630000000  0.5422560000000  0.5465080000000 1.0
C      1  0.4557360000000  0.5084870000000  0.5035300000000 1.0
C      1  0.4547350000000  0.5596430000000  0.5789580000000 1.0
C      1  0.5550630000000  0.5350740000000  0.4222650000000 1.0
C      1  0.5780110000000  0.4604680000000  0.4853200000000 1.0
C      1  0.4740550000000  0.4618050000000  0.5850840000000 1.0
C      1  0.5008710000000  0.5583890000000  0.4255740000000 1.0
C      1  0.4946220000000  0.4426930000000  0.5801070000000 1.0
C      1  0.4412170000000  0.4540670000000  0.4284880000000 1.0
C      1  0.5236650000000  0.5392130000000  0.4232040000000 1.0
C      1  0.5861770000000  0.5566400000000  0.4828340000000 1.0
C      1  0.5593770000000  0.5610020000000  0.4367790000000 1.0
C      1  0.4878010000000  0.4698390000000  0.4959450000000 1.0
C      1  0.5397740000000  0.5052730000000  0.5118810000000 1.0
C      1  0.5391760000000  0.5237080000000  0.5373720000000 1.0
C      1  0.4851710000000  0.5010280000000  0.5006010000000 1.0
C      1  0.4628390000000  0.5016700000000  0.4541180000000 1.0
C      1  0.5707850000000  0.4288790000000  0.4551150000000 1.0
C      1  0.4518230000000  0.5648600000000  0.5276710000000 1.0
C      1  0.4091060000000  0.5426810000000  0.5084370000000 1.0
C      1  0.4834870000000  0.4792890000000  0.4301920000000 1.0
C      1  0.4840530000000  0.4572470000000  0.5233950000000 1.0
C      1  0.4495350000000  0.5524790000000  0.4295450000000 1.0
C      1  0.4772840000000  0.5856210000000  0.4598100000000 1.0
C      1  0.5449230000000  0.5316480000000  0.4696600000000 1.0
C      1  0.4771410000000  0.4545580000000  0.4702900000000 1.0
C      1  0.4274170000000  0.4758800000000  0.4433360000000 1.0
C      1  0.5288890000000  0.4172160000000  0.5426570000000 1.0
C      1  0.4483970000000  0.4503220000000  0.5739400000000 1.0
C      1  0.5637970000000  0.4990510000000  0.4195930000000 1.0
C      1  0.5530620000000  0.4929290000000  0.5704800000000 1.0
C      1  0.6090630000000  0.5065680000000  0.5010810000000 1.0
C      1  0.4767240000000  0.5159550000000  0.4059160000000 1.0
C      1  0.4533150000000  0.5439560000000  0.4713320000000 1.0
C      1  0.5869210000000  0.4542240000000  0.4563360000000 1.0
C      1  0.4979790000000  0.4584270000000  0.4472200000000 1.0
C      1  0.4439490000000  0.5344470000000  0.5690200000000 1.0
C      1  0.5272800000000  0.5269170000000  0.4927390000000 1.0
C      1  0.5945180000000  0.5408410000000  0.5304840000000 1.0
C      1  0.4781760000000  0.5109430000000  0.5937580000000 1.0
C      1  0.4532970000000  0.4352350000000  0.4466590000000 1.0
C      1  0.5731770000000  0.4794830000000  0.5568730000000 1.0
C      1  0.5700610000000  0.4122380000000  0.4803840000000 1.0
C      1  0.4770340000000  0.5458690000000  0.4883640000000 1.0
C      1  0.4437080000000  0.4855940000000  0.5179280000000 1.0
C      1  0.3871290000000  0.4961550000000  0.5068920000000 1.0
C      1  0.5122950000000  0.4670680000000  0.5353730000000 1.0
C      1  0.4611710000000  0.4740170000000  0.5395470000000 1.0
C      1  0.5964780000000  0.4564070000000  0.5080840000000 1.0
C      1  0.4960940000000  0.5620950000000  0.5984400000000 1.0
C      1  0.5645340000000  0.4541210000000  0.5461500000000 1.0
C      1  0.5241940000000  0.5318580000000  0.5787510000000 1.0
C      1  0.4929000000000  0.3854190000000  0.5324140000000 1.0
C      1  0.5548220000000  0.5923980000000  0.4958750000000 1.0
C      1  0.4988420000000  0.5127890000000  0.5262940000000 1.0
C      1  0.5201530000000  0.4489060000000  0.4062650000000 1.0
C      1  0.5131880000000  0.5138380000000  0.4351810000000 1.0
C      1  0.3951540000000  0.4874090000000  0.4817160000000 1.0
C      1  0.5177380000000  0.4786710000000  0.5934440000000 1.0
C      1  0.5937520000000  0.4943040000000  0.5452070000000 1.0
C      1  0.5414620000000  0.4806570000000  0.4132570000000 1.0
C      1  0.4930410000000  0.5697080000000  0.5474600000000 1.0
C      1  0.4638380000000  0.5713100000000  0.5543720000000 1.0
C      1  0.4071400000000  0.5076830000000  0.4665010000000 1.0
C      1  0.5371780000000  0.4435490000000  0.5543560000000 1.0
C      1  0.4897230000000  0.4837830000000  0.5966490000000 1.0
C      1  0.5537610000000  0.5814170000000  0.5230720000000 1.0
C      1  0.4160210000000  0.4663480000000  0.4788710000000 1.0
C      1  0.4560090000000  0.4247810000000  0.5600230000000 1.0
C      1  0.4183830000000  0.5405010000000  0.5544750000000 1.0
C      1  0.5458000000000  0.4523560000000  0.4184850000000 1.0
C      1  0.5795350000000  0.4762470000000  0.4348920000000 1.0
C      1  0.5455620000000  0.4058350000000  0.5217280000000 1.0
C      1  0.4968560000000  0.5224780000000  0.4824860000000 1.0
C      1  0.5341450000000  0.3909390000000  0.4987840000000 1.0
C      1  0.6044530000000  0.5135560000000  0.5278020000000 1.0
C      1  0.5019790000000  0.5975060000000  0.5384850000000 1.0
C      1  0.5680260000000  0.4877990000000  0.4828910000000 1.0
C      1  0.5054200000000  0.4937300000000  0.5490810000000 1.0
C      1  0.4084500000000  0.5345060000000  0.4575340000000 1.0
C      1  0.5304820000000  0.5086230000000  0.5617990000000 1.0
C      1  0.5403450000000  0.4553030000000  0.4929250000000 1.0
C      1  0.4906990000000  0.5151610000000  0.4551700000000 1.0
C      1  0.5025580000000  0.4026150000000  0.4616800000000 1.0
C      1  0.4522650000000  0.4740070000000  0.4665990000000 1.0
C      1  0.5795270000000  0.4409160000000  0.5244980000000 1.0
C      1  0.4304380000000  0.5033210000000  0.4254690000000 1.0
C      1  0.4802830000000  0.6066180000000  0.5234070000000 1.0
C      1  0.4282230000000  0.4655610000000  0.5579420000000 1.0
C      1  0.5084080000000  0.4021900000000  0.4902700000000 1.0
C      1  0.4532340000000  0.4079020000000  0.4438970000000 1.0
C      1  0.4115040000000  0.5534440000000  0.4801320000000 1.0
C      1  0.5202240000000  0.4550810000000  0.5772900000000 1.0
C      1  0.4262560000000  0.4445090000000  0.5260590000000 1.0
C      1  0.5433040000000  0.4383550000000  0.4455700000000 1.0
C      1  0.5974670000000  0.5584920000000  0.5085060000000 1.0
C      1  0.5285240000000  0.5969330000000  0.4824600000000 1.0
C      1  0.5241940000000  0.5998820000000  0.4540070000000 1.0
C      1  0.5736390000000  0.5315810000000  0.4783270000000 1.0
C      1  0.5368780000000  0.5089450000000  0.4528310000000 1.0
C      1  0.4670830000000  0.5860430000000  0.5095310000000 1.0
C      1  0.5611790000000  0.4257070000000  0.5064320000000 1.0
C      1  0.4637410000000  0.5238150000000  0.5501360000000 1.0
C      1  0.5885340000000  0.5075990000000  0.4819600000000 1.0
C      1  0.5388320000000  0.5599850000000  0.4592710000000 1.0
C      1  0.4759740000000  0.5415550000000  0.4225400000000 1.0
C      1  0.4853770000000  0.4236750000000  0.5613540000000 1.0
C      1  0.4748090000000  0.4962490000000  0.5573810000000 1.0
C      1  0.4991190000000  0.5338500000000  0.5937320000000 1.0
C      1  0.4218880000000  0.4942340000000  0.5675350000000 1.0
C      1  0.5246540000000  0.5526110000000  0.5073400000000 1.0
C      1  0.5305870000000  0.5579900000000  0.5663820000000 1.0
C      1  0.4611090000000  0.4689690000000  0.4121470000000 1.0
C      1  0.4441600000000  0.5158400000000  0.4753380000000 1.0
C      1  0.4858560000000  0.3996940000000  0.5091350000000 1.0
C      1  0.5532250000000  0.5645170000000  0.5469600000000 1.0
C      1  0.5536220000000  0.3892850000000  0.4780580000000 1.0
C      1  0.5143310000000  0.5717790000000  0.4874180000000 1.0
C      1  0.4302200000000  0.5745320000000  0.4729580000000 1.0
C      1  0.4761370000000  0.3983740000000  0.4540020000000 1.0
C      1  0.3990870000000  0.5172780000000  0.5204730000000 1.0
C      1  0.5030170000000  0.4363560000000  0.4264880000000 1.0
C      1  0.4499230000000  0.5759440000000  0.4496720000000 1.0
C      1  0.5286180000000  0.4765430000000  0.5114000000000 1.0
C      1  0.5005880000000  0.4976090000000  0.4136280000000 1.0
C      1  0.4409340000000  0.5096390000000  0.5856860000000 1.0
END
