TITL C-951339-9237-548 1.41133067630401e-06 125000 -917.95804874475 0 0 146 (C1) n - 1
REM
REM in /home/bkarasulu/work/CARBON/AIRSS/Generating-Clusters/EDIP-Nigel-Params/with-SteepDescent/Only-C1/SD-CG/HFTN-CG
REM
REM
REM
REM
REM
REM ./C.cell (11c1c37f851c82e70ff6c80c92926a4b)
REM
REM compiler GCC version 9.2.1 20190827 (Red Hat 9.2.1-1)
REM options -cpp -mtune=generic -march=x86-64 -g -O0 -fpre-include=/usr/include/finclude/math-vector-fortran.h
REM seed 820331263 -211691974 138494272 953699968 177332595 550571836 -1924160053 -172714663 1212250642 -2037403306 -2086790876 1211851255 -941174409 699901517 -993378452 606495894 1834467497 -547114095 -1826807727 -1899826215 1282871639 13680446 1903806218 -541539002 1293660365 -927271923 2073252410 -747609975 -752219720 -518589579 552880105 -1615702745 -1788994719
REM
CELL 1.54180   50.00000   50.00000   50.00000   90.00000   90.00000   90.00000
LATT -1
SFAC C  
C      1  0.4931610000000  0.4621880000000  0.5050450000000 1.0
C      1  0.5030270000000  0.5092590000000  0.5268200000000 1.0
C      1  0.4694710000000  0.5883460000000  0.5386790000000 1.0
C      1  0.4107870000000  0.5010680000000  0.5431030000000 1.0
C      1  0.5209190000000  0.5591700000000  0.5571850000000 1.0
C      1  0.4214200000000  0.4743420000000  0.5514500000000 1.0
C      1  0.4784640000000  0.5182360000000  0.4562320000000 1.0
C      1  0.5237820000000  0.5859180000000  0.4908270000000 1.0
C      1  0.4713910000000  0.5662910000000  0.5575000000000 1.0
C      1  0.5245480000000  0.4567460000000  0.5472950000000 1.0
C      1  0.5347110000000  0.4448660000000  0.5235040000000 1.0
C      1  0.4938710000000  0.5968830000000  0.5249680000000 1.0
C      1  0.5877910000000  0.4776190000000  0.4575780000000 1.0
C      1  0.4824890000000  0.5663500000000  0.4545210000000 1.0
C      1  0.4687550000000  0.4534500000000  0.4094430000000 1.0
C      1  0.5598340000000  0.5354500000000  0.5709790000000 1.0
C      1  0.4589470000000  0.5300830000000  0.5837730000000 1.0
C      1  0.5406840000000  0.5924310000000  0.5162060000000 1.0
C      1  0.5649190000000  0.4160110000000  0.4954370000000 1.0
C      1  0.5354870000000  0.5206820000000  0.4904710000000 1.0
C      1  0.5526890000000  0.4074750000000  0.4700640000000 1.0
C      1  0.4892470000000  0.5360950000000  0.5882150000000 1.0
C      1  0.5265780000000  0.5386210000000  0.4692360000000 1.0
C      1  0.4108380000000  0.5248610000000  0.5585400000000 1.0
C      1  0.4565360000000  0.4242830000000  0.5455830000000 1.0
C      1  0.5687020000000  0.4402090000000  0.5704530000000 1.0
C      1  0.4549020000000  0.5425380000000  0.4921630000000 1.0
C      1  0.5932370000000  0.4626240000000  0.5298070000000 1.0
C      1  0.4781070000000  0.5263800000000  0.4075420000000 1.0
C      1  0.4765580000000  0.4489210000000  0.4832540000000 1.0
C      1  0.4144650000000  0.4916820000000  0.4931450000000 1.0
C      1  0.5066670000000  0.5278980000000  0.4145940000000 1.0
C      1  0.5443310000000  0.5310400000000  0.5166230000000 1.0
C      1  0.5489390000000  0.5780690000000  0.4479270000000 1.0
C      1  0.4977000000000  0.4908420000000  0.5020090000000 1.0
C      1  0.4608380000000  0.4475080000000  0.5605170000000 1.0
C      1  0.5737340000000  0.5499470000000  0.5481020000000 1.0
C      1  0.5456720000000  0.5012770000000  0.4014720000000 1.0
C      1  0.5316380000000  0.5304380000000  0.5619630000000 1.0
C      1  0.4579270000000  0.5153410000000  0.4781050000000 1.0
C      1  0.5347360000000  0.4370760000000  0.4306700000000 1.0
C      1  0.4640140000000  0.5266650000000  0.5400080000000 1.0
C      1  0.3975060000000  0.5292630000000  0.4759340000000 1.0
C      1  0.5313750000000  0.4248190000000  0.4582660000000 1.0
C      1  0.5484960000000  0.4037030000000  0.5467780000000 1.0
C      1  0.4819420000000  0.4447750000000  0.4363530000000 1.0
C      1  0.4206510000000  0.5098710000000  0.5160740000000 1.0
C      1  0.4270370000000  0.5473880000000  0.5518800000000 1.0
C      1  0.4489520000000  0.5890330000000  0.4901080000000 1.0
C      1  0.4521160000000  0.4639990000000  0.6008680000000 1.0
C      1  0.5104770000000  0.4546760000000  0.4257570000000 1.0
C      1  0.4304230000000  0.4478850000000  0.4655020000000 1.0
C      1  0.5784580000000  0.4412630000000  0.5417200000000 1.0
C      1  0.5191040000000  0.5539870000000  0.4206950000000 1.0
C      1  0.5410860000000  0.5658960000000  0.4744850000000 1.0
C      1  0.5164970000000  0.6075690000000  0.4706010000000 1.0
C      1  0.4347650000000  0.5630530000000  0.4839770000000 1.0
C      1  0.5202620000000  0.5926370000000  0.5377470000000 1.0
C      1  0.4730520000000  0.4992420000000  0.3953770000000 1.0
C      1  0.4418840000000  0.4170150000000  0.4974830000000 1.0
C      1  0.5544820000000  0.4797080000000  0.5058840000000 1.0
C      1  0.5144300000000  0.4840970000000  0.4361720000000 1.0
C      1  0.5014140000000  0.4736330000000  0.5997700000000 1.0
C      1  0.5382630000000  0.4916100000000  0.4537210000000 1.0
C      1  0.4973040000000  0.4576740000000  0.3967700000000 1.0
C      1  0.5162110000000  0.4440600000000  0.5006430000000 1.0
C      1  0.5867350000000  0.4594350000000  0.4806880000000 1.0
C      1  0.5954280000000  0.5279530000000  0.5074310000000 1.0
C      1  0.4097730000000  0.5347320000000  0.4508580000000 1.0
C      1  0.5222290000000  0.4932360000000  0.5919830000000 1.0
C      1  0.5667440000000  0.5278300000000  0.4352680000000 1.0
C      1  0.4772980000000  0.5879880000000  0.4785210000000 1.0
C      1  0.4719660000000  0.5506160000000  0.5168190000000 1.0
C      1  0.4476720000000  0.4442790000000  0.4882990000000 1.0
C      1  0.6034210000000  0.5015920000000  0.4966360000000 1.0
C      1  0.4242390000000  0.5674540000000  0.5299640000000 1.0
C      1  0.4584680000000  0.4057070000000  0.4640840000000 1.0
C      1  0.4907130000000  0.4904600000000  0.4528980000000 1.0
C      1  0.4787430000000  0.4080950000000  0.5431790000000 1.0
C      1  0.5741450000000  0.4994080000000  0.5447390000000 1.0
C      1  0.5245540000000  0.5953320000000  0.4445450000000 1.0
C      1  0.4513060000000  0.5063180000000  0.5221250000000 1.0
C      1  0.4680830000000  0.4982580000000  0.4990530000000 1.0
C      1  0.4303450000000  0.4879310000000  0.4211210000000 1.0
C      1  0.5603870000000  0.4457250000000  0.4872810000000 1.0
C      1  0.4559040000000  0.5570670000000  0.4396600000000 1.0
C      1  0.5868050000000  0.4769780000000  0.5051110000000 1.0
C      1  0.4236910000000  0.5093360000000  0.4420940000000 1.0
C      1  0.5693770000000  0.5072980000000  0.5729490000000 1.0
C      1  0.4483240000000  0.5540200000000  0.5700780000000 1.0
C      1  0.5569100000000  0.4538660000000  0.4282930000000 1.0
C      1  0.5479680000000  0.4850990000000  0.5355220000000 1.0
C      1  0.4573660000000  0.4807830000000  0.4124470000000 1.0
C      1  0.4887450000000  0.6136470000000  0.4707950000000 1.0
C      1  0.4289900000000  0.5586400000000  0.4543510000000 1.0
C      1  0.4988940000000  0.5376150000000  0.5168820000000 1.0
C      1  0.5317740000000  0.5115020000000  0.5359260000000 1.0
C      1  0.4942880000000  0.5783170000000  0.5016870000000 1.0
C      1  0.4217270000000  0.4545290000000  0.5278780000000 1.0
C      1  0.5234650000000  0.3918340000000  0.5419150000000 1.0
C      1  0.4023130000000  0.5329860000000  0.5034380000000 1.0
C      1  0.4743640000000  0.4838810000000  0.6045150000000 1.0
C      1  0.4486860000000  0.5052570000000  0.5660890000000 1.0
C      1  0.5509900000000  0.4873020000000  0.5856010000000 1.0
C      1  0.5850040000000  0.5273620000000  0.4598200000000 1.0
C      1  0.4950270000000  0.5606360000000  0.5724550000000 1.0
C      1  0.5374520000000  0.5225660000000  0.4455550000000 1.0
C      1  0.4806910000000  0.4155470000000  0.4467200000000 1.0
C      1  0.5049960000000  0.4103520000000  0.5517840000000 1.0
C      1  0.4739700000000  0.4656130000000  0.4570110000000 1.0
C      1  0.5637300000000  0.4796550000000  0.4394480000000 1.0
C      1  0.4699490000000  0.4431850000000  0.5871750000000 1.0
C      1  0.5036550000000  0.5761220000000  0.4338840000000 1.0
C      1  0.5630930000000  0.4622150000000  0.5869490000000 1.0
C      1  0.4996300000000  0.4866530000000  0.3895710000000 1.0
C      1  0.5484960000000  0.5565810000000  0.4269520000000 1.0
C      1  0.4724510000000  0.4833320000000  0.5676950000000 1.0
C      1  0.4936060000000  0.4147100000000  0.4891300000000 1.0
C      1  0.4098000000000  0.4638380000000  0.5012030000000 1.0
C      1  0.5095470000000  0.5162840000000  0.5775750000000 1.0
C      1  0.5747000000000  0.5264970000000  0.5291450000000 1.0
C      1  0.4913260000000  0.5050600000000  0.5555890000000 1.0
C      1  0.5222520000000  0.5545320000000  0.5254650000000 1.0
C      1  0.4959110000000  0.5411200000000  0.4661830000000 1.0
C      1  0.5841540000000  0.5425640000000  0.4849670000000 1.0
C      1  0.5179170000000  0.5006060000000  0.4095130000000 1.0
C      1  0.5463190000000  0.4207640000000  0.5716260000000 1.0
C      1  0.4348790000000  0.4270880000000  0.5267500000000 1.0
C      1  0.5673360000000  0.5017810000000  0.4189180000000 1.0
C      1  0.4313730000000  0.4737650000000  0.5802560000000 1.0
C      1  0.5182620000000  0.4342400000000  0.5662090000000 1.0
C      1  0.5617720000000  0.5717450000000  0.5198510000000 1.0
C      1  0.5000290000000  0.4458970000000  0.5896810000000 1.0
C      1  0.4618590000000  0.5289200000000  0.4321410000000 1.0
C      1  0.4335560000000  0.4977080000000  0.4685490000000 1.0
C      1  0.4119750000000  0.5603360000000  0.5043590000000 1.0
C      1  0.4048920000000  0.4486450000000  0.4771440000000 1.0
C      1  0.5646770000000  0.5624490000000  0.4923160000000 1.0
C      1  0.5574580000000  0.4250140000000  0.5263710000000 1.0
C      1  0.4461580000000  0.5861260000000  0.5208810000000 1.0
C      1  0.4435870000000  0.4715990000000  0.4534520000000 1.0
C      1  0.5328710000000  0.4921340000000  0.4861360000000 1.0
C      1  0.5322010000000  0.4489270000000  0.4760260000000 1.0
C      1  0.5049960000000  0.4102180000000  0.4624480000000 1.0
C      1  0.4674070000000  0.4002510000000  0.4918410000000 1.0
C      1  0.5995010000000  0.5030150000000  0.4669600000000 1.0
END
