TITL C-951333-8791-386 -4.07124368010942e-05 125000 -112.709119616545 0 0 20 (C1) n - 1
REM
REM in /home/bkarasulu/work/CARBON/AIRSS/Generating-Clusters/EDIP-Nigel-Params/with-SteepDescent/Only-C1/SD-CG/HFTN-CG
REM
REM
REM
REM
REM
REM ./C.cell (11c1c37f851c82e70ff6c80c92926a4b)
REM
REM compiler GCC version 9.2.1 20190827 (Red Hat 9.2.1-1)
REM options -cpp -mtune=generic -march=x86-64 -g -O0 -fpre-include=/usr/include/finclude/math-vector-fortran.h
REM seed 1681243432 294272866 410225257 -1419085425 1597337552 1060151504 477769504 849011474 2123108703 -1546083964 1115675974 912400054 -298307867 1762599755 2052615924 -970964296 1408265987 1791359714 -31233481 -1618133739 985533080 1714272612 -1177625803 545803946 -257854454 242445329 -13989895 168744132 940914566 1809322396 -961550917 669289433 1482747565
REM
CELL 1.54180   50.00000   50.00000   50.00000   90.00000   90.00000   90.00000
LATT -1
SFAC C  
C      1  0.5069500000000  0.5326250000000  0.5099750000000 1.0
C      1  0.5529320000000  0.4770710000000  0.4478610000000 1.0
C      1  0.5162320000000  0.4458490000000  0.4481120000000 1.0
C      1  0.4684790000000  0.5746920000000  0.5549590000000 1.0
C      1  0.4857350000000  0.4225550000000  0.4777700000000 1.0
C      1  0.4907290000000  0.5092110000000  0.5105920000000 1.0
C      1  0.4663160000000  0.4245510000000  0.4971520000000 1.0
C      1  0.5040870000000  0.4437250000000  0.4715210000000 1.0
C      1  0.5250250000000  0.5042680000000  0.4810110000000 1.0
C      1  0.4704800000000  0.5051660000000  0.5292960000000 1.0
C      1  0.5656450000000  0.5005290000000  0.4519840000000 1.0
C      1  0.5043600000000  0.4895810000000  0.4950190000000 1.0
C      1  0.4916760000000  0.4655920000000  0.4857590000000 1.0
C      1  0.4600350000000  0.5946270000000  0.5686200000000 1.0
C      1  0.4656000000000  0.5285890000000  0.5417690000000 1.0
C      1  0.4775340000000  0.5534830000000  0.5402080000000 1.0
C      1  0.5283150000000  0.5302340000000  0.4919570000000 1.0
C      1  0.5488650000000  0.4905440000000  0.4725910000000 1.0
C      1  0.4992370000000  0.5558340000000  0.5231260000000 1.0
C      1  0.4717670000000  0.4512750000000  0.5007180000000 1.0
END
