TITL C-950531-5884-499 3.32067500149114e-05 125000 -322.566950045872 0 0 54 (C1) n - 1
REM
REM in /home/bkarasulu/work/CARBON/AIRSS/Generating-Clusters/EDIP-Nigel-Params/with-SteepDescent/Only-C1/SD-CG/HFTN-CG
REM
REM
REM
REM
REM
REM ./C.cell (11c1c37f851c82e70ff6c80c92926a4b)
REM
REM compiler GCC version 9.2.1 20190827 (Red Hat 9.2.1-1)
REM options -cpp -mtune=generic -march=x86-64 -g -O0 -fpre-include=/usr/include/finclude/math-vector-fortran.h
REM seed 712778297 -832696259 1367850440 -1517096384 -948584411 -409214515 -879023163 -1348591238 -1099025182 607615832 -326115854 -1984018628 -505466264 -412178330 -1192751988 108274463 94591775 -213527571 -1624954799 -801730616 -2130069580 79687764 132323561 -1375955905 -1558582643 -1269995760 1579410173 -300681064 196449547 1106553768 -1395886988 897717792 -122382773
REM
CELL 1.54180   50.00000   50.00000   50.00000   90.00000   90.00000   90.00000
LATT -1
SFAC C  
C      1  0.4832100000000  0.4798600000000  0.4741060000000 1.0
C      1  0.4744250000000  0.5283310000000  0.4290120000000 1.0
C      1  0.5698340000000  0.4859970000000  0.4892830000000 1.0
C      1  0.4418820000000  0.5167600000000  0.4462380000000 1.0
C      1  0.5348630000000  0.5444050000000  0.5249200000000 1.0
C      1  0.4753840000000  0.5399720000000  0.4749760000000 1.0
C      1  0.4768000000000  0.4613820000000  0.4522070000000 1.0
C      1  0.5585290000000  0.5333050000000  0.4784610000000 1.0
C      1  0.5778570000000  0.4653730000000  0.4725130000000 1.0
C      1  0.5183550000000  0.5208670000000  0.4429570000000 1.0
C      1  0.4922960000000  0.5592070000000  0.4619000000000 1.0
C      1  0.5057020000000  0.4944880000000  0.4458710000000 1.0
C      1  0.4575290000000  0.4888430000000  0.4884060000000 1.0
C      1  0.4751030000000  0.4605930000000  0.5493550000000 1.0
C      1  0.4575130000000  0.5509090000000  0.4953290000000 1.0
C      1  0.5293920000000  0.5006410000000  0.5204530000000 1.0
C      1  0.4649540000000  0.4398660000000  0.4661030000000 1.0
C      1  0.5145150000000  0.4774040000000  0.5716980000000 1.0
C      1  0.4949100000000  0.4717400000000  0.4325300000000 1.0
C      1  0.5332150000000  0.4606870000000  0.5617540000000 1.0
C      1  0.5290030000000  0.5233340000000  0.5660410000000 1.0
C      1  0.5757830000000  0.5123180000000  0.4833090000000 1.0
C      1  0.4838550000000  0.4315640000000  0.5100390000000 1.0
C      1  0.4320670000000  0.5178490000000  0.5282510000000 1.0
C      1  0.4968780000000  0.5686010000000  0.5050970000000 1.0
C      1  0.5101460000000  0.5721930000000  0.4797920000000 1.0
C      1  0.4538480000000  0.5311540000000  0.5157260000000 1.0
C      1  0.5494290000000  0.5461510000000  0.5012270000000 1.0
C      1  0.4878730000000  0.4823230000000  0.5648840000000 1.0
C      1  0.4482930000000  0.4653640000000  0.5050330000000 1.0
C      1  0.4981170000000  0.4648840000000  0.4968360000000 1.0
C      1  0.4717140000000  0.5093290000000  0.5067360000000 1.0
C      1  0.5050590000000  0.5429670000000  0.5208700000000 1.0
C      1  0.4939110000000  0.4434270000000  0.5346390000000 1.0
C      1  0.5404560000000  0.5287690000000  0.4580330000000 1.0
C      1  0.5374600000000  0.4486280000000  0.4645630000000 1.0
C      1  0.5397520000000  0.4531960000000  0.5128280000000 1.0
C      1  0.4902510000000  0.5343000000000  0.5479290000000 1.0
C      1  0.5233590000000  0.4493530000000  0.4887650000000 1.0
C      1  0.5000750000000  0.4855470000000  0.5226040000000 1.0
C      1  0.5506790000000  0.4807500000000  0.5106780000000 1.0
C      1  0.4768180000000  0.5056030000000  0.5485990000000 1.0
C      1  0.4373800000000  0.4998870000000  0.4689100000000 1.0
C      1  0.4464270000000  0.4989650000000  0.5446820000000 1.0
C      1  0.5063000000000  0.5374460000000  0.5707510000000 1.0
C      1  0.5631890000000  0.4493460000000  0.4565560000000 1.0
C      1  0.5408550000000  0.5206640000000  0.5408210000000 1.0
C      1  0.4994440000000  0.5431100000000  0.4366940000000 1.0
C      1  0.4697030000000  0.5173210000000  0.4565670000000 1.0
C      1  0.4689930000000  0.5749150000000  0.5047310000000 1.0
C      1  0.4614840000000  0.4406510000000  0.4943920000000 1.0
C      1  0.5229360000000  0.4506720000000  0.5373740000000 1.0
C      1  0.4501120000000  0.4703320000000  0.5353530000000 1.0
C      1  0.5020800000000  0.5184580000000  0.5026190000000 1.0
END
