TITL C-951346-9544-192 -1.98748195453939e-06 125000 -684.292193856143 0 0 110 (C1) n - 1
REM
REM in /home/bkarasulu/work/CARBON/AIRSS/Generating-Clusters/EDIP-Nigel-Params/with-SteepDescent/Only-C1/SD-CG/HFTN-CG
REM
REM
REM
REM
REM
REM ./C.cell (11c1c37f851c82e70ff6c80c92926a4b)
REM
REM compiler GCC version 9.2.1 20190827 (Red Hat 9.2.1-1)
REM options -cpp -mtune=generic -march=x86-64 -g -O0 -fpre-include=/usr/include/finclude/math-vector-fortran.h
REM seed -472834209 1245790275 1970186894 -1357421170 -1981712152 -1748492717 -876758647 -1374942272 -1186710146 -966336965 -1621098366 1910960571 -776883765 1311798706 -1676525740 356356239 -73514570 872088957 1348551453 -776869265 -1104125901 -1894235297 432445075 -703084849 2001612594 -1040804496 1163176973 -2128365171 442835700 126479020 -38047832 563804624 1373119589
REM
CELL 1.54180   50.00000   50.00000   50.00000   90.00000   90.00000   90.00000
LATT -1
SFAC C  
C      1  0.5698730000000  0.4422510000000  0.4717360000000 1.0
C      1  0.5297560000000  0.4607550000000  0.5827860000000 1.0
C      1  0.5210930000000  0.4650140000000  0.4213880000000 1.0
C      1  0.5544030000000  0.5336380000000  0.4326610000000 1.0
C      1  0.5892050000000  0.5121530000000  0.4809280000000 1.0
C      1  0.5292490000000  0.5891120000000  0.4800560000000 1.0
C      1  0.4298650000000  0.4406900000000  0.5314660000000 1.0
C      1  0.4779040000000  0.5593740000000  0.4532170000000 1.0
C      1  0.4620880000000  0.4761240000000  0.5077990000000 1.0
C      1  0.4677270000000  0.5776180000000  0.5039020000000 1.0
C      1  0.4930070000000  0.4669230000000  0.4144850000000 1.0
C      1  0.5226070000000  0.5433030000000  0.5084020000000 1.0
C      1  0.4526110000000  0.4278180000000  0.4810080000000 1.0
C      1  0.5755630000000  0.5344020000000  0.4934680000000 1.0
C      1  0.4825240000000  0.4781670000000  0.4557120000000 1.0
C      1  0.5184520000000  0.4254950000000  0.4544270000000 1.0
C      1  0.5900820000000  0.4619690000000  0.4769030000000 1.0
C      1  0.5687770000000  0.5320520000000  0.5216420000000 1.0
C      1  0.4595220000000  0.4712570000000  0.4772250000000 1.0
C      1  0.4903350000000  0.5151440000000  0.5904900000000 1.0
C      1  0.5355030000000  0.4976400000000  0.5145710000000 1.0
C      1  0.4978180000000  0.5107830000000  0.4855420000000 1.0
C      1  0.4493760000000  0.4796690000000  0.4353880000000 1.0
C      1  0.4712000000000  0.4230030000000  0.4600170000000 1.0
C      1  0.5847930000000  0.4856850000000  0.4920430000000 1.0
C      1  0.4427910000000  0.5196810000000  0.5677500000000 1.0
C      1  0.5759720000000  0.5135560000000  0.4324800000000 1.0
C      1  0.4626450000000  0.5632720000000  0.5521180000000 1.0
C      1  0.4470780000000  0.4709590000000  0.5715270000000 1.0
C      1  0.4892470000000  0.4778230000000  0.5464670000000 1.0
C      1  0.4311930000000  0.5464460000000  0.5204690000000 1.0
C      1  0.4615180000000  0.4328300000000  0.4339980000000 1.0
C      1  0.4209520000000  0.5436930000000  0.4663160000000 1.0
C      1  0.4829820000000  0.5613340000000  0.4828490000000 1.0
C      1  0.5324000000000  0.5283990000000  0.4130760000000 1.0
C      1  0.4975920000000  0.4154450000000  0.4700830000000 1.0
C      1  0.5017140000000  0.5171440000000  0.5636670000000 1.0
C      1  0.4672150000000  0.4242250000000  0.5056150000000 1.0
C      1  0.5192530000000  0.4899200000000  0.5546800000000 1.0
C      1  0.5324830000000  0.4880800000000  0.4669670000000 1.0
C      1  0.4424300000000  0.5429820000000  0.5477480000000 1.0
C      1  0.5356750000000  0.4907120000000  0.4206430000000 1.0
C      1  0.4623490000000  0.5185930000000  0.5886370000000 1.0
C      1  0.5031420000000  0.5874480000000  0.5437410000000 1.0
C      1  0.4395370000000  0.4514640000000  0.4399890000000 1.0
C      1  0.4921390000000  0.5068820000000  0.4570220000000 1.0
C      1  0.5746810000000  0.4577900000000  0.5321410000000 1.0
C      1  0.5310410000000  0.4461660000000  0.4412130000000 1.0
C      1  0.5301840000000  0.4873990000000  0.5947430000000 1.0
C      1  0.5047860000000  0.4317630000000  0.5468260000000 1.0
C      1  0.4322930000000  0.4925560000000  0.5611140000000 1.0
C      1  0.4313080000000  0.4456720000000  0.4695740000000 1.0
C      1  0.5058650000000  0.5391310000000  0.4195940000000 1.0
C      1  0.5507020000000  0.5784940000000  0.5233900000000 1.0
C      1  0.4764280000000  0.5644540000000  0.5767180000000 1.0
C      1  0.4396000000000  0.5689170000000  0.5028930000000 1.0
C      1  0.5537180000000  0.5562910000000  0.4514920000000 1.0
C      1  0.4953390000000  0.5420930000000  0.5213470000000 1.0
C      1  0.5548590000000  0.5818830000000  0.4938500000000 1.0
C      1  0.4762930000000  0.4359450000000  0.5534690000000 1.0
C      1  0.4306470000000  0.4663440000000  0.5177010000000 1.0
C      1  0.5414090000000  0.4126700000000  0.5234770000000 1.0
C      1  0.5121840000000  0.4146030000000  0.5243410000000 1.0
C      1  0.5040770000000  0.5605010000000  0.4396280000000 1.0
C      1  0.5033950000000  0.5694900000000  0.5683090000000 1.0
C      1  0.4302080000000  0.4984820000000  0.4484440000000 1.0
C      1  0.5133350000000  0.5635380000000  0.4862370000000 1.0
C      1  0.4667000000000  0.5329630000000  0.4434150000000 1.0
C      1  0.4793040000000  0.5270690000000  0.5004180000000 1.0
C      1  0.5075720000000  0.4599140000000  0.4964920000000 1.0
C      1  0.5641890000000  0.4864720000000  0.4297040000000 1.0
C      1  0.4865880000000  0.4610670000000  0.5193670000000 1.0
C      1  0.4818940000000  0.5684640000000  0.5294230000000 1.0
C      1  0.4084120000000  0.5312700000000  0.5113560000000 1.0
C      1  0.5054820000000  0.4967580000000  0.6048550000000 1.0
C      1  0.4566840000000  0.4325680000000  0.5309590000000 1.0
C      1  0.5260610000000  0.5156730000000  0.4938200000000 1.0
C      1  0.5541770000000  0.4322570000000  0.4936690000000 1.0
C      1  0.5293500000000  0.5734920000000  0.4520180000000 1.0
C      1  0.4782100000000  0.4926450000000  0.4147850000000 1.0
C      1  0.4185070000000  0.4874400000000  0.5358430000000 1.0
C      1  0.4308570000000  0.5679040000000  0.4760680000000 1.0
C      1  0.5938690000000  0.5146340000000  0.4537910000000 1.0
C      1  0.4175370000000  0.4668230000000  0.4892980000000 1.0
C      1  0.4805160000000  0.5227190000000  0.4179830000000 1.0
C      1  0.5282050000000  0.4397210000000  0.5630160000000 1.0
C      1  0.5503320000000  0.5152950000000  0.5778660000000 1.0
C      1  0.5509990000000  0.4530950000000  0.5147610000000 1.0
C      1  0.4791710000000  0.4427910000000  0.4149030000000 1.0
C      1  0.5220360000000  0.5071680000000  0.4452530000000 1.0
C      1  0.4370440000000  0.5272760000000  0.4475480000000 1.0
C      1  0.5442740000000  0.5411310000000  0.5659770000000 1.0
C      1  0.5162960000000  0.5438130000000  0.5601170000000 1.0
C      1  0.5818290000000  0.4839660000000  0.5211240000000 1.0
C      1  0.5104580000000  0.4659550000000  0.4670360000000 1.0
C      1  0.5514460000000  0.4303420000000  0.5467760000000 1.0
C      1  0.4336200000000  0.4891100000000  0.4759230000000 1.0
C      1  0.5662040000000  0.5582000000000  0.4785570000000 1.0
C      1  0.4651050000000  0.5055080000000  0.5153250000000 1.0
C      1  0.5609020000000  0.5037190000000  0.5292560000000 1.0
C      1  0.4034330000000  0.5081050000000  0.5252440000000 1.0
C      1  0.4949530000000  0.4175670000000  0.5002440000000 1.0
C      1  0.5285490000000  0.5926410000000  0.5330130000000 1.0
C      1  0.4027240000000  0.5315810000000  0.4838880000000 1.0
C      1  0.5593540000000  0.4756090000000  0.4575150000000 1.0
C      1  0.4754730000000  0.5043460000000  0.5422410000000 1.0
C      1  0.4734150000000  0.4618240000000  0.5679370000000 1.0
C      1  0.5501980000000  0.4962150000000  0.5565280000000 1.0
C      1  0.5256300000000  0.4700690000000  0.5178060000000 1.0
C      1  0.5464530000000  0.5497060000000  0.5292790000000 1.0
END
