TITL C-951340-9809-44 -2.29748634378259e-06 125000 -691.463895307102 0 0 113 (C1) n - 1
REM
REM in /home/bkarasulu/work/CARBON/AIRSS/Generating-Clusters/EDIP-Nigel-Params/with-SteepDescent/Only-C1/SD-CG/HFTN-CG
REM
REM
REM
REM
REM
REM ./C.cell (11c1c37f851c82e70ff6c80c92926a4b)
REM
REM compiler GCC version 9.2.1 20190827 (Red Hat 9.2.1-1)
REM options -cpp -mtune=generic -march=x86-64 -g -O0 -fpre-include=/usr/include/finclude/math-vector-fortran.h
REM seed -943410044 1521448799 1712335725 -943059212 1322811982 -721457819 1474038365 1449680958 2109722763 -1182824719 -1839959846 909052351 -1845770515 -573607530 -1821963971 -1163184157 -126389449 -1646008815 762898287 2770065 684675369 305640974 1640346658 1845875032 -833139443 54399311 1426066662 -1051266758 1542292931 -1129794133 -994803582 1804303703 -1591959161
REM
CELL 1.54180   50.00000   50.00000   50.00000   90.00000   90.00000   90.00000
LATT -1
SFAC C  
C      1  0.4920230000000  0.5018710000000  0.3921500000000 1.0
C      1  0.5519850000000  0.5300290000000  0.5190820000000 1.0
C      1  0.5754300000000  0.5086460000000  0.5104100000000 1.0
C      1  0.4812210000000  0.4157580000000  0.4675700000000 1.0
C      1  0.5924420000000  0.5289570000000  0.4747920000000 1.0
C      1  0.4497710000000  0.5318990000000  0.5642640000000 1.0
C      1  0.5328850000000  0.4451620000000  0.4345850000000 1.0
C      1  0.4980810000000  0.4387890000000  0.4581740000000 1.0
C      1  0.4758490000000  0.5443610000000  0.5554610000000 1.0
C      1  0.4362480000000  0.5421360000000  0.4650470000000 1.0
C      1  0.5658570000000  0.4832450000000  0.4933160000000 1.0
C      1  0.4400300000000  0.5248130000000  0.4402390000000 1.0
C      1  0.4662610000000  0.4556050000000  0.4321780000000 1.0
C      1  0.5620710000000  0.5112320000000  0.4391280000000 1.0
C      1  0.4558000000000  0.4847430000000  0.5348210000000 1.0
C      1  0.4685490000000  0.5050930000000  0.4073990000000 1.0
C      1  0.5285410000000  0.4663880000000  0.5611600000000 1.0
C      1  0.5328560000000  0.5675470000000  0.4554870000000 1.0
C      1  0.4842540000000  0.5351230000000  0.5085890000000 1.0
C      1  0.5916390000000  0.5018550000000  0.5336800000000 1.0
C      1  0.4764020000000  0.5754470000000  0.5545600000000 1.0
C      1  0.5202810000000  0.4055400000000  0.5423550000000 1.0
C      1  0.4793310000000  0.5568690000000  0.4512200000000 1.0
C      1  0.5369620000000  0.4898240000000  0.4849170000000 1.0
C      1  0.4969690000000  0.4621850000000  0.4778750000000 1.0
C      1  0.5183660000000  0.4904320000000  0.5395940000000 1.0
C      1  0.5645160000000  0.5571440000000  0.5233090000000 1.0
C      1  0.4477240000000  0.4675900000000  0.5587160000000 1.0
C      1  0.5195370000000  0.4836380000000  0.5099560000000 1.0
C      1  0.5847770000000  0.5060920000000  0.4563530000000 1.0
C      1  0.5645020000000  0.4952520000000  0.5746870000000 1.0
C      1  0.5031290000000  0.4560650000000  0.5727530000000 1.0
C      1  0.5738000000000  0.4857170000000  0.5483560000000 1.0
C      1  0.5424700000000  0.4781900000000  0.5849820000000 1.0
C      1  0.5296830000000  0.5176800000000  0.4767530000000 1.0
C      1  0.4124070000000  0.4433930000000  0.4839470000000 1.0
C      1  0.4116780000000  0.5103510000000  0.5432830000000 1.0
C      1  0.4836640000000  0.5873280000000  0.5298760000000 1.0
C      1  0.5268020000000  0.4064580000000  0.4681910000000 1.0
C      1  0.4741540000000  0.6011060000000  0.4888620000000 1.0
C      1  0.5139790000000  0.4568530000000  0.5015320000000 1.0
C      1  0.4728180000000  0.5166310000000  0.4864320000000 1.0
C      1  0.6006280000000  0.5198100000000  0.5003390000000 1.0
C      1  0.5244540000000  0.5192180000000  0.5829200000000 1.0
C      1  0.4959640000000  0.4045800000000  0.5291990000000 1.0
C      1  0.5431640000000  0.4190160000000  0.4866290000000 1.0
C      1  0.4399730000000  0.4851180000000  0.5794950000000 1.0
C      1  0.4492220000000  0.4418190000000  0.4522790000000 1.0
C      1  0.5212550000000  0.4942590000000  0.5976620000000 1.0
C      1  0.4869590000000  0.4984860000000  0.5449140000000 1.0
C      1  0.3973050000000  0.4994590000000  0.4910140000000 1.0
C      1  0.4400860000000  0.4826910000000  0.4698010000000 1.0
C      1  0.4625410000000  0.4680500000000  0.5110070000000 1.0
C      1  0.4251340000000  0.5007670000000  0.4877090000000 1.0
C      1  0.4798630000000  0.4282250000000  0.5325800000000 1.0
C      1  0.4110920000000  0.4335540000000  0.5088080000000 1.0
C      1  0.4994910000000  0.5698170000000  0.5719510000000 1.0
C      1  0.5379130000000  0.4253900000000  0.5330310000000 1.0
C      1  0.4954320000000  0.4796300000000  0.5906590000000 1.0
C      1  0.5647590000000  0.4569120000000  0.5088610000000 1.0
C      1  0.5174790000000  0.5606270000000  0.4200510000000 1.0
C      1  0.4168560000000  0.4846750000000  0.5324400000000 1.0
C      1  0.4324950000000  0.4330880000000  0.5263210000000 1.0
C      1  0.5691270000000  0.4590100000000  0.5380100000000 1.0
C      1  0.4594560000000  0.4837930000000  0.4257410000000 1.0
C      1  0.4708880000000  0.4808310000000  0.4849130000000 1.0
C      1  0.5108380000000  0.4926170000000  0.4094420000000 1.0
C      1  0.5330170000000  0.5190200000000  0.5444930000000 1.0
C      1  0.5447500000000  0.5634420000000  0.4838510000000 1.0
C      1  0.5788030000000  0.5692690000000  0.5009990000000 1.0
C      1  0.5431680000000  0.4879620000000  0.4471180000000 1.0
C      1  0.3935490000000  0.4896990000000  0.5165030000000 1.0
C      1  0.5259360000000  0.5347850000000  0.4283980000000 1.0
C      1  0.5397930000000  0.4392900000000  0.5061270000000 1.0
C      1  0.4417040000000  0.5256640000000  0.4895180000000 1.0
C      1  0.5263770000000  0.5675760000000  0.5630660000000 1.0
C      1  0.4907460000000  0.5267950000000  0.5358380000000 1.0
C      1  0.5503950000000  0.5211430000000  0.5707300000000 1.0
C      1  0.4389620000000  0.5409240000000  0.5162110000000 1.0
C      1  0.4364290000000  0.5236860000000  0.5397200000000 1.0
C      1  0.5806890000000  0.4786670000000  0.4673670000000 1.0
C      1  0.5002890000000  0.3965150000000  0.4781510000000 1.0
C      1  0.4999510000000  0.5930210000000  0.4813700000000 1.0
C      1  0.4590510000000  0.4245790000000  0.4849730000000 1.0
C      1  0.5623230000000  0.5698680000000  0.5489090000000 1.0
C      1  0.4539120000000  0.5657190000000  0.4647770000000 1.0
C      1  0.5477470000000  0.4447630000000  0.5518060000000 1.0
C      1  0.5120930000000  0.5197020000000  0.4514260000000 1.0
C      1  0.5034620000000  0.5747540000000  0.4593800000000 1.0
C      1  0.5551440000000  0.4609880000000  0.4457380000000 1.0
C      1  0.5523080000000  0.5386560000000  0.4378100000000 1.0
C      1  0.4280260000000  0.4560770000000  0.4649150000000 1.0
C      1  0.5353760000000  0.5380750000000  0.4956650000000 1.0
C      1  0.4841390000000  0.5028650000000  0.5750920000000 1.0
C      1  0.4588530000000  0.4378110000000  0.5129890000000 1.0
C      1  0.4408570000000  0.4956740000000  0.4435100000000 1.0
C      1  0.4647350000000  0.5574960000000  0.5158920000000 1.0
C      1  0.4961380000000  0.3909890000000  0.5051890000000 1.0
C      1  0.5813460000000  0.5560080000000  0.4755830000000 1.0
C      1  0.4595390000000  0.5771560000000  0.4914690000000 1.0
C      1  0.4305270000000  0.4466630000000  0.5507790000000 1.0
C      1  0.4942730000000  0.4475270000000  0.4299360000000 1.0
C      1  0.4557150000000  0.5088330000000  0.5825760000000 1.0
C      1  0.5094820000000  0.5961820000000  0.5244220000000 1.0
C      1  0.4948350000000  0.5624410000000  0.4042310000000 1.0
C      1  0.5147760000000  0.4925550000000  0.4372430000000 1.0
C      1  0.5212440000000  0.5967760000000  0.4996580000000 1.0
C      1  0.5442270000000  0.5883200000000  0.5590200000000 1.0
C      1  0.4845470000000  0.4432990000000  0.5558340000000 1.0
C      1  0.5272800000000  0.4183070000000  0.4420550000000 1.0
C      1  0.4847390000000  0.5281980000000  0.4601170000000 1.0
C      1  0.4570550000000  0.5317070000000  0.4163090000000 1.0
C      1  0.4735710000000  0.5560780000000  0.4214190000000 1.0
END
