TITL C-950530-3293-499 3.42208769523699e-07 125000 -414.330951239676 0 0 67 (C1) n - 1
REM
REM in /home/bkarasulu/work/CARBON/AIRSS/Generating-Clusters/EDIP-Nigel-Params/with-SteepDescent/Only-C1/SD-CG/HFTN-CG
REM
REM
REM
REM
REM
REM ./C.cell (11c1c37f851c82e70ff6c80c92926a4b)
REM
REM compiler GCC version 9.2.1 20190827 (Red Hat 9.2.1-1)
REM options -cpp -mtune=generic -march=x86-64 -g -O0 -fpre-include=/usr/include/finclude/math-vector-fortran.h
REM seed -1521949778 -1202966405 -1353493715 1576557953 -239736032 384735119 1463461512 944128834 -487532704 -1147943331 41247542 -907066855 -1594119335 -273547998 -89329008 -1883310961 1492103543 -1226297745 -235140489 400492372 -1625920097 -51978305 -988587513 1308587867 -1437556586 -1601076829 1605907750 -949249382 1217328205 -352704679 -1008083689 787233224 1201219309
REM
CELL 1.54180   50.00000   50.00000   50.00000   90.00000   90.00000   90.00000
LATT -1
SFAC C  
C      1  0.5363010000000  0.5106700000000  0.4352620000000 1.0
C      1  0.5170970000000  0.4670210000000  0.5031680000000 1.0
C      1  0.5483100000000  0.5194430000000  0.5632500000000 1.0
C      1  0.4828760000000  0.5266610000000  0.4525930000000 1.0
C      1  0.4732650000000  0.4793370000000  0.4939480000000 1.0
C      1  0.4521010000000  0.4974120000000  0.5311260000000 1.0
C      1  0.5026840000000  0.5389380000000  0.5721850000000 1.0
C      1  0.5486530000000  0.5306150000000  0.5359300000000 1.0
C      1  0.4964940000000  0.4520930000000  0.5392650000000 1.0
C      1  0.5449330000000  0.5011720000000  0.4637040000000 1.0
C      1  0.4586400000000  0.5504970000000  0.5154380000000 1.0
C      1  0.5101030000000  0.4658680000000  0.4729210000000 1.0
C      1  0.5180770000000  0.4667080000000  0.5511860000000 1.0
C      1  0.5500610000000  0.5047730000000  0.5208560000000 1.0
C      1  0.4714920000000  0.5284280000000  0.5007460000000 1.0
C      1  0.4768300000000  0.5745530000000  0.4536510000000 1.0
C      1  0.4627370000000  0.5084280000000  0.5581520000000 1.0
C      1  0.5139820000000  0.5609250000000  0.5541320000000 1.0
C      1  0.4371610000000  0.5105260000000  0.4713010000000 1.0
C      1  0.5721200000000  0.5033800000000  0.4992590000000 1.0
C      1  0.5455380000000  0.4631730000000  0.5419420000000 1.0
C      1  0.4421410000000  0.4871440000000  0.4509820000000 1.0
C      1  0.4544940000000  0.4402610000000  0.4581740000000 1.0
C      1  0.4375800000000  0.4613140000000  0.4659210000000 1.0
C      1  0.4788710000000  0.4858190000000  0.5690100000000 1.0
C      1  0.4472590000000  0.4680860000000  0.5387160000000 1.0
C      1  0.4400700000000  0.4512930000000  0.5155620000000 1.0
C      1  0.4798040000000  0.5014240000000  0.5130870000000 1.0
C      1  0.5592540000000  0.4883030000000  0.5442220000000 1.0
C      1  0.5001460000000  0.4303740000000  0.5206610000000 1.0
C      1  0.5113630000000  0.5024880000000  0.4243430000000 1.0
C      1  0.4961920000000  0.5774910000000  0.5103580000000 1.0
C      1  0.5374920000000  0.5387770000000  0.4355940000000 1.0
C      1  0.5271260000000  0.4293240000000  0.5067140000000 1.0
C      1  0.4577880000000  0.5629810000000  0.4707620000000 1.0
C      1  0.4790820000000  0.4295980000000  0.4613550000000 1.0
C      1  0.5177960000000  0.4979260000000  0.5104190000000 1.0
C      1  0.5446500000000  0.4539910000000  0.5137280000000 1.0
C      1  0.5582980000000  0.4728060000000  0.4701360000000 1.0
C      1  0.4528430000000  0.4264530000000  0.5144620000000 1.0
C      1  0.4910120000000  0.5759100000000  0.5398740000000 1.0
C      1  0.4710760000000  0.4834190000000  0.4425130000000 1.0
C      1  0.4318940000000  0.4983200000000  0.4985390000000 1.0
C      1  0.4834490000000  0.5069780000000  0.4287680000000 1.0
C      1  0.4942530000000  0.5536220000000  0.4469030000000 1.0
C      1  0.4597890000000  0.5319630000000  0.4725660000000 1.0
C      1  0.4791960000000  0.5323600000000  0.5556220000000 1.0
C      1  0.5259670000000  0.5478760000000  0.5308410000000 1.0
C      1  0.5292860000000  0.4261030000000  0.4759430000000 1.0
C      1  0.5197600000000  0.5605950000000  0.5058300000000 1.0
C      1  0.5079180000000  0.4897980000000  0.5656090000000 1.0
C      1  0.5779400000000  0.4773890000000  0.4898360000000 1.0
C      1  0.4872950000000  0.4828820000000  0.4689890000000 1.0
C      1  0.4606650000000  0.5733650000000  0.4977350000000 1.0
C      1  0.4445800000000  0.4715060000000  0.4934420000000 1.0
C      1  0.5492950000000  0.4456440000000  0.4686780000000 1.0
C      1  0.5214000000000  0.5148820000000  0.5747380000000 1.0
C      1  0.5058340000000  0.4386750000000  0.4619920000000 1.0
C      1  0.4776340000000  0.4162630000000  0.5127350000000 1.0
C      1  0.5301130000000  0.5451640000000  0.4818860000000 1.0
C      1  0.4718050000000  0.4604960000000  0.5537550000000 1.0
C      1  0.5228140000000  0.5550170000000  0.4536390000000 1.0
C      1  0.4686850000000  0.5560260000000  0.5426190000000 1.0
C      1  0.5590740000000  0.5462370000000  0.4826630000000 1.0
C      1  0.4979670000000  0.5094010000000  0.4707600000000 1.0
C      1  0.5664930000000  0.5200670000000  0.4757900000000 1.0
C      1  0.5231040000000  0.5135700000000  0.4835120000000 1.0
END
