TITL C-951346-9544-505 -2.69675843243095e-07 125000 -229.162641645967 0 0 38 (C1) n - 1
REM
REM in /home/bkarasulu/work/CARBON/AIRSS/Generating-Clusters/EDIP-Nigel-Params/with-SteepDescent/Only-C1/SD-CG/HFTN-CG
REM
REM
REM
REM
REM
REM ./C.cell (11c1c37f851c82e70ff6c80c92926a4b)
REM
REM compiler GCC version 9.2.1 20190827 (Red Hat 9.2.1-1)
REM options -cpp -mtune=generic -march=x86-64 -g -O0 -fpre-include=/usr/include/finclude/math-vector-fortran.h
REM seed -1857455746 1188341539 -2063791511 -1491161148 -1062854906 403059569 -898789561 1053855832 -750440392 -1864894394 1787313090 1563409323 1631740783 -353417396 1019008985 -1698412376 -330567376 -675538700 829527387 1764132529 315710102 -1143091958 -1011857174 1530318362 -1594636460 -1494043293 1548404668 521179944 1405302695 -855807320 2032286454 61945915 -391629337
REM
CELL 1.54180   50.00000   50.00000   50.00000   90.00000   90.00000   90.00000
LATT -1
SFAC C  
C      1  0.5405160000000  0.5097100000000  0.4480290000000 1.0
C      1  0.5240210000000  0.5167990000000  0.4713310000000 1.0
C      1  0.4399860000000  0.5297980000000  0.4790380000000 1.0
C      1  0.5380540000000  0.5303990000000  0.4950870000000 1.0
C      1  0.5004360000000  0.5330330000000  0.4615770000000 1.0
C      1  0.4817840000000  0.4973300000000  0.4425950000000 1.0
C      1  0.5289500000000  0.4549300000000  0.5148680000000 1.0
C      1  0.4750630000000  0.4638040000000  0.5486280000000 1.0
C      1  0.4588070000000  0.4918390000000  0.5025140000000 1.0
C      1  0.4464630000000  0.5027990000000  0.4788170000000 1.0
C      1  0.4568350000000  0.4932330000000  0.4547090000000 1.0
C      1  0.4887850000000  0.5240910000000  0.4376810000000 1.0
C      1  0.4977910000000  0.4512850000000  0.4504860000000 1.0
C      1  0.4821680000000  0.5431480000000  0.4816610000000 1.0
C      1  0.4684560000000  0.4514390000000  0.4755000000000 1.0
C      1  0.4610150000000  0.5067880000000  0.5281070000000 1.0
C      1  0.4949510000000  0.5400260000000  0.5566640000000 1.0
C      1  0.5102700000000  0.4513820000000  0.5371210000000 1.0
C      1  0.4650300000000  0.4637410000000  0.5011020000000 1.0
C      1  0.4912350000000  0.5436050000000  0.5090120000000 1.0
C      1  0.5047740000000  0.4801890000000  0.4519750000000 1.0
C      1  0.5267180000000  0.4715610000000  0.5500240000000 1.0
C      1  0.4932490000000  0.5097520000000  0.5585290000000 1.0
C      1  0.5400860000000  0.5197750000000  0.5518340000000 1.0
C      1  0.5136420000000  0.4888080000000  0.4802410000000 1.0
C      1  0.5351870000000  0.4734540000000  0.4935780000000 1.0
C      1  0.4754890000000  0.5345300000000  0.5330230000000 1.0
C      1  0.5196840000000  0.4991050000000  0.5501410000000 1.0
C      1  0.5284420000000  0.4876930000000  0.4362930000000 1.0
C      1  0.5584310000000  0.4887950000000  0.4974530000000 1.0
C      1  0.5234170000000  0.5436820000000  0.5450910000000 1.0
C      1  0.4889200000000  0.4338120000000  0.4700410000000 1.0
C      1  0.5195200000000  0.5430760000000  0.5148630000000 1.0
C      1  0.4697800000000  0.4920110000000  0.5514450000000 1.0
C      1  0.4736950000000  0.4501750000000  0.5242380000000 1.0
C      1  0.4559210000000  0.5512510000000  0.4755510000000 1.0
C      1  0.5621180000000  0.5180850000000  0.5344770000000 1.0
C      1  0.5603100000000  0.5150680000000  0.5066760000000 1.0
END
