TITL C-950523-3027-156 -4.31602995793188e-06 125000 -736.565618431842 0 0 118 (C1) n - 1
REM
REM in /home/bkarasulu/work/CARBON/AIRSS/Generating-Clusters/EDIP-Nigel-Params/with-SteepDescent/Only-C1/SD-CG/HFTN-CG
REM
REM
REM
REM
REM
REM ./C.cell (11c1c37f851c82e70ff6c80c92926a4b)
REM
REM compiler GCC version 9.2.1 20190827 (Red Hat 9.2.1-1)
REM options -cpp -mtune=generic -march=x86-64 -g -O0 -fpre-include=/usr/include/finclude/math-vector-fortran.h
REM seed -845700041 650896607 -1644136403 -1795265838 -675374147 -931112238 691877434 -790669173 -501528833 332231185 2080809237 889227819 -1297198694 -877005737 1962225207 1809630453 68941106 -544019981 -280875311 1741562673 -2139262648 223024868 -1194222748 83934533 -2079231317 -317072113 -402754947 192130204 -1541933662 -1533323712 -967701653 -892258905 -277402262
REM
CELL 1.54180   50.00000   50.00000   50.00000   90.00000   90.00000   90.00000
LATT -1
SFAC C  
C      1  0.4925660000000  0.5349540000000  0.5924840000000 1.0
C      1  0.5653730000000  0.5176610000000  0.5544810000000 1.0
C      1  0.4695490000000  0.5339440000000  0.5744630000000 1.0
C      1  0.4892100000000  0.5182570000000  0.5449210000000 1.0
C      1  0.4813000000000  0.4310040000000  0.4444070000000 1.0
C      1  0.4534890000000  0.4271660000000  0.4881680000000 1.0
C      1  0.5256250000000  0.5567580000000  0.5329700000000 1.0
C      1  0.6053260000000  0.5277750000000  0.4813010000000 1.0
C      1  0.5265970000000  0.5658580000000  0.5630960000000 1.0
C      1  0.5776650000000  0.4801000000000  0.5042180000000 1.0
C      1  0.5432890000000  0.5193600000000  0.4955940000000 1.0
C      1  0.4005000000000  0.5091520000000  0.5048530000000 1.0
C      1  0.4812940000000  0.4536120000000  0.4939840000000 1.0
C      1  0.5660170000000  0.5391140000000  0.4596580000000 1.0
C      1  0.5222150000000  0.5319320000000  0.4772580000000 1.0
C      1  0.5135810000000  0.5125370000000  0.4551330000000 1.0
C      1  0.4758320000000  0.5590250000000  0.4302450000000 1.0
C      1  0.5272720000000  0.5600000000000  0.4365890000000 1.0
C      1  0.5266940000000  0.5129070000000  0.5172680000000 1.0
C      1  0.4380840000000  0.5559770000000  0.4966170000000 1.0
C      1  0.3907440000000  0.5209170000000  0.4817440000000 1.0
C      1  0.4289830000000  0.4869600000000  0.4497600000000 1.0
C      1  0.4976580000000  0.5426780000000  0.4957010000000 1.0
C      1  0.4995270000000  0.4030280000000  0.4860210000000 1.0
C      1  0.5347220000000  0.4523870000000  0.5741960000000 1.0
C      1  0.4696250000000  0.5094720000000  0.4271840000000 1.0
C      1  0.5817100000000  0.4706630000000  0.5414700000000 1.0
C      1  0.4633480000000  0.4942550000000  0.5153320000000 1.0
C      1  0.4732590000000  0.5281290000000  0.4774910000000 1.0
C      1  0.5700440000000  0.5063580000000  0.4589490000000 1.0
C      1  0.4044880000000  0.4809740000000  0.5098720000000 1.0
C      1  0.4356180000000  0.5160060000000  0.5783930000000 1.0
C      1  0.5115030000000  0.4853010000000  0.4677470000000 1.0
C      1  0.6023070000000  0.4804810000000  0.4866290000000 1.0
C      1  0.4511180000000  0.5832100000000  0.4969050000000 1.0
C      1  0.5071360000000  0.5332590000000  0.5240900000000 1.0
C      1  0.5072820000000  0.4455930000000  0.5104460000000 1.0
C      1  0.4505410000000  0.4959220000000  0.5620520000000 1.0
C      1  0.4584690000000  0.5638860000000  0.5388600000000 1.0
C      1  0.5334070000000  0.5145830000000  0.4285980000000 1.0
C      1  0.5088880000000  0.4493520000000  0.5845210000000 1.0
C      1  0.5218530000000  0.4553590000000  0.4232550000000 1.0
C      1  0.4738480000000  0.5742880000000  0.4540170000000 1.0
C      1  0.4607020000000  0.5126350000000  0.5366220000000 1.0
C      1  0.5019910000000  0.4097660000000  0.5483760000000 1.0
C      1  0.4649880000000  0.5051190000000  0.4907180000000 1.0
C      1  0.5469770000000  0.5413480000000  0.4255660000000 1.0
C      1  0.5399910000000  0.5236780000000  0.5660220000000 1.0
C      1  0.4539800000000  0.4842570000000  0.4359330000000 1.0
C      1  0.4998710000000  0.5906440000000  0.5247330000000 1.0
C      1  0.5565810000000  0.4944210000000  0.4840270000000 1.0
C      1  0.4759270000000  0.4881440000000  0.5821560000000 1.0
C      1  0.5669340000000  0.4327450000000  0.4839550000000 1.0
C      1  0.5304670000000  0.4126960000000  0.5447060000000 1.0
C      1  0.4775130000000  0.6078350000000  0.5269510000000 1.0
C      1  0.5671810000000  0.4886480000000  0.5585950000000 1.0
C      1  0.4856690000000  0.4721370000000  0.4703590000000 1.0
C      1  0.5349480000000  0.4722890000000  0.4791050000000 1.0
C      1  0.4842340000000  0.4325460000000  0.5519530000000 1.0
C      1  0.5013030000000  0.5750200000000  0.4970630000000 1.0
C      1  0.5559410000000  0.4949350000000  0.4332400000000 1.0
C      1  0.5629760000000  0.4514620000000  0.5077560000000 1.0
C      1  0.5311250000000  0.5759470000000  0.4878390000000 1.0
C      1  0.5029930000000  0.5503720000000  0.4228280000000 1.0
C      1  0.5157710000000  0.5126290000000  0.4036470000000 1.0
C      1  0.4557590000000  0.5899740000000  0.5254230000000 1.0
C      1  0.5444280000000  0.4423980000000  0.4665620000000 1.0
C      1  0.4932890000000  0.4576640000000  0.5376330000000 1.0
C      1  0.5133250000000  0.5520130000000  0.5838050000000 1.0
C      1  0.4542280000000  0.5381000000000  0.4247940000000 1.0
C      1  0.5451070000000  0.4793030000000  0.5764110000000 1.0
C      1  0.5109050000000  0.4157970000000  0.5115640000000 1.0
C      1  0.5237230000000  0.5002880000000  0.5738100000000 1.0
C      1  0.5201600000000  0.3957530000000  0.4686340000000 1.0
C      1  0.3999730000000  0.5188300000000  0.5322810000000 1.0
C      1  0.4756710000000  0.4630460000000  0.4431140000000 1.0
C      1  0.4126830000000  0.5084230000000  0.4406710000000 1.0
C      1  0.4973730000000  0.4716710000000  0.4235450000000 1.0
C      1  0.4770240000000  0.5845700000000  0.4801330000000 1.0
C      1  0.5275860000000  0.4197430000000  0.4560050000000 1.0
C      1  0.5500500000000  0.4661030000000  0.4310890000000 1.0
C      1  0.3983470000000  0.5272410000000  0.4561060000000 1.0
C      1  0.4761860000000  0.4169200000000  0.4716600000000 1.0
C      1  0.4082410000000  0.4817070000000  0.5388000000000 1.0
C      1  0.5362180000000  0.5552640000000  0.4659760000000 1.0
C      1  0.5721830000000  0.4427880000000  0.5432100000000 1.0
C      1  0.4855440000000  0.5209390000000  0.4509080000000 1.0
C      1  0.4436470000000  0.5421910000000  0.5249870000000 1.0
C      1  0.5058430000000  0.4908310000000  0.5496380000000 1.0
C      1  0.5632250000000  0.5406200000000  0.5059020000000 1.0
C      1  0.4567780000000  0.4287720000000  0.5477330000000 1.0
C      1  0.4459490000000  0.4508180000000  0.5323890000000 1.0
C      1  0.4195000000000  0.4630110000000  0.4927030000000 1.0
C      1  0.5832510000000  0.5448240000000  0.4834350000000 1.0
C      1  0.4326730000000  0.4723120000000  0.5505610000000 1.0
C      1  0.6069240000000  0.4566040000000  0.4732740000000 1.0
C      1  0.5457170000000  0.4357250000000  0.5533730000000 1.0
C      1  0.5248170000000  0.4866770000000  0.5262930000000 1.0
C      1  0.4345280000000  0.4417950000000  0.5054910000000 1.0
C      1  0.5994680000000  0.5034830000000  0.4681600000000 1.0
C      1  0.4848600000000  0.4618720000000  0.5849220000000 1.0
C      1  0.4177440000000  0.5401340000000  0.5397650000000 1.0
C      1  0.4482040000000  0.5431350000000  0.4724330000000 1.0
C      1  0.5878480000000  0.4389480000000  0.4629190000000 1.0
C      1  0.5717820000000  0.4478960000000  0.4392340000000 1.0
C      1  0.4269420000000  0.5423700000000  0.5680980000000 1.0
C      1  0.5128240000000  0.5883840000000  0.5507990000000 1.0
C      1  0.4918870000000  0.4966470000000  0.4091960000000 1.0
C      1  0.4690040000000  0.4660750000000  0.5201460000000 1.0
C      1  0.4990400000000  0.5059380000000  0.5919220000000 1.0
C      1  0.5314830000000  0.4633430000000  0.5080500000000 1.0
C      1  0.5741320000000  0.5303430000000  0.5308580000000 1.0
C      1  0.4327490000000  0.5408000000000  0.4464200000000 1.0
C      1  0.4535380000000  0.5586640000000  0.5673010000000 1.0
C      1  0.5103910000000  0.4297610000000  0.4351070000000 1.0
C      1  0.5072880000000  0.5388690000000  0.3970850000000 1.0
C      1  0.5458530000000  0.5650280000000  0.5115530000000 1.0
C      1  0.4184920000000  0.4661730000000  0.4650300000000 1.0
END
