TITL C-950530-3293-382 -3.86827338173723e-06 125000 -934.171659911587 0 0 152 (C1) n - 1
REM
REM in /home/bkarasulu/work/CARBON/AIRSS/Generating-Clusters/EDIP-Nigel-Params/with-SteepDescent/Only-C1/SD-CG/HFTN-CG
REM
REM
REM
REM
REM
REM ./C.cell (11c1c37f851c82e70ff6c80c92926a4b)
REM
REM compiler GCC version 9.2.1 20190827 (Red Hat 9.2.1-1)
REM options -cpp -mtune=generic -march=x86-64 -g -O0 -fpre-include=/usr/include/finclude/math-vector-fortran.h
REM seed 636602125 -721918785 -590257969 1248952785 1295170249 -530528196 -1186910906 -1432930563 -1000373707 1176190139 -1855603636 1349717264 1831905369 1281537992 -411025315 2032388190 394577626 337545152 -846944678 -745176544 -263001842 -1126152816 2049369560 601874994 -1682240225 -83323206 -760002959 1062944879 702618897 -1675663545 119770005 692139406 577189153
REM
CELL 1.54180   50.00000   50.00000   50.00000   90.00000   90.00000   90.00000
LATT -1
SFAC C  
C      1  0.4732130000000  0.5642010000000  0.5205680000000 1.0
C      1  0.4125940000000  0.4891270000000  0.4276100000000 1.0
C      1  0.5142590000000  0.4048440000000  0.5564730000000 1.0
C      1  0.4283200000000  0.4135450000000  0.5152840000000 1.0
C      1  0.4217490000000  0.5586070000000  0.4590490000000 1.0
C      1  0.4087850000000  0.4968530000000  0.5495650000000 1.0
C      1  0.4560580000000  0.4069950000000  0.5089140000000 1.0
C      1  0.5446730000000  0.4606920000000  0.4669300000000 1.0
C      1  0.4089100000000  0.5605190000000  0.4867390000000 1.0
C      1  0.5600070000000  0.4575780000000  0.5865250000000 1.0
C      1  0.5818440000000  0.5098460000000  0.5349970000000 1.0
C      1  0.4447300000000  0.5375810000000  0.4996580000000 1.0
C      1  0.5787030000000  0.4746030000000  0.4370590000000 1.0
C      1  0.4323480000000  0.4427230000000  0.4426710000000 1.0
C      1  0.4872530000000  0.5680290000000  0.4340550000000 1.0
C      1  0.4748290000000  0.4848720000000  0.4453010000000 1.0
C      1  0.5071730000000  0.4880910000000  0.4012700000000 1.0
C      1  0.4460750000000  0.4134990000000  0.4508800000000 1.0
C      1  0.5245590000000  0.5987630000000  0.4890030000000 1.0
C      1  0.5396410000000  0.5332900000000  0.4512570000000 1.0
C      1  0.4151750000000  0.5350600000000  0.5041050000000 1.0
C      1  0.4787560000000  0.4956520000000  0.4024750000000 1.0
C      1  0.5001600000000  0.4061810000000  0.4504270000000 1.0
C      1  0.4912610000000  0.4431520000000  0.5763520000000 1.0
C      1  0.5083520000000  0.5717780000000  0.5486800000000 1.0
C      1  0.4452840000000  0.4935940000000  0.5855550000000 1.0
C      1  0.5566990000000  0.4929540000000  0.5327140000000 1.0
C      1  0.4746800000000  0.6038680000000  0.4965020000000 1.0
C      1  0.4905870000000  0.5135050000000  0.4470320000000 1.0
C      1  0.5424120000000  0.5458320000000  0.5276800000000 1.0
C      1  0.4653210000000  0.5803800000000  0.4766340000000 1.0
C      1  0.4849290000000  0.5316630000000  0.4713070000000 1.0
C      1  0.5151520000000  0.5251430000000  0.4320600000000 1.0
C      1  0.4487620000000  0.4662760000000  0.5471620000000 1.0
C      1  0.4837990000000  0.5275670000000  0.5234150000000 1.0
C      1  0.4059020000000  0.5066580000000  0.4990610000000 1.0
C      1  0.4734030000000  0.4243510000000  0.5325540000000 1.0
C      1  0.5690860000000  0.5761800000000  0.4593270000000 1.0
C      1  0.4845950000000  0.5815710000000  0.5773220000000 1.0
C      1  0.5402660000000  0.5464600000000  0.5829280000000 1.0
C      1  0.5125410000000  0.4318720000000  0.4552000000000 1.0
C      1  0.5047180000000  0.5500660000000  0.4175750000000 1.0
C      1  0.5666760000000  0.4251450000000  0.5231910000000 1.0
C      1  0.4453580000000  0.4892400000000  0.5092020000000 1.0
C      1  0.4996890000000  0.4696680000000  0.5277240000000 1.0
C      1  0.5541170000000  0.4087780000000  0.4733880000000 1.0
C      1  0.4603630000000  0.4216260000000  0.4258870000000 1.0
C      1  0.4751460000000  0.5249630000000  0.4130880000000 1.0
C      1  0.5729610000000  0.4428630000000  0.4979540000000 1.0
C      1  0.4514990000000  0.5653400000000  0.5000350000000 1.0
C      1  0.5295190000000  0.4829890000000  0.4557340000000 1.0
C      1  0.5560830000000  0.4905580000000  0.5041940000000 1.0
C      1  0.4280480000000  0.4790710000000  0.5654530000000 1.0
C      1  0.5531110000000  0.5140590000000  0.4890440000000 1.0
C      1  0.5354540000000  0.4427270000000  0.5761190000000 1.0
C      1  0.5669740000000  0.4482600000000  0.4495310000000 1.0
C      1  0.4241710000000  0.4434750000000  0.5090550000000 1.0
C      1  0.5822860000000  0.4493650000000  0.5698830000000 1.0
C      1  0.5046080000000  0.4889770000000  0.5010560000000 1.0
C      1  0.4194160000000  0.5720290000000  0.5348450000000 1.0
C      1  0.5270190000000  0.4870550000000  0.5691720000000 1.0
C      1  0.5808340000000  0.4979800000000  0.4562170000000 1.0
C      1  0.5097890000000  0.5110200000000  0.6015650000000 1.0
C      1  0.5751690000000  0.4469690000000  0.5431350000000 1.0
C      1  0.5973160000000  0.4605050000000  0.5327920000000 1.0
C      1  0.4673560000000  0.4432990000000  0.4804530000000 1.0
C      1  0.4088980000000  0.4941720000000  0.4729560000000 1.0
C      1  0.5464490000000  0.5915150000000  0.5075150000000 1.0
C      1  0.4260980000000  0.4228930000000  0.5424760000000 1.0
C      1  0.4579600000000  0.5668060000000  0.4294900000000 1.0
C      1  0.5034340000000  0.4796040000000  0.4714630000000 1.0
C      1  0.4624670000000  0.5063830000000  0.5308710000000 1.0
C      1  0.5649660000000  0.5341240000000  0.4164890000000 1.0
C      1  0.5395090000000  0.5751300000000  0.5392130000000 1.0
C      1  0.4244360000000  0.5797590000000  0.5060990000000 1.0
C      1  0.4559090000000  0.4981470000000  0.4831780000000 1.0
C      1  0.4624020000000  0.4131340000000  0.4785660000000 1.0
C      1  0.5972910000000  0.4869280000000  0.4890150000000 1.0
C      1  0.4458630000000  0.5223940000000  0.5476450000000 1.0
C      1  0.4879480000000  0.4678520000000  0.5904100000000 1.0
C      1  0.5972250000000  0.4604300000000  0.5034870000000 1.0
C      1  0.5806710000000  0.5481380000000  0.4603730000000 1.0
C      1  0.5521630000000  0.4641360000000  0.5393940000000 1.0
C      1  0.4429730000000  0.4568460000000  0.4669250000000 1.0
C      1  0.4872960000000  0.5184170000000  0.5831510000000 1.0
C      1  0.5748070000000  0.5397750000000  0.5343000000000 1.0
C      1  0.5008190000000  0.5203870000000  0.4991960000000 1.0
C      1  0.4437690000000  0.5786890000000  0.4536470000000 1.0
C      1  0.5280830000000  0.5320550000000  0.5498500000000 1.0
C      1  0.4071330000000  0.4627250000000  0.4377150000000 1.0
C      1  0.5425250000000  0.5579310000000  0.4209290000000 1.0
C      1  0.5526110000000  0.5084410000000  0.4057960000000 1.0
C      1  0.6105840000000  0.5319200000000  0.5037250000000 1.0
C      1  0.4501270000000  0.4841060000000  0.4600550000000 1.0
C      1  0.4090440000000  0.4890870000000  0.5212590000000 1.0
C      1  0.5381030000000  0.4156920000000  0.5282040000000 1.0
C      1  0.4901780000000  0.5643570000000  0.4634700000000 1.0
C      1  0.5571810000000  0.4804570000000  0.4166780000000 1.0
C      1  0.5315820000000  0.4266700000000  0.4789760000000 1.0
C      1  0.4448080000000  0.5771690000000  0.5512020000000 1.0
C      1  0.4183620000000  0.5250810000000  0.5529330000000 1.0
C      1  0.5527500000000  0.4869250000000  0.5855450000000 1.0
C      1  0.4666620000000  0.5932940000000  0.5332460000000 1.0
C      1  0.5636440000000  0.5776880000000  0.4888340000000 1.0
C      1  0.4926480000000  0.4421640000000  0.5166260000000 1.0
C      1  0.5808270000000  0.5541070000000  0.5588540000000 1.0
C      1  0.4351470000000  0.5315340000000  0.4511240000000 1.0
C      1  0.4901630000000  0.4203260000000  0.5588560000000 1.0
C      1  0.5233380000000  0.5115030000000  0.4064690000000 1.0
C      1  0.4397250000000  0.5210410000000  0.5915250000000 1.0
C      1  0.5258040000000  0.4610070000000  0.5536130000000 1.0
C      1  0.5093580000000  0.4818900000000  0.6031820000000 1.0
C      1  0.5361110000000  0.5529400000000  0.4772750000000 1.0
C      1  0.5750620000000  0.4278030000000  0.4717670000000 1.0
C      1  0.4878270000000  0.3989240000000  0.4743990000000 1.0
C      1  0.4635100000000  0.5372290000000  0.5896710000000 1.0
C      1  0.4744790000000  0.4832640000000  0.5465910000000 1.0
C      1  0.5440760000000  0.5792000000000  0.4425680000000 1.0
C      1  0.5216980000000  0.5449190000000  0.5027560000000 1.0
C      1  0.5217400000000  0.5774560000000  0.4667250000000 1.0
C      1  0.4147490000000  0.5085390000000  0.4484660000000 1.0
C      1  0.5010630000000  0.5953320000000  0.5052610000000 1.0
C      1  0.5507080000000  0.4631540000000  0.4949920000000 1.0
C      1  0.4653340000000  0.4752920000000  0.4191030000000 1.0
C      1  0.5030830000000  0.3980260000000  0.4978810000000 1.0
C      1  0.4932520000000  0.4517970000000  0.4672400000000 1.0
C      1  0.6023070000000  0.5057690000000  0.5119720000000 1.0
C      1  0.4994200000000  0.5403190000000  0.5470490000000 1.0
C      1  0.5821690000000  0.5272920000000  0.4399760000000 1.0
C      1  0.5557350000000  0.5650750000000  0.5654830000000 1.0
C      1  0.4892150000000  0.5971640000000  0.5528080000000 1.0
C      1  0.4996160000000  0.5665680000000  0.5066720000000 1.0
C      1  0.4518740000000  0.4576500000000  0.5092120000000 1.0
C      1  0.3998510000000  0.4669350000000  0.4665650000000 1.0
C      1  0.4645540000000  0.4471490000000  0.4149310000000 1.0
C      1  0.4097590000000  0.4455920000000  0.4833130000000 1.0
C      1  0.4551360000000  0.5257520000000  0.4757630000000 1.0
C      1  0.5162900000000  0.4222000000000  0.5062660000000 1.0
C      1  0.5756750000000  0.5364530000000  0.4874550000000 1.0
C      1  0.4076200000000  0.5438960000000  0.5325980000000 1.0
C      1  0.5497490000000  0.5063140000000  0.4617480000000 1.0
C      1  0.5273530000000  0.4422900000000  0.4301830000000 1.0
C      1  0.5382210000000  0.4157490000000  0.5666310000000 1.0
C      1  0.4607580000000  0.5650730000000  0.5758790000000 1.0
C      1  0.5290110000000  0.4722680000000  0.4261600000000 1.0
C      1  0.4743080000000  0.4907840000000  0.5768870000000 1.0
C      1  0.5901720000000  0.5509470000000  0.5118100000000 1.0
C      1  0.4506810000000  0.5380670000000  0.4251570000000 1.0
C      1  0.5536430000000  0.4328640000000  0.4284360000000 1.0
C      1  0.5320590000000  0.5042340000000  0.5456140000000 1.0
C      1  0.5373210000000  0.5199770000000  0.5955200000000 1.0
C      1  0.4505460000000  0.4369300000000  0.5481030000000 1.0
END
