TITL C-951345-2650-304 -5.64129449206918e-07 125000 -245.834868862618 0 0 41 (C1) n - 1
REM
REM in /home/bkarasulu/work/CARBON/AIRSS/Generating-Clusters/EDIP-Nigel-Params/with-SteepDescent/Only-C1/SD-CG/HFTN-CG
REM
REM
REM
REM
REM
REM ./C.cell (11c1c37f851c82e70ff6c80c92926a4b)
REM
REM compiler GCC version 9.2.1 20190827 (Red Hat 9.2.1-1)
REM options -cpp -mtune=generic -march=x86-64 -g -O0 -fpre-include=/usr/include/finclude/math-vector-fortran.h
REM seed -1167895913 521426977 1039853723 916514330 556964232 1634101894 462839721 549460779 -995162792 475081881 -1327181220 -138290718 1255008076 307614848 1914109640 348186108 6588498 682440783 -510726448 -1263675457 2042125297 -572674081 -1298371370 -1279982335 469041328 1353959311 329090283 699005586 -895576341 2024278738 -940139523 -1985395820 -590929627
REM
CELL 1.54180   50.00000   50.00000   50.00000   90.00000   90.00000   90.00000
LATT -1
SFAC C  
C      1  0.4541120000000  0.5362590000000  0.5410370000000 1.0
C      1  0.5606640000000  0.4760830000000  0.4875630000000 1.0
C      1  0.5451800000000  0.5439670000000  0.5138120000000 1.0
C      1  0.4921820000000  0.4871440000000  0.5275100000000 1.0
C      1  0.4444260000000  0.5359970000000  0.4979680000000 1.0
C      1  0.5648920000000  0.5028690000000  0.5008610000000 1.0
C      1  0.4642910000000  0.5539260000000  0.5085900000000 1.0
C      1  0.5405620000000  0.5236150000000  0.5359190000000 1.0
C      1  0.4390400000000  0.4953870000000  0.4700660000000 1.0
C      1  0.5163120000000  0.4497430000000  0.4784530000000 1.0
C      1  0.5180410000000  0.4340840000000  0.5013700000000 1.0
C      1  0.4834880000000  0.5116550000000  0.4364570000000 1.0
C      1  0.4925350000000  0.5490110000000  0.4665960000000 1.0
C      1  0.4959050000000  0.4902610000000  0.4515860000000 1.0
C      1  0.4907160000000  0.5571100000000  0.4961430000000 1.0
C      1  0.4648240000000  0.5123520000000  0.5537010000000 1.0
C      1  0.5242030000000  0.4955530000000  0.4595510000000 1.0
C      1  0.4942740000000  0.5068510000000  0.5499320000000 1.0
C      1  0.5099860000000  0.5235640000000  0.4971210000000 1.0
C      1  0.5532350000000  0.5279430000000  0.4883450000000 1.0
C      1  0.4496770000000  0.4913670000000  0.5397850000000 1.0
C      1  0.5188630000000  0.5453460000000  0.4564970000000 1.0
C      1  0.5668260000000  0.4567690000000  0.5079860000000 1.0
C      1  0.5372080000000  0.4524160000000  0.5451090000000 1.0
C      1  0.5276500000000  0.5226010000000  0.4727420000000 1.0
C      1  0.4642900000000  0.4527080000000  0.5095540000000 1.0
C      1  0.5490350000000  0.4972520000000  0.5249860000000 1.0
C      1  0.4680510000000  0.4705420000000  0.5308770000000 1.0
C      1  0.5247440000000  0.4363330000000  0.5273010000000 1.0
C      1  0.4922840000000  0.5005980000000  0.5015600000000 1.0
C      1  0.5134000000000  0.5285870000000  0.5460350000000 1.0
C      1  0.4356580000000  0.5227380000000  0.5222330000000 1.0
C      1  0.5153940000000  0.5551260000000  0.5179530000000 1.0
C      1  0.5331620000000  0.4739000000000  0.4768440000000 1.0
C      1  0.4789940000000  0.4894080000000  0.4773050000000 1.0
C      1  0.4895480000000  0.4543390000000  0.4663140000000 1.0
C      1  0.4441320000000  0.4681840000000  0.4714790000000 1.0
C      1  0.4740500000000  0.5284410000000  0.4571840000000 1.0
C      1  0.5548400000000  0.4688820000000  0.5309290000000 1.0
C      1  0.4500770000000  0.5215380000000  0.4730460000000 1.0
C      1  0.4632510000000  0.4495490000000  0.4817010000000 1.0
END
