TITL C-950530-3293-221 -8.13728698495188e-07 125000 -494.692413172509 0 0 80 (C1) n - 1
REM
REM in /home/bkarasulu/work/CARBON/AIRSS/Generating-Clusters/EDIP-Nigel-Params/with-SteepDescent/Only-C1/SD-CG/HFTN-CG
REM
REM
REM
REM
REM
REM ./C.cell (11c1c37f851c82e70ff6c80c92926a4b)
REM
REM compiler GCC version 9.2.1 20190827 (Red Hat 9.2.1-1)
REM options -cpp -mtune=generic -march=x86-64 -g -O0 -fpre-include=/usr/include/finclude/math-vector-fortran.h
REM seed 1777674353 -312951615 -617855854 -1166516679 -1347130271 1854330953 -1789402119 -1689327529 794912188 -410877770 -780546970 1647705136 -1105815040 1541998411 -1479207352 -1748910481 -1463534359 -1421501683 -700206502 -7575443 172334368 1594467564 1326010401 -1171524106 -591371569 -685394092 37911564 362247457 1482160455 -1135601669 1940692292 -1731436253 1163190411
REM
CELL 1.54180   50.00000   50.00000   50.00000   90.00000   90.00000   90.00000
LATT -1
SFAC C  
C      1  0.5164770000000  0.5492060000000  0.4582750000000 1.0
C      1  0.5640890000000  0.5432340000000  0.5030850000000 1.0
C      1  0.5455280000000  0.4566470000000  0.4444940000000 1.0
C      1  0.5125290000000  0.4969970000000  0.4513810000000 1.0
C      1  0.4763590000000  0.4459620000000  0.5576240000000 1.0
C      1  0.4753640000000  0.5095520000000  0.4301430000000 1.0
C      1  0.4564340000000  0.5084370000000  0.5437830000000 1.0
C      1  0.5740610000000  0.5217070000000  0.5210050000000 1.0
C      1  0.4550900000000  0.4577320000000  0.4956390000000 1.0
C      1  0.5597630000000  0.4693440000000  0.4690680000000 1.0
C      1  0.4825160000000  0.5427750000000  0.5670910000000 1.0
C      1  0.4564950000000  0.4974660000000  0.4480930000000 1.0
C      1  0.5421140000000  0.5004030000000  0.4428670000000 1.0
C      1  0.5141260000000  0.4440630000000  0.5853520000000 1.0
C      1  0.4339410000000  0.4795230000000  0.5010880000000 1.0
C      1  0.5163820000000  0.5790480000000  0.5456610000000 1.0
C      1  0.5048340000000  0.4185950000000  0.4932920000000 1.0
C      1  0.5282230000000  0.5161850000000  0.4911500000000 1.0
C      1  0.5550170000000  0.5255100000000  0.4795920000000 1.0
C      1  0.5395230000000  0.5577940000000  0.5153620000000 1.0
C      1  0.4986630000000  0.4624270000000  0.4232700000000 1.0
C      1  0.4692330000000  0.5528890000000  0.4614250000000 1.0
C      1  0.4900880000000  0.5803080000000  0.5023880000000 1.0
C      1  0.5246490000000  0.4896950000000  0.5082390000000 1.0
C      1  0.5319740000000  0.4649560000000  0.5486930000000 1.0
C      1  0.4761980000000  0.4749930000000  0.5655860000000 1.0
C      1  0.5234120000000  0.4635300000000  0.4928190000000 1.0
C      1  0.4074330000000  0.5109230000000  0.5297890000000 1.0
C      1  0.5028910000000  0.4334690000000  0.5611540000000 1.0
C      1  0.5605170000000  0.4755060000000  0.5137190000000 1.0
C      1  0.4742800000000  0.4145250000000  0.4912390000000 1.0
C      1  0.4877750000000  0.5117690000000  0.5354550000000 1.0
C      1  0.4697080000000  0.4565050000000  0.4683410000000 1.0
C      1  0.5458440000000  0.5272220000000  0.4305660000000 1.0
C      1  0.5161560000000  0.5867600000000  0.5155590000000 1.0
C      1  0.4822840000000  0.5212060000000  0.4887610000000 1.0
C      1  0.5373210000000  0.5316730000000  0.5576080000000 1.0
C      1  0.4988200000000  0.4915210000000  0.4248400000000 1.0
C      1  0.5070280000000  0.5491240000000  0.4300520000000 1.0
C      1  0.4363340000000  0.5129050000000  0.4623470000000 1.0
C      1  0.4509690000000  0.4689670000000  0.4479990000000 1.0
C      1  0.4484740000000  0.5362610000000  0.4777610000000 1.0
C      1  0.5241440000000  0.5343260000000  0.4134100000000 1.0
C      1  0.5230740000000  0.4698270000000  0.5766610000000 1.0
C      1  0.4506660000000  0.5540740000000  0.5281870000000 1.0
C      1  0.5209080000000  0.4400640000000  0.5376910000000 1.0
C      1  0.4611790000000  0.4331990000000  0.5376500000000 1.0
C      1  0.5793210000000  0.4969720000000  0.5046910000000 1.0
C      1  0.4576690000000  0.4324590000000  0.5097950000000 1.0
C      1  0.4238130000000  0.4670110000000  0.4564220000000 1.0
C      1  0.5594790000000  0.4706280000000  0.5429980000000 1.0
C      1  0.5600320000000  0.4534090000000  0.4934300000000 1.0
C      1  0.5717100000000  0.4985050000000  0.4754180000000 1.0
C      1  0.4546460000000  0.5369620000000  0.5538130000000 1.0
C      1  0.5109210000000  0.4421160000000  0.5097020000000 1.0
C      1  0.5040020000000  0.5182840000000  0.5621830000000 1.0
C      1  0.4221040000000  0.4889610000000  0.4750020000000 1.0
C      1  0.5143200000000  0.4507240000000  0.4461850000000 1.0
C      1  0.5507320000000  0.4781590000000  0.4264810000000 1.0
C      1  0.5683080000000  0.4917710000000  0.5591120000000 1.0
C      1  0.4790860000000  0.5604500000000  0.5223910000000 1.0
C      1  0.4891350000000  0.5666940000000  0.5496620000000 1.0
C      1  0.4355150000000  0.5429490000000  0.5050970000000 1.0
C      1  0.5588930000000  0.5148500000000  0.5460390000000 1.0
C      1  0.4896360000000  0.5703850000000  0.4746800000000 1.0
C      1  0.5466850000000  0.5429130000000  0.4556590000000 1.0
C      1  0.5000460000000  0.4895770000000  0.5762450000000 1.0
C      1  0.5401860000000  0.5589450000000  0.5464300000000 1.0
C      1  0.4527710000000  0.4897680000000  0.5653480000000 1.0
C      1  0.4340760000000  0.5022590000000  0.5219130000000 1.0
C      1  0.4962820000000  0.4892360000000  0.5179810000000 1.0
C      1  0.4101360000000  0.5315850000000  0.5118510000000 1.0
C      1  0.5047960000000  0.4694540000000  0.4677450000000 1.0
C      1  0.4918460000000  0.5342040000000  0.5148680000000 1.0
C      1  0.4796230000000  0.5392430000000  0.4360080000000 1.0
C      1  0.5069870000000  0.5214830000000  0.4697940000000 1.0
C      1  0.4739520000000  0.4270050000000  0.4631980000000 1.0
C      1  0.5206560000000  0.5361550000000  0.5103270000000 1.0
C      1  0.4801990000000  0.4937280000000  0.4952580000000 1.0
C      1  0.5035510000000  0.4243540000000  0.4590200000000 1.0
END
