TITL C-950532-2784-69 -2.05150726841598e-06 125000 -707.639422585769 0 0 115 (C1) n - 1
REM
REM in /home/bkarasulu/work/CARBON/AIRSS/Generating-Clusters/EDIP-Nigel-Params/with-SteepDescent/Only-C1/SD-CG/HFTN-CG
REM
REM
REM
REM
REM
REM ./C.cell (11c1c37f851c82e70ff6c80c92926a4b)
REM
REM compiler GCC version 9.2.1 20190827 (Red Hat 9.2.1-1)
REM options -cpp -mtune=generic -march=x86-64 -g -O0 -fpre-include=/usr/include/finclude/math-vector-fortran.h
REM seed 1644016126 -1478705636 292087996 -1858350490 807561300 -951593371 622136656 -360156357 -60226025 808784300 -621910658 -818368756 905044665 1125056361 1944338976 -156771545 2041472785 973879171 -107099451 -863464999 -318046003 -1121545787 -1314244126 -1118613638 1538992112 -363872789 -387104469 1279732612 1271695839 1878577771 982621443 -828659535 384140982
REM
CELL 1.54180   50.00000   50.00000   50.00000   90.00000   90.00000   90.00000
LATT -1
SFAC C  
C      1  0.4544000000000  0.4831020000000  0.5337660000000 1.0
C      1  0.4451270000000  0.5601360000000  0.5018850000000 1.0
C      1  0.5516050000000  0.4287100000000  0.5261550000000 1.0
C      1  0.5568120000000  0.5047300000000  0.4101710000000 1.0
C      1  0.5633910000000  0.5419070000000  0.5364390000000 1.0
C      1  0.4756330000000  0.4326290000000  0.5167670000000 1.0
C      1  0.5106360000000  0.5562610000000  0.5661640000000 1.0
C      1  0.4253840000000  0.4759330000000  0.4520950000000 1.0
C      1  0.5019760000000  0.4161090000000  0.5392210000000 1.0
C      1  0.5167640000000  0.4996870000000  0.5883060000000 1.0
C      1  0.4662250000000  0.5763030000000  0.4861750000000 1.0
C      1  0.4541210000000  0.4566360000000  0.4784710000000 1.0
C      1  0.5466740000000  0.5645140000000  0.4567370000000 1.0
C      1  0.4702750000000  0.4615280000000  0.5498730000000 1.0
C      1  0.4060410000000  0.5228370000000  0.5390820000000 1.0
C      1  0.5700310000000  0.4446790000000  0.4766120000000 1.0
C      1  0.5345460000000  0.5804090000000  0.5177420000000 1.0
C      1  0.5187430000000  0.5022090000000  0.4956230000000 1.0
C      1  0.5230380000000  0.4636020000000  0.5445330000000 1.0
C      1  0.4146610000000  0.5032140000000  0.5579480000000 1.0
C      1  0.5106450000000  0.4064910000000  0.5125010000000 1.0
C      1  0.4522210000000  0.5640760000000  0.5299360000000 1.0
C      1  0.4342340000000  0.4775650000000  0.4842710000000 1.0
C      1  0.4857910000000  0.5442430000000  0.4979350000000 1.0
C      1  0.4773060000000  0.4727420000000  0.5788920000000 1.0
C      1  0.5467190000000  0.5390900000000  0.4428110000000 1.0
C      1  0.4543030000000  0.5261200000000  0.5667910000000 1.0
C      1  0.5126220000000  0.4888400000000  0.4241430000000 1.0
C      1  0.5690120000000  0.4616140000000  0.4512280000000 1.0
C      1  0.4778500000000  0.4691490000000  0.4674010000000 1.0
C      1  0.5005840000000  0.4435770000000  0.5520040000000 1.0
C      1  0.4429450000000  0.5141830000000  0.4234370000000 1.0
C      1  0.6079780000000  0.4726360000000  0.4976500000000 1.0
C      1  0.5350500000000  0.4608420000000  0.4781240000000 1.0
C      1  0.4371840000000  0.5370630000000  0.4621180000000 1.0
C      1  0.5040490000000  0.5584100000000  0.4192680000000 1.0
C      1  0.4040670000000  0.4778140000000  0.5229470000000 1.0
C      1  0.5102480000000  0.5435950000000  0.5189590000000 1.0
C      1  0.4940140000000  0.4512910000000  0.4482460000000 1.0
C      1  0.4802520000000  0.5488700000000  0.4064550000000 1.0
C      1  0.5399420000000  0.4551980000000  0.5211750000000 1.0
C      1  0.5630950000000  0.4756890000000  0.5145870000000 1.0
C      1  0.4357940000000  0.5069320000000  0.5784590000000 1.0
C      1  0.5042470000000  0.4309280000000  0.4671330000000 1.0
C      1  0.5109930000000  0.4475380000000  0.4965220000000 1.0
C      1  0.5136740000000  0.5318900000000  0.5462180000000 1.0
C      1  0.4827130000000  0.4098470000000  0.4694240000000 1.0
C      1  0.4255280000000  0.4790840000000  0.5446000000000 1.0
C      1  0.4196320000000  0.5228610000000  0.4421660000000 1.0
C      1  0.5039380000000  0.4474860000000  0.5821400000000 1.0
C      1  0.5625080000000  0.5051620000000  0.4995140000000 1.0
C      1  0.5520770000000  0.5555280000000  0.5123390000000 1.0
C      1  0.5667540000000  0.5175320000000  0.4336760000000 1.0
C      1  0.5052180000000  0.4832840000000  0.5330010000000 1.0
C      1  0.4496700000000  0.4397020000000  0.5561030000000 1.0
C      1  0.4993100000000  0.5759970000000  0.4442710000000 1.0
C      1  0.4681830000000  0.4960440000000  0.4551460000000 1.0
C      1  0.4833200000000  0.4076550000000  0.4988480000000 1.0
C      1  0.4892600000000  0.4685970000000  0.5103000000000 1.0
C      1  0.4723230000000  0.5730280000000  0.4569970000000 1.0
C      1  0.5077220000000  0.5429810000000  0.4743510000000 1.0
C      1  0.4949610000000  0.5799090000000  0.5526990000000 1.0
C      1  0.4915440000000  0.4989720000000  0.5764790000000 1.0
C      1  0.4076330000000  0.5022020000000  0.4607360000000 1.0
C      1  0.4524800000000  0.5114550000000  0.4773450000000 1.0
C      1  0.5270620000000  0.5308770000000  0.4962290000000 1.0
C      1  0.5001520000000  0.5259190000000  0.4490020000000 1.0
C      1  0.4905570000000  0.4951180000000  0.4933610000000 1.0
C      1  0.5392900000000  0.5703030000000  0.5696750000000 1.0
C      1  0.5214060000000  0.5341500000000  0.4282610000000 1.0
C      1  0.5441670000000  0.5232270000000  0.5497400000000 1.0
C      1  0.4574780000000  0.4174270000000  0.4584920000000 1.0
C      1  0.4797590000000  0.5741070000000  0.5291460000000 1.0
C      1  0.4556910000000  0.5532460000000  0.4456610000000 1.0
C      1  0.5755380000000  0.5612090000000  0.4954440000000 1.0
C      1  0.5548290000000  0.5058500000000  0.4703190000000 1.0
C      1  0.5291840000000  0.5098210000000  0.4108140000000 1.0
C      1  0.5066170000000  0.4973440000000  0.4511400000000 1.0
C      1  0.5319390000000  0.4562210000000  0.5814640000000 1.0
C      1  0.5508260000000  0.4196090000000  0.4785530000000 1.0
C      1  0.5387730000000  0.4143450000000  0.5052880000000 1.0
C      1  0.6018120000000  0.4952990000000  0.4761530000000 1.0
C      1  0.5315860000000  0.4224830000000  0.4567090000000 1.0
C      1  0.5564600000000  0.4969980000000  0.5593770000000 1.0
C      1  0.4147300000000  0.4619450000000  0.5013870000000 1.0
C      1  0.4480790000000  0.4875910000000  0.4346630000000 1.0
C      1  0.5385310000000  0.4842090000000  0.5799460000000 1.0
C      1  0.5155800000000  0.4598760000000  0.4285730000000 1.0
C      1  0.4290940000000  0.4584210000000  0.5671890000000 1.0
C      1  0.5775000000000  0.4827020000000  0.5410840000000 1.0
C      1  0.5951270000000  0.5416150000000  0.4974610000000 1.0
C      1  0.4261330000000  0.4392650000000  0.5131250000000 1.0
C      1  0.4939900000000  0.5068410000000  0.5479360000000 1.0
C      1  0.5624600000000  0.5559110000000  0.5614040000000 1.0
C      1  0.5779320000000  0.4910310000000  0.4559920000000 1.0
C      1  0.4458230000000  0.4781520000000  0.5852250000000 1.0
C      1  0.5250480000000  0.5871690000000  0.5468420000000 1.0
C      1  0.4454150000000  0.5458510000000  0.5496480000000 1.0
C      1  0.5403650000000  0.4482960000000  0.4424450000000 1.0
C      1  0.4107840000000  0.5146400000000  0.4899470000000 1.0
C      1  0.5692590000000  0.5714950000000  0.4708450000000 1.0
C      1  0.5293760000000  0.4903020000000  0.4717720000000 1.0
C      1  0.4872160000000  0.5879520000000  0.5041180000000 1.0
C      1  0.4713780000000  0.5174250000000  0.5018010000000 1.0
C      1  0.4476980000000  0.4296450000000  0.5282870000000 1.0
C      1  0.5156460000000  0.5866250000000  0.4946920000000 1.0
C      1  0.4416170000000  0.4405660000000  0.4586090000000 1.0
C      1  0.4682680000000  0.5338030000000  0.4281680000000 1.0
C      1  0.5827510000000  0.4573750000000  0.5007820000000 1.0
C      1  0.5907640000000  0.5130420000000  0.5001580000000 1.0
C      1  0.4659280000000  0.5107300000000  0.5340390000000 1.0
C      1  0.3998530000000  0.5065430000000  0.5161660000000 1.0
C      1  0.4237090000000  0.5433440000000  0.4887750000000 1.0
C      1  0.5189050000000  0.5706460000000  0.4670780000000 1.0
C      1  0.6022400000000  0.4945940000000  0.5238970000000 1.0
END
