TITL C-951348-1603-632 -1.5542433903465e-06 125000 -591.659763342028 0 0 95 (C1) n - 1
REM
REM in /home/bkarasulu/work/CARBON/AIRSS/Generating-Clusters/EDIP-Nigel-Params/with-SteepDescent/Only-C1/SD-CG/HFTN-CG
REM
REM
REM
REM
REM
REM ./C.cell (11c1c37f851c82e70ff6c80c92926a4b)
REM
REM compiler GCC version 9.2.1 20190827 (Red Hat 9.2.1-1)
REM options -cpp -mtune=generic -march=x86-64 -g -O0 -fpre-include=/usr/include/finclude/math-vector-fortran.h
REM seed -796422318 -367254152 1737144685 1793345675 1314786652 1464708191 939985783 -1654172002 -687834449 1204049857 -2103357032 471138270 -14592077 -1774731114 -1173006519 2076722578 839913418 1336132848 -636440876 -349574024 147098387 -1996165478 -369900360 2042039886 -933511041 538507448 -191631069 -1151423767 1282410579 1157326448 -1837023815 -1442725153 614603871
REM
CELL 1.54180   50.00000   50.00000   50.00000   90.00000   90.00000   90.00000
LATT -1
SFAC C  
C      1  0.5094790000000  0.5419820000000  0.5745980000000 1.0
C      1  0.5555450000000  0.4874030000000  0.5649170000000 1.0
C      1  0.4427150000000  0.5131360000000  0.5027080000000 1.0
C      1  0.4509940000000  0.5279870000000  0.4484120000000 1.0
C      1  0.5792470000000  0.5022150000000  0.4491860000000 1.0
C      1  0.4396850000000  0.4666330000000  0.5498710000000 1.0
C      1  0.5596870000000  0.4535370000000  0.4461220000000 1.0
C      1  0.4583740000000  0.5011250000000  0.4385860000000 1.0
C      1  0.4679450000000  0.4562830000000  0.5489200000000 1.0
C      1  0.5050680000000  0.5586230000000  0.4469660000000 1.0
C      1  0.5294050000000  0.4824830000000  0.4853350000000 1.0
C      1  0.5837520000000  0.5254550000000  0.5077770000000 1.0
C      1  0.5134740000000  0.4042060000000  0.5268020000000 1.0
C      1  0.5040160000000  0.4936670000000  0.5699020000000 1.0
C      1  0.5017060000000  0.4927000000000  0.5401420000000 1.0
C      1  0.5370340000000  0.4379340000000  0.5522590000000 1.0
C      1  0.4714760000000  0.5886510000000  0.4853570000000 1.0
C      1  0.5495050000000  0.5439290000000  0.4412920000000 1.0
C      1  0.4733980000000  0.4597370000000  0.4884100000000 1.0
C      1  0.4144870000000  0.5101220000000  0.4773520000000 1.0
C      1  0.5142750000000  0.4479420000000  0.4478890000000 1.0
C      1  0.5215990000000  0.4684400000000  0.5094190000000 1.0
C      1  0.5583160000000  0.4665450000000  0.4715120000000 1.0
C      1  0.5140130000000  0.4229380000000  0.4645570000000 1.0
C      1  0.4859910000000  0.4696440000000  0.4149720000000 1.0
C      1  0.5231130000000  0.5629430000000  0.4946980000000 1.0
C      1  0.5701600000000  0.4779680000000  0.5205880000000 1.0
C      1  0.5225900000000  0.5788300000000  0.5402680000000 1.0
C      1  0.4462750000000  0.4443430000000  0.4574370000000 1.0
C      1  0.5019810000000  0.4924370000000  0.4748910000000 1.0
C      1  0.4472500000000  0.5102780000000  0.5511650000000 1.0
C      1  0.4592840000000  0.4221310000000  0.5056790000000 1.0
C      1  0.4261750000000  0.4835350000000  0.4756030000000 1.0
C      1  0.4843970000000  0.5362650000000  0.5336400000000 1.0
C      1  0.4857770000000  0.4128810000000  0.4632190000000 1.0
C      1  0.4823680000000  0.4733340000000  0.5291530000000 1.0
C      1  0.4835050000000  0.4968330000000  0.4221870000000 1.0
C      1  0.5087620000000  0.5805730000000  0.5141340000000 1.0
C      1  0.4888360000000  0.5201020000000  0.5788880000000 1.0
C      1  0.4751980000000  0.5772230000000  0.5524820000000 1.0
C      1  0.4808130000000  0.4733110000000  0.4626100000000 1.0
C      1  0.4426760000000  0.4758640000000  0.4518350000000 1.0
C      1  0.4265350000000  0.4634810000000  0.4975600000000 1.0
C      1  0.5024400000000  0.5675320000000  0.5591720000000 1.0
C      1  0.4947290000000  0.4182560000000  0.5441010000000 1.0
C      1  0.4970640000000  0.5385280000000  0.4693200000000 1.0
C      1  0.4275450000000  0.4684430000000  0.5248390000000 1.0
C      1  0.5171980000000  0.5773160000000  0.4674990000000 1.0
C      1  0.5115820000000  0.5107710000000  0.4298880000000 1.0
C      1  0.5468780000000  0.5354760000000  0.5391590000000 1.0
C      1  0.4708780000000  0.4305460000000  0.5325380000000 1.0
C      1  0.5181270000000  0.4246330000000  0.4955290000000 1.0
C      1  0.5090750000000  0.4377920000000  0.5617110000000 1.0
C      1  0.5420550000000  0.5076900000000  0.4950020000000 1.0
C      1  0.5334950000000  0.5008700000000  0.5750300000000 1.0
C      1  0.5356320000000  0.4618910000000  0.4342570000000 1.0
C      1  0.5713930000000  0.5483030000000  0.4911480000000 1.0
C      1  0.5351760000000  0.4909670000000  0.4265900000000 1.0
C      1  0.4998580000000  0.4484830000000  0.5047850000000 1.0
C      1  0.5608780000000  0.5022740000000  0.4290210000000 1.0
C      1  0.5349200000000  0.5292250000000  0.5671820000000 1.0
C      1  0.4363270000000  0.4890640000000  0.5659630000000 1.0
C      1  0.5402840000000  0.4155200000000  0.5322600000000 1.0
C      1  0.5789930000000  0.4872400000000  0.4729870000000 1.0
C      1  0.4742230000000  0.4062280000000  0.4882390000000 1.0
C      1  0.4325150000000  0.5230730000000  0.5292770000000 1.0
C      1  0.5016420000000  0.5159690000000  0.5216850000000 1.0
C      1  0.5288050000000  0.5286700000000  0.5127700000000 1.0
C      1  0.4918650000000  0.4617650000000  0.5707650000000 1.0
C      1  0.5492080000000  0.5650210000000  0.5349160000000 1.0
C      1  0.5077450000000  0.5140820000000  0.4589500000000 1.0
C      1  0.5702870000000  0.4997210000000  0.4989260000000 1.0
C      1  0.4541590000000  0.5580030000000  0.5580680000000 1.0
C      1  0.4658710000000  0.5338160000000  0.4895030000000 1.0
C      1  0.4858320000000  0.5062010000000  0.4974700000000 1.0
C      1  0.4701660000000  0.4316980000000  0.4452840000000 1.0
C      1  0.4880070000000  0.4550620000000  0.4401530000000 1.0
C      1  0.4404060000000  0.5519440000000  0.5308820000000 1.0
C      1  0.5657400000000  0.5444990000000  0.4632760000000 1.0
C      1  0.5515570000000  0.5658680000000  0.5048080000000 1.0
C      1  0.4684270000000  0.5300690000000  0.5585400000000 1.0
C      1  0.5738520000000  0.4940120000000  0.5448110000000 1.0
C      1  0.5477120000000  0.4300870000000  0.5064470000000 1.0
C      1  0.5461530000000  0.4574470000000  0.5217040000000 1.0
C      1  0.4301020000000  0.5581220000000  0.4794220000000 1.0
C      1  0.5238940000000  0.5421890000000  0.4291830000000 1.0
C      1  0.4669720000000  0.5527970000000  0.4497360000000 1.0
C      1  0.4957280000000  0.5949760000000  0.4721930000000 1.0
C      1  0.4534090000000  0.5707450000000  0.4690890000000 1.0
C      1  0.4405250000000  0.4392570000000  0.4874590000000 1.0
C      1  0.4784010000000  0.5803020000000  0.5144210000000 1.0
C      1  0.4286490000000  0.5329320000000  0.4661690000000 1.0
C      1  0.4672030000000  0.5514680000000  0.5152530000000 1.0
C      1  0.5747430000000  0.5232860000000  0.5367760000000 1.0
C      1  0.4647920000000  0.4842200000000  0.5065440000000 1.0
END
