TITL C-950527-2551-715 -8.5070132357254e-07 125000 -294.915111612815 0 0 49 (C1) n - 1
REM
REM in /home/bkarasulu/work/CARBON/AIRSS/Generating-Clusters/EDIP-Nigel-Params/with-SteepDescent/Only-C1/SD-CG/HFTN-CG
REM
REM
REM
REM
REM
REM ./C.cell (11c1c37f851c82e70ff6c80c92926a4b)
REM
REM compiler GCC version 9.2.1 20190827 (Red Hat 9.2.1-1)
REM options -cpp -mtune=generic -march=x86-64 -g -O0 -fpre-include=/usr/include/finclude/math-vector-fortran.h
REM seed -981289739 -667950321 1808328432 1774581064 -453175175 -490649631 1942308439 -1640923289 -144886646 -1401349879 72620450 -1958374099 -2003064875 -955784902 -1651713477 562729531 506569821 430298973 -1729889484 43947564 -1290772943 -214643761 1802760058 -502560920 -1729147115 2023155747 1628008455 1008385907 -939301266 1385488916 -304803327 470654947 -1193068442
REM
CELL 1.54180   50.00000   50.00000   50.00000   90.00000   90.00000   90.00000
LATT -1
SFAC C  
C      1  0.4877280000000  0.4896030000000  0.4550770000000 1.0
C      1  0.4987310000000  0.4384900000000  0.5266860000000 1.0
C      1  0.4419080000000  0.4840390000000  0.5251200000000 1.0
C      1  0.4984590000000  0.5526070000000  0.5514660000000 1.0
C      1  0.5309960000000  0.4832240000000  0.5373690000000 1.0
C      1  0.4588910000000  0.5311560000000  0.5320030000000 1.0
C      1  0.4726990000000  0.5352940000000  0.4497510000000 1.0
C      1  0.5572020000000  0.4612120000000  0.4978260000000 1.0
C      1  0.4863510000000  0.4419860000000  0.4691050000000 1.0
C      1  0.4545050000000  0.4513920000000  0.4877290000000 1.0
C      1  0.4917170000000  0.5621520000000  0.5154070000000 1.0
C      1  0.5056160000000  0.5650400000000  0.4674510000000 1.0
C      1  0.4545740000000  0.5102550000000  0.4849410000000 1.0
C      1  0.5003940000000  0.5437040000000  0.4499180000000 1.0
C      1  0.5783490000000  0.4907010000000  0.5313470000000 1.0
C      1  0.4769360000000  0.4618850000000  0.4510280000000 1.0
C      1  0.4695150000000  0.5106730000000  0.5696220000000 1.0
C      1  0.5302250000000  0.5001830000000  0.4886450000000 1.0
C      1  0.5409150000000  0.4547230000000  0.4696530000000 1.0
C      1  0.4562730000000  0.5392950000000  0.4839730000000 1.0
C      1  0.4827270000000  0.4992060000000  0.4845430000000 1.0
C      1  0.4667950000000  0.5079930000000  0.4422750000000 1.0
C      1  0.4439450000000  0.4966880000000  0.4600400000000 1.0
C      1  0.4605430000000  0.4645480000000  0.5145030000000 1.0
C      1  0.4858320000000  0.4791270000000  0.5080130000000 1.0
C      1  0.5183120000000  0.5393540000000  0.5328710000000 1.0
C      1  0.5152770000000  0.4390840000000  0.4721000000000 1.0
C      1  0.4732840000000  0.4468960000000  0.5361360000000 1.0
C      1  0.4852150000000  0.4882620000000  0.5603050000000 1.0
C      1  0.4724140000000  0.5383000000000  0.5571320000000 1.0
C      1  0.5011670000000  0.4931080000000  0.5354900000000 1.0
C      1  0.4491390000000  0.4655980000000  0.4613650000000 1.0
C      1  0.5731030000000  0.4879200000000  0.5036320000000 1.0
C      1  0.4745980000000  0.4622490000000  0.5596570000000 1.0
C      1  0.4440900000000  0.5072240000000  0.5403770000000 1.0
C      1  0.5479580000000  0.5276240000000  0.5262660000000 1.0
C      1  0.5052510000000  0.5189620000000  0.4928950000000 1.0
C      1  0.5216700000000  0.5239080000000  0.4516650000000 1.0
C      1  0.5655560000000  0.5306580000000  0.4775890000000 1.0
C      1  0.5086180000000  0.5515750000000  0.4924760000000 1.0
C      1  0.5158920000000  0.4961990000000  0.4473160000000 1.0
C      1  0.5310920000000  0.4741460000000  0.5084230000000 1.0
C      1  0.4637680000000  0.5504130000000  0.5101720000000 1.0
C      1  0.5379220000000  0.4804970000000  0.4565210000000 1.0
C      1  0.5554170000000  0.5131830000000  0.4982820000000 1.0
C      1  0.5061070000000  0.4566450000000  0.5050660000000 1.0
C      1  0.5478980000000  0.5315470000000  0.4572500000000 1.0
C      1  0.5540710000000  0.5021650000000  0.5413390000000 1.0
C      1  0.5003550000000  0.5193090000000  0.5221860000000 1.0
END
