TITL C-951335-1172-526 -4.6553324472052e-07 125000 -579.203748787741 0 0 94 (C1) n - 1
REM
REM in /home/bkarasulu/work/CARBON/AIRSS/Generating-Clusters/EDIP-Nigel-Params/with-SteepDescent/Only-C1/SD-CG/HFTN-CG
REM
REM
REM
REM
REM
REM ./C.cell (11c1c37f851c82e70ff6c80c92926a4b)
REM
REM compiler GCC version 9.2.1 20190827 (Red Hat 9.2.1-1)
REM options -cpp -mtune=generic -march=x86-64 -g -O0 -fpre-include=/usr/include/finclude/math-vector-fortran.h
REM seed 1774857458 1315317773 1286475448 114282758 1889093728 1004775731 615448196 -821300884 -1509999062 -1369732354 893537481 37187720 404082615 -183205009 883085902 -1362351693 1682276440 -1159468717 1846232466 1224592352 828041303 1537336139 957112810 3392233 1308518411 -121830219 -254324049 -394723360 -1395194016 558461786 -1871227935 -1546201491 2107135293
REM
CELL 1.54180   50.00000   50.00000   50.00000   90.00000   90.00000   90.00000
LATT -1
SFAC C  
C      1  0.5508420000000  0.5612490000000  0.5448980000000 1.0
C      1  0.4411350000000  0.4582950000000  0.4528270000000 1.0
C      1  0.4910150000000  0.4415330000000  0.4227300000000 1.0
C      1  0.4095380000000  0.5292430000000  0.5084350000000 1.0
C      1  0.5797290000000  0.4986770000000  0.5646150000000 1.0
C      1  0.5122380000000  0.4720370000000  0.5617000000000 1.0
C      1  0.5659800000000  0.4453020000000  0.5152390000000 1.0
C      1  0.4716840000000  0.4872940000000  0.4912080000000 1.0
C      1  0.5947070000000  0.4854980000000  0.5072750000000 1.0
C      1  0.5497640000000  0.5015420000000  0.5368120000000 1.0
C      1  0.5587700000000  0.5459790000000  0.5178640000000 1.0
C      1  0.4687910000000  0.5609970000000  0.5585810000000 1.0
C      1  0.5137660000000  0.5331750000000  0.5052140000000 1.0
C      1  0.5765800000000  0.4896890000000  0.4625710000000 1.0
C      1  0.4853300000000  0.5080540000000  0.5326140000000 1.0
C      1  0.5194740000000  0.5113780000000  0.4836900000000 1.0
C      1  0.4839720000000  0.5580870000000  0.5332780000000 1.0
C      1  0.5519720000000  0.4354060000000  0.5396860000000 1.0
C      1  0.5025990000000  0.4968320000000  0.5967030000000 1.0
C      1  0.4481790000000  0.5028750000000  0.4316160000000 1.0
C      1  0.5402030000000  0.5251780000000  0.4295050000000 1.0
C      1  0.4566630000000  0.5105730000000  0.4896410000000 1.0
C      1  0.5513310000000  0.4487770000000  0.4642020000000 1.0
C      1  0.4740010000000  0.4247050000000  0.5023030000000 1.0
C      1  0.5045780000000  0.5038020000000  0.4594320000000 1.0
C      1  0.4843410000000  0.4326100000000  0.4506300000000 1.0
C      1  0.5475160000000  0.5427900000000  0.5689660000000 1.0
C      1  0.5787530000000  0.4698250000000  0.5246270000000 1.0
C      1  0.5252520000000  0.5775390000000  0.5441010000000 1.0
C      1  0.5227800000000  0.4326840000000  0.5325340000000 1.0
C      1  0.4969420000000  0.4439440000000  0.4962550000000 1.0
C      1  0.4367730000000  0.5237140000000  0.4741950000000 1.0
C      1  0.5788640000000  0.4725700000000  0.5533480000000 1.0
C      1  0.5211220000000  0.4442630000000  0.4207770000000 1.0
C      1  0.4864370000000  0.4814820000000  0.5173530000000 1.0
C      1  0.5056880000000  0.5678990000000  0.4727700000000 1.0
C      1  0.4513170000000  0.4216080000000  0.4840350000000 1.0
C      1  0.4066920000000  0.4910640000000  0.4754920000000 1.0
C      1  0.5177080000000  0.4721630000000  0.5129940000000 1.0
C      1  0.4366860000000  0.4948460000000  0.5406250000000 1.0
C      1  0.4045730000000  0.5020650000000  0.5022390000000 1.0
C      1  0.4667050000000  0.5575530000000  0.4542700000000 1.0
C      1  0.4369240000000  0.5250970000000  0.5455860000000 1.0
C      1  0.4732120000000  0.4587550000000  0.5372760000000 1.0
C      1  0.4331150000000  0.4363470000000  0.5146340000000 1.0
C      1  0.5505790000000  0.5501110000000  0.4647130000000 1.0
C      1  0.5273040000000  0.5628160000000  0.4530950000000 1.0
C      1  0.5259470000000  0.4711620000000  0.4114190000000 1.0
C      1  0.4619930000000  0.5232150000000  0.4195410000000 1.0
C      1  0.4967260000000  0.4537520000000  0.4681400000000 1.0
C      1  0.4971490000000  0.5516190000000  0.4172550000000 1.0
C      1  0.5583640000000  0.4539860000000  0.5611210000000 1.0
C      1  0.4794840000000  0.5771830000000  0.4854430000000 1.0
C      1  0.5045860000000  0.5178680000000  0.5768860000000 1.0
C      1  0.5459270000000  0.4450340000000  0.4932460000000 1.0
C      1  0.4459360000000  0.5514550000000  0.4736480000000 1.0
C      1  0.5016220000000  0.4858580000000  0.4105340000000 1.0
C      1  0.5843670000000  0.5019420000000  0.4866050000000 1.0
C      1  0.4597510000000  0.4336840000000  0.5259580000000 1.0
C      1  0.4704130000000  0.4893290000000  0.5760170000000 1.0
C      1  0.5152820000000  0.5840610000000  0.5168530000000 1.0
C      1  0.5630320000000  0.5192030000000  0.5719880000000 1.0
C      1  0.4201710000000  0.4654740000000  0.4747140000000 1.0
C      1  0.5504760000000  0.4782690000000  0.4640410000000 1.0
C      1  0.5251430000000  0.4990380000000  0.4373060000000 1.0
C      1  0.5344450000000  0.5294900000000  0.5287800000000 1.0
C      1  0.5221400000000  0.5621090000000  0.4968700000000 1.0
C      1  0.4544540000000  0.4317420000000  0.4570240000000 1.0
C      1  0.4791700000000  0.4686440000000  0.4179440000000 1.0
C      1  0.4840590000000  0.4814390000000  0.4647740000000 1.0
C      1  0.4622290000000  0.4783800000000  0.4413490000000 1.0
C      1  0.4546210000000  0.4755630000000  0.5557770000000 1.0
C      1  0.5192780000000  0.5434080000000  0.5781780000000 1.0
C      1  0.4581990000000  0.5348400000000  0.5643050000000 1.0
C      1  0.5591330000000  0.5036330000000  0.5052130000000 1.0
C      1  0.4792860000000  0.5135760000000  0.5619100000000 1.0
C      1  0.4540900000000  0.5525620000000  0.5029810000000 1.0
C      1  0.5058210000000  0.5662490000000  0.5645710000000 1.0
C      1  0.4277110000000  0.4617340000000  0.5030830000000 1.0
C      1  0.5221470000000  0.4302680000000  0.5027500000000 1.0
C      1  0.5158620000000  0.4732740000000  0.5900260000000 1.0
C      1  0.4184980000000  0.4835550000000  0.5200780000000 1.0
C      1  0.4986500000000  0.4487740000000  0.5508410000000 1.0
C      1  0.5366990000000  0.4886730000000  0.4907150000000 1.0
C      1  0.4848840000000  0.5321920000000  0.5157510000000 1.0
C      1  0.4305670000000  0.5428050000000  0.5217690000000 1.0
C      1  0.5628630000000  0.5321500000000  0.4461620000000 1.0
C      1  0.4294660000000  0.5138400000000  0.4486460000000 1.0
C      1  0.4719780000000  0.5475780000000  0.4276120000000 1.0
C      1  0.5230130000000  0.5498140000000  0.4275710000000 1.0
C      1  0.5348780000000  0.4370230000000  0.4444800000000 1.0
C      1  0.5588190000000  0.5595480000000  0.4915200000000 1.0
C      1  0.5335080000000  0.4749400000000  0.5406710000000 1.0
C      1  0.4850380000000  0.5821450000000  0.5147840000000 1.0
END
