TITL C-950523-3027-480 1.57736885935294e-07 125000 -210.93942942753 0 0 36 (C1) n - 1
REM
REM in /home/bkarasulu/work/CARBON/AIRSS/Generating-Clusters/EDIP-Nigel-Params/with-SteepDescent/Only-C1/SD-CG/HFTN-CG
REM
REM
REM
REM
REM
REM ./C.cell (11c1c37f851c82e70ff6c80c92926a4b)
REM
REM compiler GCC version 9.2.1 20190827 (Red Hat 9.2.1-1)
REM options -cpp -mtune=generic -march=x86-64 -g -O0 -fpre-include=/usr/include/finclude/math-vector-fortran.h
REM seed 862184257 -1361289161 -1937334657 1773810333 1830977385 -20752319 1104504260 1925305220 -1698358263 -1802755663 1414477298 891022703 161787786 446126228 270377 -881012847 -1080028286 1767552466 -839600326 -1619986207 747688532 -1694303852 1063053725 326351359 42517280 -1398823401 -1915394205 -505386472 2139910784 544589839 -1923947290 -1939264468 -800519053
REM
CELL 1.54180   50.00000   50.00000   50.00000   90.00000   90.00000   90.00000
LATT -1
SFAC C  
C      1  0.4867470000000  0.4608910000000  0.4620050000000 1.0
C      1  0.5103660000000  0.5321370000000  0.5393620000000 1.0
C      1  0.4843360000000  0.5245160000000  0.4466510000000 1.0
C      1  0.4637410000000  0.5105840000000  0.5309740000000 1.0
C      1  0.5169940000000  0.5446980000000  0.4792730000000 1.0
C      1  0.4621870000000  0.4988430000000  0.4830430000000 1.0
C      1  0.4815410000000  0.4998620000000  0.4329910000000 1.0
C      1  0.5445420000000  0.4997760000000  0.5433450000000 1.0
C      1  0.5208880000000  0.4355760000000  0.5112850000000 1.0
C      1  0.4607430000000  0.4708660000000  0.4733260000000 1.0
C      1  0.5185700000000  0.5004360000000  0.4622310000000 1.0
C      1  0.4696230000000  0.5265270000000  0.4727230000000 1.0
C      1  0.5406790000000  0.5312410000000  0.4945280000000 1.0
C      1  0.4474540000000  0.5421250000000  0.4698550000000 1.0
C      1  0.4528300000000  0.4648830000000  0.5099360000000 1.0
C      1  0.4687130000000  0.4525660000000  0.5299030000000 1.0
C      1  0.4894620000000  0.5398050000000  0.4929400000000 1.0
C      1  0.5290190000000  0.4974680000000  0.5668770000000 1.0
C      1  0.4855280000000  0.4955090000000  0.5440480000000 1.0
C      1  0.4924790000000  0.4693300000000  0.5295070000000 1.0
C      1  0.5411780000000  0.4873170000000  0.5008940000000 1.0
C      1  0.5018730000000  0.5187650000000  0.5108340000000 1.0
C      1  0.5204390000000  0.4555670000000  0.5315660000000 1.0
C      1  0.4749860000000  0.5570450000000  0.5118720000000 1.0
C      1  0.5581880000000  0.5131910000000  0.4786740000000 1.0
C      1  0.5126240000000  0.5290090000000  0.4543590000000 1.0
C      1  0.4998080000000  0.4828060000000  0.4460460000000 1.0
C      1  0.4949330000000  0.4731130000000  0.4985310000000 1.0
C      1  0.5081510000000  0.4478800000000  0.4895470000000 1.0
C      1  0.5437020000000  0.4752000000000  0.5269320000000 1.0
C      1  0.5370710000000  0.5249670000000  0.5266870000000 1.0
C      1  0.4634350000000  0.5389370000000  0.5289850000000 1.0
C      1  0.5473150000000  0.4971280000000  0.4579480000000 1.0
C      1  0.4507890000000  0.4946710000000  0.5093250000000 1.0
C      1  0.5139690000000  0.4953990000000  0.4930560000000 1.0
C      1  0.5050950000000  0.5113670000000  0.5599430000000 1.0
END
