TITL C-950521-2237-630 -2.85229786864117e-06 125000 -1036.73876390227 0 0 165 (C1) n - 1
REM
REM in /home/bkarasulu/work/CARBON/AIRSS/Generating-Clusters/EDIP-Nigel-Params/with-SteepDescent/Only-C1/SD-CG/HFTN-CG
REM
REM
REM
REM
REM
REM ./C.cell (11c1c37f851c82e70ff6c80c92926a4b)
REM
REM compiler GCC version 9.2.1 20190827 (Red Hat 9.2.1-1)
REM options -cpp -mtune=generic -march=x86-64 -g -O0 -fpre-include=/usr/include/finclude/math-vector-fortran.h
REM seed -1320768102 1602576540 -1974964467 -2030952229 916771995 985438219 1565535945 1376850718 -117157301 625463550 1499746952 1766370693 810338591 947284825 -86764310 -508668437 -1106679664 1181164013 -280127371 493413052 1947550834 1707000758 852966506 1268921444 1773731013 -1964133220 -1548764643 -71922147 835330219 -81985549 -230428937 172087402 570668947
REM
CELL 1.54180   50.00000   50.00000   50.00000   90.00000   90.00000   90.00000
LATT -1
SFAC C  
C      1  0.4891060000000  0.5062520000000  0.4369690000000 1.0
C      1  0.5816130000000  0.4741150000000  0.4416070000000 1.0
C      1  0.5035010000000  0.5318190000000  0.4340640000000 1.0
C      1  0.5630540000000  0.4896830000000  0.4255270000000 1.0
C      1  0.5437820000000  0.4675060000000  0.4879590000000 1.0
C      1  0.5616540000000  0.5661490000000  0.5645420000000 1.0
C      1  0.4970740000000  0.4709690000000  0.3937290000000 1.0
C      1  0.5865990000000  0.4513570000000  0.5575180000000 1.0
C      1  0.5858690000000  0.5621490000000  0.5233480000000 1.0
C      1  0.4208340000000  0.5646570000000  0.5246560000000 1.0
C      1  0.4499190000000  0.4626970000000  0.4647350000000 1.0
C      1  0.5192810000000  0.4056280000000  0.5070440000000 1.0
C      1  0.5344550000000  0.3986000000000  0.5321410000000 1.0
C      1  0.4828960000000  0.4263260000000  0.4698910000000 1.0
C      1  0.4841730000000  0.4400300000000  0.5575410000000 1.0
C      1  0.4378550000000  0.5513350000000  0.4496840000000 1.0
C      1  0.4136690000000  0.4704800000000  0.5486220000000 1.0
C      1  0.5477720000000  0.4396080000000  0.4301010000000 1.0
C      1  0.5113720000000  0.5873810000000  0.5385540000000 1.0
C      1  0.5039950000000  0.5801640000000  0.4317970000000 1.0
C      1  0.5682010000000  0.4909960000000  0.5219300000000 1.0
C      1  0.5029310000000  0.4414660000000  0.5802940000000 1.0
C      1  0.4753120000000  0.5816050000000  0.4585310000000 1.0
C      1  0.4781420000000  0.5184560000000  0.5099000000000 1.0
C      1  0.4499810000000  0.5856400000000  0.5352980000000 1.0
C      1  0.5909520000000  0.4603680000000  0.4868970000000 1.0
C      1  0.5070590000000  0.5391230000000  0.5447850000000 1.0
C      1  0.4781670000000  0.5418310000000  0.5843970000000 1.0
C      1  0.5354400000000  0.3979290000000  0.4820510000000 1.0
C      1  0.5912780000000  0.4826130000000  0.4672220000000 1.0
C      1  0.5557630000000  0.5649240000000  0.4326080000000 1.0
C      1  0.5132430000000  0.5568440000000  0.4748460000000 1.0
C      1  0.5921960000000  0.5433770000000  0.5007480000000 1.0
C      1  0.5200770000000  0.4727100000000  0.4395800000000 1.0
C      1  0.5806500000000  0.4344220000000  0.4698740000000 1.0
C      1  0.5345230000000  0.5295450000000  0.5455890000000 1.0
C      1  0.4638240000000  0.5798230000000  0.5619280000000 1.0
C      1  0.4875390000000  0.5183220000000  0.3944110000000 1.0
C      1  0.4786670000000  0.4909310000000  0.5494970000000 1.0
C      1  0.5018850000000  0.5535680000000  0.5724530000000 1.0
C      1  0.5711920000000  0.5195540000000  0.5788910000000 1.0
C      1  0.3975800000000  0.4839290000000  0.4541070000000 1.0
C      1  0.4910690000000  0.4479110000000  0.5096360000000 1.0
C      1  0.5242160000000  0.4297360000000  0.4503000000000 1.0
C      1  0.5712260000000  0.5404740000000  0.4430350000000 1.0
C      1  0.5016560000000  0.4664960000000  0.5948600000000 1.0
C      1  0.4815030000000  0.5570570000000  0.4783300000000 1.0
C      1  0.5023810000000  0.4501050000000  0.4380850000000 1.0
C      1  0.4223320000000  0.5123200000000  0.4172900000000 1.0
C      1  0.4140550000000  0.5154950000000  0.4695700000000 1.0
C      1  0.3998630000000  0.5207390000000  0.5310240000000 1.0
C      1  0.4526310000000  0.4684150000000  0.5785150000000 1.0
C      1  0.5283100000000  0.5016940000000  0.6180480000000 1.0
C      1  0.4632990000000  0.4066620000000  0.4567760000000 1.0
C      1  0.4050260000000  0.4914390000000  0.5294330000000 1.0
C      1  0.4826290000000  0.6074140000000  0.4721800000000 1.0
C      1  0.4284840000000  0.5107480000000  0.5791470000000 1.0
C      1  0.4410160000000  0.4177140000000  0.5260730000000 1.0
C      1  0.5609730000000  0.5194550000000  0.4233870000000 1.0
C      1  0.4853620000000  0.5251530000000  0.6067000000000 1.0
C      1  0.5926770000000  0.4788670000000  0.5636640000000 1.0
C      1  0.5752000000000  0.4291940000000  0.5184950000000 1.0
C      1  0.5644430000000  0.5836840000000  0.5234410000000 1.0
C      1  0.5389700000000  0.5317220000000  0.4075670000000 1.0
C      1  0.4135090000000  0.5512770000000  0.4984480000000 1.0
C      1  0.5491670000000  0.4722060000000  0.5836360000000 1.0
C      1  0.6111470000000  0.4642150000000  0.5110630000000 1.0
C      1  0.4538150000000  0.5548930000000  0.5760720000000 1.0
C      1  0.5157700000000  0.3989820000000  0.4595520000000 1.0
C      1  0.4580290000000  0.6090780000000  0.4887700000000 1.0
C      1  0.4884860000000  0.3877560000000  0.4711560000000 1.0
C      1  0.5476270000000  0.5811910000000  0.5000950000000 1.0
C      1  0.4702460000000  0.5416160000000  0.4064120000000 1.0
C      1  0.4097950000000  0.5386320000000  0.4505730000000 1.0
C      1  0.5063980000000  0.6060310000000  0.4888860000000 1.0
C      1  0.5404350000000  0.4554820000000  0.5393640000000 1.0
C      1  0.5623370000000  0.5146860000000  0.4747390000000 1.0
C      1  0.4562740000000  0.5364140000000  0.4702110000000 1.0
C      1  0.4380470000000  0.4169780000000  0.4687570000000 1.0
C      1  0.5166920000000  0.4066540000000  0.5541070000000 1.0
C      1  0.4936170000000  0.4457280000000  0.4091950000000 1.0
C      1  0.5097160000000  0.4934080000000  0.4564610000000 1.0
C      1  0.4414390000000  0.5092710000000  0.6039800000000 1.0
C      1  0.5271960000000  0.4790370000000  0.6011780000000 1.0
C      1  0.5255040000000  0.5441980000000  0.5900400000000 1.0
C      1  0.5481680000000  0.5394660000000  0.5709260000000 1.0
C      1  0.4350450000000  0.4403070000000  0.5450070000000 1.0
C      1  0.5916700000000  0.4985270000000  0.5405300000000 1.0
C      1  0.4884360000000  0.4136250000000  0.5451340000000 1.0
C      1  0.4773240000000  0.4828660000000  0.5875570000000 1.0
C      1  0.4361400000000  0.5955490000000  0.4763560000000 1.0
C      1  0.4027170000000  0.4563760000000  0.4653980000000 1.0
C      1  0.5488180000000  0.5841000000000  0.4538320000000 1.0
C      1  0.3952600000000  0.4830860000000  0.5040740000000 1.0
C      1  0.4514100000000  0.4940920000000  0.5368170000000 1.0
C      1  0.5140620000000  0.5212890000000  0.6041850000000 1.0
C      1  0.5741580000000  0.4454670000000  0.4429180000000 1.0
C      1  0.5185740000000  0.4360180000000  0.5065510000000 1.0
C      1  0.5068540000000  0.5614000000000  0.5231730000000 1.0
C      1  0.4974220000000  0.6059350000000  0.5175200000000 1.0
C      1  0.4161560000000  0.5419330000000  0.5431260000000 1.0
C      1  0.4218050000000  0.4863160000000  0.4342770000000 1.0
C      1  0.5781480000000  0.5505450000000  0.4748190000000 1.0
C      1  0.5201870000000  0.4729140000000  0.5311730000000 1.0
C      1  0.6132370000000  0.4948920000000  0.5200060000000 1.0
C      1  0.4568830000000  0.4761920000000  0.5122210000000 1.0
C      1  0.5182840000000  0.5128420000000  0.3970300000000 1.0
C      1  0.5440270000000  0.5335920000000  0.5180850000000 1.0
C      1  0.5218110000000  0.5365180000000  0.4558910000000 1.0
C      1  0.4913270000000  0.4634340000000  0.5370700000000 1.0
C      1  0.6073360000000  0.5174820000000  0.4983970000000 1.0
C      1  0.5465310000000  0.5851610000000  0.5467030000000 1.0
C      1  0.4498660000000  0.5256210000000  0.5188970000000 1.0
C      1  0.4918310000000  0.5143990000000  0.5356740000000 1.0
C      1  0.5326930000000  0.5596750000000  0.4155510000000 1.0
C      1  0.4476440000000  0.5286790000000  0.4243270000000 1.0
C      1  0.4890910000000  0.3968220000000  0.5038260000000 1.0
C      1  0.4445370000000  0.4890970000000  0.4527570000000 1.0
C      1  0.4807770000000  0.5626780000000  0.5082410000000 1.0
C      1  0.5600920000000  0.4150350000000  0.4792800000000 1.0
C      1  0.5651060000000  0.5777290000000  0.4769910000000 1.0
C      1  0.4435370000000  0.4475150000000  0.4057470000000 1.0
C      1  0.4647940000000  0.4008620000000  0.5333430000000 1.0
C      1  0.4793470000000  0.4919710000000  0.4041220000000 1.0
C      1  0.5902960000000  0.5256390000000  0.5572630000000 1.0
C      1  0.4341400000000  0.5288320000000  0.4915910000000 1.0
C      1  0.5240250000000  0.4844670000000  0.5027200000000 1.0
C      1  0.5324670000000  0.5119380000000  0.4645300000000 1.0
C      1  0.3891210000000  0.5060190000000  0.4851120000000 1.0
C      1  0.5511440000000  0.4481120000000  0.5651180000000 1.0
C      1  0.4398430000000  0.4581480000000  0.4949300000000 1.0
C      1  0.5724650000000  0.4896560000000  0.5823150000000 1.0
C      1  0.4805370000000  0.4548240000000  0.4607430000000 1.0
C      1  0.5188380000000  0.5839660000000  0.4605700000000 1.0
C      1  0.5283860000000  0.4273020000000  0.5739580000000 1.0
C      1  0.4944070000000  0.5819530000000  0.5637120000000 1.0
C      1  0.4881820000000  0.5546720000000  0.4267880000000 1.0
C      1  0.5408130000000  0.4711710000000  0.4180470000000 1.0
C      1  0.4250480000000  0.4563830000000  0.4239690000000 1.0
C      1  0.6004680000000  0.5085500000000  0.4720800000000 1.0
C      1  0.4276400000000  0.4437070000000  0.4524920000000 1.0
C      1  0.4557060000000  0.4433530000000  0.5652480000000 1.0
C      1  0.5598700000000  0.4105820000000  0.5322940000000 1.0
C      1  0.5866700000000  0.5547410000000  0.5513220000000 1.0
C      1  0.4982050000000  0.4812350000000  0.4825070000000 1.0
C      1  0.5291620000000  0.5565620000000  0.5030990000000 1.0
C      1  0.4453820000000  0.5809320000000  0.4539950000000 1.0
C      1  0.4091340000000  0.4599270000000  0.4933740000000 1.0
C      1  0.4459410000000  0.4280740000000  0.4976250000000 1.0
C      1  0.5968490000000  0.4437890000000  0.5309430000000 1.0
C      1  0.4348170000000  0.4860360000000  0.5623650000000 1.0
C      1  0.3913420000000  0.5308400000000  0.5043850000000 1.0
C      1  0.4671100000000  0.6039440000000  0.5166670000000 1.0
C      1  0.4330450000000  0.5362470000000  0.5655880000000 1.0
C      1  0.4738700000000  0.4934380000000  0.4950550000000 1.0
C      1  0.5324860000000  0.4417850000000  0.4808240000000 1.0
C      1  0.4759970000000  0.4254250000000  0.4980540000000 1.0
C      1  0.5244720000000  0.4831970000000  0.3948550000000 1.0
C      1  0.4681900000000  0.5020690000000  0.6085970000000 1.0
C      1  0.5669060000000  0.4646330000000  0.5059900000000 1.0
C      1  0.4614900000000  0.5130150000000  0.4483960000000 1.0
C      1  0.4584220000000  0.5550750000000  0.5261340000000 1.0
C      1  0.4677620000000  0.4365030000000  0.4053550000000 1.0
C      1  0.5509240000000  0.5086110000000  0.5044760000000 1.0
C      1  0.4016870000000  0.5295340000000  0.4252690000000 1.0
END
