TITL C-950530-3293-640 -6.05565422354549e-07 125000 -278.748281056306 0 0 47 (C1) n - 1
REM
REM in /home/bkarasulu/work/CARBON/AIRSS/Generating-Clusters/EDIP-Nigel-Params/with-SteepDescent/Only-C1/SD-CG/HFTN-CG
REM
REM
REM
REM
REM
REM ./C.cell (11c1c37f851c82e70ff6c80c92926a4b)
REM
REM compiler GCC version 9.2.1 20190827 (Red Hat 9.2.1-1)
REM options -cpp -mtune=generic -march=x86-64 -g -O0 -fpre-include=/usr/include/finclude/math-vector-fortran.h
REM seed -721702058 379335512 -2137591647 1058541729 -1410057514 631018748 2036871189 -1194913215 -735426018 1741196439 -1700335023 -1749685530 -283216109 624507113 673352388 -277000503 47193770 970144681 -1210392151 -997690925 1597454494 825540432 1455385826 -1437344173 -25259513 374744079 833253997 1237942222 -180705053 913685339 -992341558 878949097 -1761533367
REM
CELL 1.54180   50.00000   50.00000   50.00000   90.00000   90.00000   90.00000
LATT -1
SFAC C  
C      1  0.5051380000000  0.5044540000000  0.4404300000000 1.0
C      1  0.5044170000000  0.5777260000000  0.4885660000000 1.0
C      1  0.5101380000000  0.5285240000000  0.4552200000000 1.0
C      1  0.5057170000000  0.4666390000000  0.4924010000000 1.0
C      1  0.4950240000000  0.4457650000000  0.5106020000000 1.0
C      1  0.5023670000000  0.5156200000000  0.5766800000000 1.0
C      1  0.5215360000000  0.4821940000000  0.4433450000000 1.0
C      1  0.5459620000000  0.5206700000000  0.5170520000000 1.0
C      1  0.5615450000000  0.4539620000000  0.4894750000000 1.0
C      1  0.4930740000000  0.4877380000000  0.5748190000000 1.0
C      1  0.4801860000000  0.5531180000000  0.5416950000000 1.0
C      1  0.4599290000000  0.4790220000000  0.5248000000000 1.0
C      1  0.4596290000000  0.4954900000000  0.4743210000000 1.0
C      1  0.4511200000000  0.4754710000000  0.4967380000000 1.0
C      1  0.5174630000000  0.5634310000000  0.5087890000000 1.0
C      1  0.4697430000000  0.5383710000000  0.4851730000000 1.0
C      1  0.4493420000000  0.5416170000000  0.5075730000000 1.0
C      1  0.4393330000000  0.5167590000000  0.4728970000000 1.0
C      1  0.4285440000000  0.5254790000000  0.4972920000000 1.0
C      1  0.4869110000000  0.5111770000000  0.4800320000000 1.0
C      1  0.5387600000000  0.5122860000000  0.5448290000000 1.0
C      1  0.4673050000000  0.5058310000000  0.5383480000000 1.0
C      1  0.4819970000000  0.4595870000000  0.5336720000000 1.0
C      1  0.4973030000000  0.5029860000000  0.5312710000000 1.0
C      1  0.5493220000000  0.4718500000000  0.5204590000000 1.0
C      1  0.5038410000000  0.4774560000000  0.5481220000000 1.0
C      1  0.5635900000000  0.4971610000000  0.4809250000000 1.0
C      1  0.4630870000000  0.4829460000000  0.4474190000000 1.0
C      1  0.5444810000000  0.4952040000000  0.5027140000000 1.0
C      1  0.4722790000000  0.4567860000000  0.4484960000000 1.0
C      1  0.4505950000000  0.4477650000000  0.4914610000000 1.0
C      1  0.4837480000000  0.5628070000000  0.4797260000000 1.0
C      1  0.4892960000000  0.4444140000000  0.4666400000000 1.0
C      1  0.5416420000000  0.4444020000000  0.4726000000000 1.0
C      1  0.5118980000000  0.5236610000000  0.5499830000000 1.0
C      1  0.5057370000000  0.4960190000000  0.5004550000000 1.0
C      1  0.5038370000000  0.5631980000000  0.5331860000000 1.0
C      1  0.5358640000000  0.4814460000000  0.5450680000000 1.0
C      1  0.4600490000000  0.5351840000000  0.5338370000000 1.0
C      1  0.5772770000000  0.4731550000000  0.4760990000000 1.0
C      1  0.5560400000000  0.5172300000000  0.4634010000000 1.0
C      1  0.5289050000000  0.4580640000000  0.4529500000000 1.0
C      1  0.4677800000000  0.5010790000000  0.5679590000000 1.0
C      1  0.4791030000000  0.4994570000000  0.4317260000000 1.0
C      1  0.4754980000000  0.4343380000000  0.4905310000000 1.0
C      1  0.5293830000000  0.5383930000000  0.4998030000000 1.0
C      1  0.5342680000000  0.5340690000000  0.4704220000000 1.0
END
