TITL C-950535-5962-760 -2.99602804743978e-06 125000 -538.91159983093 0 0 89 (C1) n - 1
REM
REM in /home/bkarasulu/work/CARBON/AIRSS/Generating-Clusters/EDIP-Nigel-Params/with-SteepDescent/Only-C1/SD-CG/HFTN-CG
REM
REM
REM
REM
REM
REM ./C.cell (11c1c37f851c82e70ff6c80c92926a4b)
REM
REM compiler GCC version 9.2.1 20190827 (Red Hat 9.2.1-1)
REM options -cpp -mtune=generic -march=x86-64 -g -O0 -fpre-include=/usr/include/finclude/math-vector-fortran.h
REM seed 408109271 453337263 318848598 1549002846 1646377192 -64821576 1560411453 2104520927 1907189613 468119557 -2111252307 1394013209 1494716239 1843931964 2138429705 1472886973 2052647206 1393350050 483700165 -1924597051 327228359 684620317 786313145 577583943 -495539155 -1520793067 342100878 968974199 578778272 249227899 -1835903645 -76552113 153683411
REM
CELL 1.54180   50.00000   50.00000   50.00000   90.00000   90.00000   90.00000
LATT -1
SFAC C  
C      1  0.5327960000000  0.4716600000000  0.4533240000000 1.0
C      1  0.4945740000000  0.4405570000000  0.5596510000000 1.0
C      1  0.4734590000000  0.4506700000000  0.4342660000000 1.0
C      1  0.5009740000000  0.5631170000000  0.4673760000000 1.0
C      1  0.5036680000000  0.5276780000000  0.5154560000000 1.0
C      1  0.4325460000000  0.4784420000000  0.4554030000000 1.0
C      1  0.5393790000000  0.4375510000000  0.5348080000000 1.0
C      1  0.4728830000000  0.5544530000000  0.5725770000000 1.0
C      1  0.4532700000000  0.4716030000000  0.4949740000000 1.0
C      1  0.4183030000000  0.4868980000000  0.5016220000000 1.0
C      1  0.5737410000000  0.5065990000000  0.4586250000000 1.0
C      1  0.4473650000000  0.4208270000000  0.4888450000000 1.0
C      1  0.4985090000000  0.4948270000000  0.4822170000000 1.0
C      1  0.4218480000000  0.4533490000000  0.4634620000000 1.0
C      1  0.4614310000000  0.5194450000000  0.5051140000000 1.0
C      1  0.5651930000000  0.5475470000000  0.4872460000000 1.0
C      1  0.5430070000000  0.5313780000000  0.4954490000000 1.0
C      1  0.4639650000000  0.5452310000000  0.5246060000000 1.0
C      1  0.4752910000000  0.4767220000000  0.4753790000000 1.0
C      1  0.5695250000000  0.4512870000000  0.5056760000000 1.0
C      1  0.5203520000000  0.5715140000000  0.4887070000000 1.0
C      1  0.4558010000000  0.4695620000000  0.5619160000000 1.0
C      1  0.5399070000000  0.5052820000000  0.5642020000000 1.0
C      1  0.5744500000000  0.5350100000000  0.4616710000000 1.0
C      1  0.4810020000000  0.4830120000000  0.5729480000000 1.0
C      1  0.5161590000000  0.4332390000000  0.4481370000000 1.0
C      1  0.5291190000000  0.5156880000000  0.4389720000000 1.0
C      1  0.4708240000000  0.5632660000000  0.4669720000000 1.0
C      1  0.4644310000000  0.5280780000000  0.5766070000000 1.0
C      1  0.4180100000000  0.5487060000000  0.5155090000000 1.0
C      1  0.4649080000000  0.4124050000000  0.5085630000000 1.0
C      1  0.5451210000000  0.5032330000000  0.4999120000000 1.0
C      1  0.5379060000000  0.5572110000000  0.5369130000000 1.0
C      1  0.5189260000000  0.5509320000000  0.5589920000000 1.0
C      1  0.5532740000000  0.5004320000000  0.4272280000000 1.0
C      1  0.4301140000000  0.5516310000000  0.4896220000000 1.0
C      1  0.5034950000000  0.4651050000000  0.5727310000000 1.0
C      1  0.4309590000000  0.4762260000000  0.5488230000000 1.0
C      1  0.4892490000000  0.4882980000000  0.4086720000000 1.0
C      1  0.5612730000000  0.5144140000000  0.5455770000000 1.0
C      1  0.4180110000000  0.4935760000000  0.5300270000000 1.0
C      1  0.4557160000000  0.5125050000000  0.5524340000000 1.0
C      1  0.4599720000000  0.5379860000000  0.4566000000000 1.0
C      1  0.4855720000000  0.4167710000000  0.4905950000000 1.0
C      1  0.5823660000000  0.4970440000000  0.5356460000000 1.0
C      1  0.4857640000000  0.5098480000000  0.5844250000000 1.0
C      1  0.4672680000000  0.4450290000000  0.5528330000000 1.0
C      1  0.4783230000000  0.5247190000000  0.4385740000000 1.0
C      1  0.4941320000000  0.5662930000000  0.5585850000000 1.0
C      1  0.4707640000000  0.4987320000000  0.4289920000000 1.0
C      1  0.5168640000000  0.4960880000000  0.4583060000000 1.0
C      1  0.5008310000000  0.5382650000000  0.4260810000000 1.0
C      1  0.5770750000000  0.4626610000000  0.5532690000000 1.0
C      1  0.5477760000000  0.5702860000000  0.4747620000000 1.0
C      1  0.5084450000000  0.4322740000000  0.4972140000000 1.0
C      1  0.5439830000000  0.5544870000000  0.4485900000000 1.0
C      1  0.4807180000000  0.5675150000000  0.5161510000000 1.0
C      1  0.5079790000000  0.4909870000000  0.5372060000000 1.0
C      1  0.5148280000000  0.5017110000000  0.4061630000000 1.0
C      1  0.4383000000000  0.5570430000000  0.5329990000000 1.0
C      1  0.4432130000000  0.5257480000000  0.4801500000000 1.0
C      1  0.4894460000000  0.5839460000000  0.5370150000000 1.0
C      1  0.5273240000000  0.4401630000000  0.4753860000000 1.0
C      1  0.5588670000000  0.4275580000000  0.5168130000000 1.0
C      1  0.5493750000000  0.4553000000000  0.5557830000000 1.0
C      1  0.5842350000000  0.4687550000000  0.5257350000000 1.0
C      1  0.4940250000000  0.4602040000000  0.4153510000000 1.0
C      1  0.5308320000000  0.4761410000000  0.5655460000000 1.0
C      1  0.5114350000000  0.4402940000000  0.5256130000000 1.0
C      1  0.5248910000000  0.5490780000000  0.5104970000000 1.0
C      1  0.5182760000000  0.4916690000000  0.5071940000000 1.0
C      1  0.5367220000000  0.4825300000000  0.4108230000000 1.0
C      1  0.5642900000000  0.5431460000000  0.5377100000000 1.0
C      1  0.5187790000000  0.5241840000000  0.5726890000000 1.0
C      1  0.4540340000000  0.5704880000000  0.4899440000000 1.0
C      1  0.5624580000000  0.4903300000000  0.4799790000000 1.0
C      1  0.4868470000000  0.4702300000000  0.5309730000000 1.0
C      1  0.5602770000000  0.4607980000000  0.4789830000000 1.0
C      1  0.4367430000000  0.4471390000000  0.4864980000000 1.0
C      1  0.4877790000000  0.4308400000000  0.4484420000000 1.0
C      1  0.4261290000000  0.4997750000000  0.4764240000000 1.0
C      1  0.4930180000000  0.5183870000000  0.5442490000000 1.0
C      1  0.4877900000000  0.5200440000000  0.4921820000000 1.0
C      1  0.4625780000000  0.4762350000000  0.4479980000000 1.0
C      1  0.5233700000000  0.4565850000000  0.4249230000000 1.0
C      1  0.5791550000000  0.5498830000000  0.5136420000000 1.0
C      1  0.4303910000000  0.5191970000000  0.5369170000000 1.0
C      1  0.5152270000000  0.5570480000000  0.4428330000000 1.0
C      1  0.4608030000000  0.4874010000000  0.5215050000000 1.0
END
