TITL C-951345-2650-175 -1.19940122360502e-06 125000 -511.131142103368 0 0 84 (C1) n - 1
REM
REM in /home/bkarasulu/work/CARBON/AIRSS/Generating-Clusters/EDIP-Nigel-Params/with-SteepDescent/Only-C1/SD-CG/HFTN-CG
REM
REM
REM
REM
REM
REM ./C.cell (11c1c37f851c82e70ff6c80c92926a4b)
REM
REM compiler GCC version 9.2.1 20190827 (Red Hat 9.2.1-1)
REM options -cpp -mtune=generic -march=x86-64 -g -O0 -fpre-include=/usr/include/finclude/math-vector-fortran.h
REM seed -1311381857 1725531164 853166607 14182763 1802719586 -1039013455 -881757239 -2051295636 56805729 1464953600 1861534563 -1086523050 484280789 2075215976 -1029999510 1066849013 -1374748628 514246756 555835708 537400410 1218258274 331321128 -1932542435 -1181679522 -13408555 1998888085 -1347698768 -196445549 1891970736 -1132134455 -679466627 1504764732 14721091
REM
CELL 1.54180   50.00000   50.00000   50.00000   90.00000   90.00000   90.00000
LATT -1
SFAC C  
C      1  0.4930970000000  0.5127760000000  0.5287370000000 1.0
C      1  0.5610170000000  0.4178510000000  0.4334190000000 1.0
C      1  0.4863220000000  0.4388970000000  0.4165600000000 1.0
C      1  0.5836990000000  0.4958340000000  0.4930260000000 1.0
C      1  0.4744180000000  0.5190410000000  0.5783990000000 1.0
C      1  0.5280660000000  0.4980510000000  0.5614680000000 1.0
C      1  0.5483190000000  0.4315990000000  0.5470530000000 1.0
C      1  0.4395410000000  0.4722710000000  0.5065850000000 1.0
C      1  0.5538630000000  0.4790790000000  0.5603420000000 1.0
C      1  0.5058410000000  0.4628680000000  0.4961570000000 1.0
C      1  0.5252920000000  0.4662100000000  0.4308800000000 1.0
C      1  0.4281610000000  0.5408040000000  0.4816820000000 1.0
C      1  0.5568610000000  0.4334690000000  0.4543310000000 1.0
C      1  0.4676370000000  0.4366510000000  0.4356640000000 1.0
C      1  0.4322820000000  0.4622030000000  0.4584110000000 1.0
C      1  0.5660960000000  0.4945910000000  0.5146040000000 1.0
C      1  0.5869600000000  0.5049900000000  0.4676730000000 1.0
C      1  0.5569430000000  0.5314470000000  0.4738530000000 1.0
C      1  0.5139120000000  0.5804650000000  0.4947880000000 1.0
C      1  0.5128940000000  0.5418280000000  0.4904270000000 1.0
C      1  0.5175960000000  0.4949910000000  0.5312570000000 1.0
C      1  0.4465040000000  0.5027860000000  0.5071630000000 1.0
C      1  0.4796840000000  0.5277670000000  0.4266510000000 1.0
C      1  0.4597710000000  0.4522290000000  0.4572970000000 1.0
C      1  0.4305820000000  0.5168280000000  0.5574270000000 1.0
C      1  0.4445400000000  0.5470250000000  0.5360910000000 1.0
C      1  0.4838900000000  0.5346240000000  0.4856210000000 1.0
C      1  0.4286480000000  0.5116820000000  0.4853020000000 1.0
C      1  0.5477420000000  0.5596700000000  0.4691660000000 1.0
C      1  0.4825530000000  0.4246270000000  0.5505620000000 1.0
C      1  0.5682510000000  0.4269990000000  0.4785570000000 1.0
C      1  0.4712610000000  0.5601570000000  0.4964680000000 1.0
C      1  0.5358790000000  0.5541660000000  0.5336790000000 1.0
C      1  0.5103970000000  0.5440090000000  0.5213040000000 1.0
C      1  0.5339570000000  0.4509940000000  0.4545850000000 1.0
C      1  0.5231830000000  0.5634150000000  0.4533560000000 1.0
C      1  0.4743000000000  0.5536390000000  0.5447970000000 1.0
C      1  0.4779050000000  0.5088200000000  0.5008880000000 1.0
C      1  0.5305620000000  0.4103580000000  0.5439670000000 1.0
C      1  0.5252460000000  0.5633980000000  0.4247880000000 1.0
C      1  0.5425330000000  0.4521200000000  0.5671230000000 1.0
C      1  0.4789000000000  0.5840850000000  0.4604710000000 1.0
C      1  0.4554680000000  0.5712810000000  0.4563330000000 1.0
C      1  0.5322610000000  0.5180590000000  0.4858500000000 1.0
C      1  0.5128190000000  0.4837050000000  0.5833330000000 1.0
C      1  0.5152810000000  0.4548840000000  0.5788260000000 1.0
C      1  0.5555850000000  0.5651930000000  0.5176470000000 1.0
C      1  0.4270320000000  0.4903290000000  0.5655950000000 1.0
C      1  0.4686300000000  0.4656050000000  0.5758090000000 1.0
C      1  0.5416740000000  0.5467310000000  0.5595980000000 1.0
C      1  0.4991360000000  0.5081560000000  0.4240450000000 1.0
C      1  0.4895790000000  0.4481380000000  0.5656480000000 1.0
C      1  0.4902190000000  0.4860990000000  0.4819610000000 1.0
C      1  0.4709630000000  0.5021640000000  0.5520960000000 1.0
C      1  0.4422460000000  0.5464540000000  0.4557160000000 1.0
C      1  0.5698350000000  0.5188450000000  0.4515050000000 1.0
C      1  0.5633780000000  0.4452360000000  0.5264970000000 1.0
C      1  0.5179470000000  0.4935940000000  0.4386920000000 1.0
C      1  0.4199400000000  0.4684400000000  0.4841150000000 1.0
C      1  0.4482990000000  0.4499910000000  0.5215600000000 1.0
C      1  0.4731750000000  0.4781460000000  0.4583460000000 1.0
C      1  0.5219800000000  0.5284300000000  0.5668590000000 1.0
C      1  0.5097400000000  0.4686030000000  0.5229560000000 1.0
C      1  0.5689120000000  0.4732450000000  0.5348450000000 1.0
C      1  0.5189450000000  0.4951440000000  0.4687890000000 1.0
C      1  0.5059760000000  0.5825840000000  0.4666960000000 1.0
C      1  0.4889230000000  0.5659490000000  0.5214470000000 1.0
C      1  0.4510760000000  0.4952750000000  0.4510870000000 1.0
C      1  0.4875630000000  0.5546180000000  0.4218010000000 1.0
C      1  0.4841690000000  0.4897800000000  0.5866720000000 1.0
C      1  0.5427110000000  0.5739560000000  0.4945010000000 1.0
C      1  0.5071210000000  0.5621380000000  0.4040010000000 1.0
C      1  0.5302720000000  0.4675120000000  0.4782890000000 1.0
C      1  0.4431980000000  0.5551800000000  0.5051190000000 1.0
C      1  0.4612040000000  0.4293060000000  0.5332680000000 1.0
C      1  0.4504650000000  0.4775560000000  0.5558800000000 1.0
C      1  0.5088010000000  0.4530270000000  0.4125880000000 1.0
C      1  0.4925600000000  0.5382970000000  0.5650990000000 1.0
C      1  0.4367700000000  0.5191860000000  0.5304530000000 1.0
C      1  0.5736090000000  0.4330560000000  0.5039230000000 1.0
C      1  0.5391540000000  0.5054860000000  0.5123700000000 1.0
C      1  0.4579040000000  0.5230760000000  0.4452370000000 1.0
C      1  0.4065540000000  0.4938110000000  0.4810560000000 1.0
C      1  0.5038260000000  0.4084260000000  0.5433160000000 1.0
END
