TITL C-950525-1983-434 -2.70749642433648e-06 125000 -1076.57658914645 0 0 173 (C1) n - 1
REM
REM in /home/bkarasulu/work/CARBON/AIRSS/Generating-Clusters/EDIP-Nigel-Params/with-SteepDescent/Only-C1/SD-CG/HFTN-CG
REM
REM
REM
REM
REM
REM ./C.cell (11c1c37f851c82e70ff6c80c92926a4b)
REM
REM compiler GCC version 9.2.1 20190827 (Red Hat 9.2.1-1)
REM options -cpp -mtune=generic -march=x86-64 -g -O0 -fpre-include=/usr/include/finclude/math-vector-fortran.h
REM seed 943152002 -515047932 989813070 769140650 491217699 -993705167 242411909 -1912814380 657464997 993503448 2056931894 -50090385 1175305455 530100698 -761962749 1964976542 530001394 91444368 451623661 664376956 1539479321 1012176835 -199014568 593955780 279361362 -723643289 491502075 -1486699581 1363155286 139554098 1788508330 -266861703 -327805345
REM
CELL 1.54180   50.00000   50.00000   50.00000   90.00000   90.00000   90.00000
LATT -1
SFAC C  
C      1  0.4445130000000  0.5975320000000  0.5174250000000 1.0
C      1  0.4055470000000  0.5442830000000  0.4670680000000 1.0
C      1  0.3922050000000  0.5056850000000  0.4931200000000 1.0
C      1  0.4132730000000  0.4719390000000  0.5793970000000 1.0
C      1  0.4363840000000  0.5891260000000  0.4726020000000 1.0
C      1  0.4887400000000  0.4862200000000  0.6175080000000 1.0
C      1  0.5285190000000  0.4866300000000  0.5082470000000 1.0
C      1  0.4607720000000  0.5134560000000  0.5879190000000 1.0
C      1  0.5274540000000  0.5998480000000  0.5032500000000 1.0
C      1  0.4511550000000  0.4397010000000  0.4971840000000 1.0
C      1  0.4721950000000  0.5579470000000  0.5738340000000 1.0
C      1  0.4769710000000  0.4329090000000  0.5085240000000 1.0
C      1  0.5173970000000  0.5632770000000  0.5336770000000 1.0
C      1  0.4512440000000  0.5382000000000  0.5765800000000 1.0
C      1  0.5531280000000  0.4209030000000  0.5517940000000 1.0
C      1  0.4995410000000  0.5001540000000  0.4739200000000 1.0
C      1  0.4874500000000  0.4422130000000  0.4228730000000 1.0
C      1  0.5302790000000  0.5319610000000  0.4276790000000 1.0
C      1  0.5017050000000  0.5636070000000  0.4155030000000 1.0
C      1  0.4270320000000  0.4949050000000  0.4082860000000 1.0
C      1  0.5932560000000  0.4523130000000  0.4512470000000 1.0
C      1  0.5139100000000  0.4773640000000  0.6073850000000 1.0
C      1  0.4812740000000  0.4873280000000  0.5203620000000 1.0
C      1  0.4700580000000  0.5746020000000  0.5487970000000 1.0
C      1  0.4654150000000  0.5300680000000  0.4035420000000 1.0
C      1  0.4271650000000  0.5303140000000  0.5153550000000 1.0
C      1  0.5252830000000  0.4742660000000  0.4007340000000 1.0
C      1  0.5086280000000  0.5082600000000  0.4288450000000 1.0
C      1  0.6062490000000  0.4900290000000  0.5235400000000 1.0
C      1  0.4523890000000  0.3945490000000  0.5280140000000 1.0
C      1  0.5402400000000  0.4070130000000  0.5298050000000 1.0
C      1  0.6084520000000  0.4812970000000  0.4917190000000 1.0
C      1  0.4423300000000  0.4714750000000  0.4108790000000 1.0
C      1  0.5206740000000  0.5165270000000  0.5478910000000 1.0
C      1  0.5097080000000  0.3886750000000  0.4787620000000 1.0
C      1  0.5597080000000  0.5362170000000  0.4361080000000 1.0
C      1  0.5431450000000  0.4528460000000  0.3976730000000 1.0
C      1  0.5264270000000  0.4286490000000  0.5864310000000 1.0
C      1  0.4793810000000  0.4380100000000  0.5374220000000 1.0
C      1  0.5475770000000  0.4125900000000  0.5778210000000 1.0
C      1  0.5586140000000  0.4066060000000  0.4855430000000 1.0
C      1  0.4443900000000  0.4261460000000  0.4724590000000 1.0
C      1  0.5142430000000  0.5219880000000  0.3876140000000 1.0
C      1  0.5583560000000  0.4867930000000  0.5444800000000 1.0
C      1  0.4904990000000  0.5951530000000  0.5522890000000 1.0
C      1  0.4453450000000  0.4368680000000  0.5540870000000 1.0
C      1  0.4781420000000  0.5856670000000  0.4508110000000 1.0
C      1  0.5234650000000  0.5467570000000  0.4031450000000 1.0
C      1  0.4943580000000  0.4650510000000  0.5340300000000 1.0
C      1  0.4196340000000  0.5404240000000  0.4187980000000 1.0
C      1  0.4719100000000  0.5971670000000  0.5033880000000 1.0
C      1  0.5013960000000  0.4398170000000  0.4938290000000 1.0
C      1  0.5246880000000  0.5707090000000  0.5787260000000 1.0
C      1  0.5573380000000  0.4381230000000  0.4172830000000 1.0
C      1  0.4980560000000  0.4067330000000  0.4574600000000 1.0
C      1  0.5453340000000  0.5327420000000  0.5064110000000 1.0
C      1  0.5106060000000  0.4251510000000  0.4194300000000 1.0
C      1  0.5011520000000  0.5485500000000  0.5778170000000 1.0
C      1  0.5326550000000  0.4574520000000  0.5902010000000 1.0
C      1  0.5629460000000  0.4972090000000  0.4149340000000 1.0
C      1  0.5456010000000  0.5499110000000  0.5308680000000 1.0
C      1  0.5540520000000  0.4991990000000  0.5146980000000 1.0
C      1  0.4194140000000  0.4856400000000  0.4940590000000 1.0
C      1  0.4624730000000  0.4305440000000  0.4334990000000 1.0
C      1  0.5807350000000  0.5175640000000  0.4255380000000 1.0
C      1  0.4079310000000  0.4677610000000  0.5522780000000 1.0
C      1  0.5352120000000  0.5992010000000  0.4750720000000 1.0
C      1  0.5978310000000  0.5353070000000  0.5473290000000 1.0
C      1  0.5522990000000  0.4815720000000  0.4383600000000 1.0
C      1  0.4645000000000  0.5996020000000  0.4738740000000 1.0
C      1  0.4935260000000  0.5132310000000  0.5068420000000 1.0
C      1  0.5620280000000  0.5455820000000  0.4838040000000 1.0
C      1  0.4551240000000  0.4103800000000  0.5504610000000 1.0
C      1  0.4961810000000  0.3932580000000  0.5044670000000 1.0
C      1  0.4383440000000  0.5215060000000  0.4100750000000 1.0
C      1  0.5515370000000  0.6013980000000  0.5199130000000 1.0
C      1  0.4877220000000  0.5125020000000  0.3979310000000 1.0
C      1  0.3883360000000  0.4831790000000  0.5367050000000 1.0
C      1  0.4664460000000  0.4658440000000  0.5799570000000 1.0
C      1  0.5056510000000  0.5592480000000  0.4833350000000 1.0
C      1  0.4428750000000  0.5856780000000  0.5444970000000 1.0
C      1  0.4265790000000  0.4836970000000  0.4634450000000 1.0
C      1  0.4350360000000  0.5722440000000  0.4488020000000 1.0
C      1  0.4396560000000  0.4495360000000  0.4284980000000 1.0
C      1  0.4378350000000  0.5027090000000  0.5120100000000 1.0
C      1  0.5226810000000  0.4629990000000  0.5255640000000 1.0
C      1  0.5768100000000  0.5628410000000  0.5614620000000 1.0
C      1  0.4072370000000  0.5213850000000  0.5608710000000 1.0
C      1  0.4511210000000  0.3955600000000  0.4776810000000 1.0
C      1  0.5008390000000  0.4243040000000  0.5736740000000 1.0
C      1  0.5584820000000  0.5254170000000  0.4631390000000 1.0
C      1  0.5637880000000  0.5084330000000  0.5646150000000 1.0
C      1  0.4128640000000  0.5562070000000  0.4411660000000 1.0
C      1  0.5123590000000  0.3992270000000  0.5293280000000 1.0
C      1  0.5376910000000  0.3900680000000  0.4809010000000 1.0
C      1  0.5362220000000  0.4256120000000  0.4329050000000 1.0
C      1  0.4968190000000  0.4607810000000  0.4451630000000 1.0
C      1  0.5230210000000  0.5009950000000  0.5913350000000 1.0
C      1  0.5610380000000  0.4690770000000  0.5879630000000 1.0
C      1  0.4561260000000  0.5238780000000  0.4718410000000 1.0
C      1  0.4543150000000  0.4960920000000  0.4607770000000 1.0
C      1  0.5685680000000  0.4559960000000  0.4380210000000 1.0
C      1  0.5522950000000  0.4955170000000  0.4668190000000 1.0
C      1  0.4631230000000  0.5609830000000  0.4929070000000 1.0
C      1  0.4220620000000  0.5642580000000  0.5435530000000 1.0
C      1  0.5908920000000  0.5520540000000  0.4914680000000 1.0
C      1  0.5167080000000  0.5847950000000  0.5542130000000 1.0
C      1  0.4988600000000  0.4044850000000  0.5536150000000 1.0
C      1  0.5750770000000  0.4394580000000  0.5468420000000 1.0
C      1  0.5127370000000  0.4931660000000  0.5635580000000 1.0
C      1  0.5800530000000  0.4460540000000  0.5207460000000 1.0
C      1  0.5981800000000  0.4541630000000  0.4785360000000 1.0
C      1  0.5342850000000  0.4385670000000  0.4598210000000 1.0
C      1  0.4736700000000  0.5553510000000  0.4145880000000 1.0
C      1  0.5649120000000  0.5988550000000  0.4733330000000 1.0
C      1  0.5678280000000  0.5702810000000  0.5340520000000 1.0
C      1  0.5056790000000  0.5792350000000  0.5075270000000 1.0
C      1  0.4685860000000  0.4043060000000  0.4511400000000 1.0
C      1  0.4280690000000  0.5397010000000  0.5584750000000 1.0
C      1  0.4233870000000  0.4472130000000  0.5393910000000 1.0
C      1  0.4797910000000  0.4411100000000  0.5811190000000 1.0
C      1  0.5169070000000  0.5340060000000  0.4965700000000 1.0
C      1  0.5813760000000  0.4627750000000  0.5646090000000 1.0
C      1  0.6009660000000  0.4858140000000  0.5530850000000 1.0
C      1  0.5210320000000  0.4794830000000  0.4301210000000 1.0
C      1  0.4807760000000  0.5308970000000  0.5289930000000 1.0
C      1  0.4597460000000  0.5715140000000  0.4343160000000 1.0
C      1  0.4784180000000  0.5435910000000  0.4629450000000 1.0
C      1  0.5673340000000  0.5646300000000  0.4336250000000 1.0
C      1  0.3896560000000  0.5127230000000  0.5409620000000 1.0
C      1  0.4776920000000  0.4894360000000  0.5640720000000 1.0
C      1  0.3960780000000  0.5269810000000  0.5152650000000 1.0
C      1  0.5269490000000  0.4357520000000  0.5088470000000 1.0
C      1  0.4662310000000  0.3900990000000  0.5037820000000 1.0
C      1  0.4255960000000  0.5833530000000  0.4999880000000 1.0
C      1  0.5460640000000  0.5289420000000  0.5530790000000 1.0
C      1  0.5055250000000  0.5825600000000  0.4395220000000 1.0
C      1  0.6063770000000  0.5191960000000  0.5233640000000 1.0
C      1  0.5970530000000  0.5094420000000  0.4477380000000 1.0
C      1  0.5349410000000  0.5001130000000  0.3903720000000 1.0
C      1  0.5694820000000  0.4855600000000  0.4913450000000 1.0
C      1  0.4082830000000  0.5641940000000  0.5167290000000 1.0
C      1  0.4029040000000  0.4457790000000  0.4940500000000 1.0
C      1  0.5060470000000  0.5260240000000  0.5985740000000 1.0
C      1  0.4146990000000  0.4342990000000  0.4691310000000 1.0
C      1  0.6046470000000  0.5064310000000  0.4752970000000 1.0
C      1  0.5755330000000  0.5996300000000  0.5023690000000 1.0
C      1  0.5537350000000  0.4981380000000  0.5903030000000 1.0
C      1  0.5056950000000  0.4362630000000  0.4647470000000 1.0
C      1  0.4077900000000  0.5007290000000  0.4478790000000 1.0
C      1  0.5028090000000  0.5388290000000  0.5476220000000 1.0
C      1  0.5030270000000  0.5241320000000  0.4561140000000 1.0
C      1  0.4014990000000  0.4947940000000  0.4205750000000 1.0
C      1  0.4390300000000  0.4666610000000  0.5860390000000 1.0
C      1  0.5674370000000  0.5725540000000  0.4604940000000 1.0
C      1  0.6062300000000  0.5279650000000  0.4957390000000 1.0
C      1  0.4348150000000  0.5420100000000  0.4872550000000 1.0
C      1  0.3846490000000  0.4762330000000  0.5074820000000 1.0
C      1  0.5491440000000  0.4340100000000  0.4859850000000 1.0
C      1  0.3921340000000  0.5181570000000  0.4651740000000 1.0
C      1  0.5233830000000  0.5749760000000  0.4621320000000 1.0
C      1  0.4817760000000  0.5122600000000  0.6079730000000 1.0
C      1  0.4567240000000  0.4937610000000  0.5320370000000 1.0
C      1  0.4259600000000  0.4453860000000  0.5108950000000 1.0
C      1  0.5730020000000  0.4538470000000  0.4944870000000 1.0
C      1  0.5530350000000  0.5646500000000  0.5778260000000 1.0
C      1  0.5255070000000  0.4871550000000  0.4793270000000 1.0
C      1  0.5331720000000  0.4712260000000  0.5535880000000 1.0
C      1  0.5908430000000  0.5733060000000  0.5122010000000 1.0
C      1  0.4796670000000  0.4811310000000  0.4616910000000 1.0
C      1  0.5932910000000  0.5127040000000  0.5651740000000 1.0
C      1  0.4712300000000  0.5570860000000  0.5223050000000 1.0
C      1  0.4211050000000  0.4561020000000  0.4503240000000 1.0
END
