TITL C-950528-5794-763 -3.7332488171296e-06 125000 -1228.13036591984 0 0 197 (C1) n - 1
REM
REM in /home/bkarasulu/work/CARBON/AIRSS/Generating-Clusters/EDIP-Nigel-Params/with-SteepDescent/Only-C1/SD-CG/HFTN-CG
REM
REM
REM
REM
REM
REM ./C.cell (11c1c37f851c82e70ff6c80c92926a4b)
REM
REM compiler GCC version 9.2.1 20190827 (Red Hat 9.2.1-1)
REM options -cpp -mtune=generic -march=x86-64 -g -O0 -fpre-include=/usr/include/finclude/math-vector-fortran.h
REM seed 1232168105 1177036675 -1018880961 -1116259345 -1980795460 747336437 -707007422 -1056186279 -1344783506 1026515754 -1444109812 -290685181 1949194026 1499852450 -61478077 1239110524 1620908624 -861239705 -2023993108 384313546 -546140258 -976921531 -359291387 -484598213 -1450250057 942246698 636480633 -984392818 497652304 1894708637 -991949193 -169750698 -348959244
REM
CELL 1.54180   50.00000   50.00000   50.00000   90.00000   90.00000   90.00000
LATT -1
SFAC C  
C      1  0.5108570000000  0.3953910000000  0.5446190000000 1.0
C      1  0.4848140000000  0.4882690000000  0.5698230000000 1.0
C      1  0.5846190000000  0.4937830000000  0.4232910000000 1.0
C      1  0.5561100000000  0.4651060000000  0.4533350000000 1.0
C      1  0.5141920000000  0.4424240000000  0.5116650000000 1.0
C      1  0.4195590000000  0.5623010000000  0.4661380000000 1.0
C      1  0.3793400000000  0.5241360000000  0.4958710000000 1.0
C      1  0.4752960000000  0.5245950000000  0.4126380000000 1.0
C      1  0.5500530000000  0.5816920000000  0.4578240000000 1.0
C      1  0.4683830000000  0.5378150000000  0.4585760000000 1.0
C      1  0.4408080000000  0.5732000000000  0.5662620000000 1.0
C      1  0.4838740000000  0.5637680000000  0.5251290000000 1.0
C      1  0.4964220000000  0.4238170000000  0.5797090000000 1.0
C      1  0.5718930000000  0.4976230000000  0.5843820000000 1.0
C      1  0.4667220000000  0.4970670000000  0.3995350000000 1.0
C      1  0.5182300000000  0.5104360000000  0.6236270000000 1.0
C      1  0.5684000000000  0.5792620000000  0.5427930000000 1.0
C      1  0.4615590000000  0.6007260000000  0.4742320000000 1.0
C      1  0.3907930000000  0.4559940000000  0.5251400000000 1.0
C      1  0.4471280000000  0.6006120000000  0.5237860000000 1.0
C      1  0.4406040000000  0.5966600000000  0.4953000000000 1.0
C      1  0.3763030000000  0.5065930000000  0.5305770000000 1.0
C      1  0.5358310000000  0.5845790000000  0.4323180000000 1.0
C      1  0.4933450000000  0.5558680000000  0.4524800000000 1.0
C      1  0.4896250000000  0.4875100000000  0.4781400000000 1.0
C      1  0.4125320000000  0.4579760000000  0.5747690000000 1.0
C      1  0.5002300000000  0.4174330000000  0.4539960000000 1.0
C      1  0.4631210000000  0.5498630000000  0.5444820000000 1.0
C      1  0.4797310000000  0.3925150000000  0.5010050000000 1.0
C      1  0.5493770000000  0.5520580000000  0.3834560000000 1.0
C      1  0.5620510000000  0.4691810000000  0.5077030000000 1.0
C      1  0.4719900000000  0.6105420000000  0.5330280000000 1.0
C      1  0.6035230000000  0.4353200000000  0.4916270000000 1.0
C      1  0.4244230000000  0.5049250000000  0.5860430000000 1.0
C      1  0.5591240000000  0.5094820000000  0.5327890000000 1.0
C      1  0.5711260000000  0.5860090000000  0.5135480000000 1.0
C      1  0.4178080000000  0.4255250000000  0.4665210000000 1.0
C      1  0.3869960000000  0.4717460000000  0.4756690000000 1.0
C      1  0.3881610000000  0.5205280000000  0.4693050000000 1.0
C      1  0.5430770000000  0.4449010000000  0.4344120000000 1.0
C      1  0.5404340000000  0.4927090000000  0.4542750000000 1.0
C      1  0.5017760000000  0.3806830000000  0.4857010000000 1.0
C      1  0.5284290000000  0.6140810000000  0.5202480000000 1.0
C      1  0.5425420000000  0.4046480000000  0.4528790000000 1.0
C      1  0.5386620000000  0.5728890000000  0.5469700000000 1.0
C      1  0.4695420000000  0.4686960000000  0.5246720000000 1.0
C      1  0.3883410000000  0.4984740000000  0.5548760000000 1.0
C      1  0.5045200000000  0.4639890000000  0.4675750000000 1.0
C      1  0.4486040000000  0.4149690000000  0.4369300000000 1.0
C      1  0.5110230000000  0.6007950000000  0.4676620000000 1.0
C      1  0.6008860000000  0.5362240000000  0.4436010000000 1.0
C      1  0.6085190000000  0.5242930000000  0.5199370000000 1.0
C      1  0.4767630000000  0.4252840000000  0.4328300000000 1.0
C      1  0.4182980000000  0.4780950000000  0.5932630000000 1.0
C      1  0.5327990000000  0.3951940000000  0.5238200000000 1.0
C      1  0.5356440000000  0.5025530000000  0.5533110000000 1.0
C      1  0.4153060000000  0.5353170000000  0.5327540000000 1.0
C      1  0.5855140000000  0.4650760000000  0.4276890000000 1.0
C      1  0.4855020000000  0.3991200000000  0.5286660000000 1.0
C      1  0.5725850000000  0.5378610000000  0.4562670000000 1.0
C      1  0.4360970000000  0.4177260000000  0.5604350000000 1.0
C      1  0.4904080000000  0.5896370000000  0.5417260000000 1.0
C      1  0.4182940000000  0.4906600000000  0.5066920000000 1.0
C      1  0.5523400000000  0.4793460000000  0.3962240000000 1.0
C      1  0.4752810000000  0.5700620000000  0.4958440000000 1.0
C      1  0.4993780000000  0.4495680000000  0.3966320000000 1.0
C      1  0.4547350000000  0.4039580000000  0.4906550000000 1.0
C      1  0.4534260000000  0.4738680000000  0.5762910000000 1.0
C      1  0.5246650000000  0.5152000000000  0.3908370000000 1.0
C      1  0.5590160000000  0.4243850000000  0.4955440000000 1.0
C      1  0.5855360000000  0.4264420000000  0.5108440000000 1.0
C      1  0.4386950000000  0.5675770000000  0.4437840000000 1.0
C      1  0.4263220000000  0.5710580000000  0.4941040000000 1.0
C      1  0.4536050000000  0.4537810000000  0.4812280000000 1.0
C      1  0.6023720000000  0.4789670000000  0.4720070000000 1.0
C      1  0.5503890000000  0.5260790000000  0.3959880000000 1.0
C      1  0.4273910000000  0.4818760000000  0.5344090000000 1.0
C      1  0.5402240000000  0.6015010000000  0.4753480000000 1.0
C      1  0.5052370000000  0.5317930000000  0.4948790000000 1.0
C      1  0.5291810000000  0.5607550000000  0.5734650000000 1.0
C      1  0.5388960000000  0.4240010000000  0.5189010000000 1.0
C      1  0.5086180000000  0.4923570000000  0.5190740000000 1.0
C      1  0.4226150000000  0.5245370000000  0.4380700000000 1.0
C      1  0.5242920000000  0.5674890000000  0.3887880000000 1.0
C      1  0.4466130000000  0.5528430000000  0.5845740000000 1.0
C      1  0.5087660000000  0.5969640000000  0.4367430000000 1.0
C      1  0.5490300000000  0.4301550000000  0.5557560000000 1.0
C      1  0.5263920000000  0.4895910000000  0.4019790000000 1.0
C      1  0.4832200000000  0.4272780000000  0.4046170000000 1.0
C      1  0.3993700000000  0.5151380000000  0.5148590000000 1.0
C      1  0.5945040000000  0.5162620000000  0.5829360000000 1.0
C      1  0.4894380000000  0.5439260000000  0.5645390000000 1.0
C      1  0.4446860000000  0.5033760000000  0.5467260000000 1.0
C      1  0.4620400000000  0.5332400000000  0.5977710000000 1.0
C      1  0.4843120000000  0.5813860000000  0.5692320000000 1.0
C      1  0.4593810000000  0.5878380000000  0.4463980000000 1.0
C      1  0.5278710000000  0.5457020000000  0.4809560000000 1.0
C      1  0.5595350000000  0.4214910000000  0.4367980000000 1.0
C      1  0.4740930000000  0.4234110000000  0.5386940000000 1.0
C      1  0.6170420000000  0.5309600000000  0.4694530000000 1.0
C      1  0.4449590000000  0.5281890000000  0.5310290000000 1.0
C      1  0.4984340000000  0.6242250000000  0.4805160000000 1.0
C      1  0.4510430000000  0.4598060000000  0.4527270000000 1.0
C      1  0.5021310000000  0.4629190000000  0.5604270000000 1.0
C      1  0.4769450000000  0.5067930000000  0.4565630000000 1.0
C      1  0.5107690000000  0.5309200000000  0.6055150000000 1.0
C      1  0.6114420000000  0.4954410000000  0.5176520000000 1.0
C      1  0.6061900000000  0.4500390000000  0.4679080000000 1.0
C      1  0.6092430000000  0.4856840000000  0.5449400000000 1.0
C      1  0.5066480000000  0.5407930000000  0.5237150000000 1.0
C      1  0.5291360000000  0.4697350000000  0.5204380000000 1.0
C      1  0.5363830000000  0.4976240000000  0.4852290000000 1.0
C      1  0.5793100000000  0.5140640000000  0.4863240000000 1.0
C      1  0.5561840000000  0.4525360000000  0.4824180000000 1.0
C      1  0.5508580000000  0.3996010000000  0.4797730000000 1.0
C      1  0.5353140000000  0.5367810000000  0.5895360000000 1.0
C      1  0.5902450000000  0.4874530000000  0.4976200000000 1.0
C      1  0.4040820000000  0.4643920000000  0.4981350000000 1.0
C      1  0.5034100000000  0.4636740000000  0.4387200000000 1.0
C      1  0.4562570000000  0.5473120000000  0.4854510000000 1.0
C      1  0.5079660000000  0.6276080000000  0.5064430000000 1.0
C      1  0.5431100000000  0.5071980000000  0.5838750000000 1.0
C      1  0.5914220000000  0.4629760000000  0.5504910000000 1.0
C      1  0.5752310000000  0.5609690000000  0.4960380000000 1.0
C      1  0.5302060000000  0.4719820000000  0.5522840000000 1.0
C      1  0.4717450000000  0.6274050000000  0.4747750000000 1.0
C      1  0.4426480000000  0.4570880000000  0.5310040000000 1.0
C      1  0.5858670000000  0.5430140000000  0.5754860000000 1.0
C      1  0.4092740000000  0.4986380000000  0.4354470000000 1.0
C      1  0.4902800000000  0.4481320000000  0.5343310000000 1.0
C      1  0.4437370000000  0.4985080000000  0.4899110000000 1.0
C      1  0.4283020000000  0.4294500000000  0.5335700000000 1.0
C      1  0.4399530000000  0.4027310000000  0.4645950000000 1.0
C      1  0.4153550000000  0.5637830000000  0.5222990000000 1.0
C      1  0.5730350000000  0.4478290000000  0.5307240000000 1.0
C      1  0.5858940000000  0.5231290000000  0.5408320000000 1.0
C      1  0.4358800000000  0.4117520000000  0.5111420000000 1.0
C      1  0.3891300000000  0.4934570000000  0.4575070000000 1.0
C      1  0.4805950000000  0.5559790000000  0.4071400000000 1.0
C      1  0.4322860000000  0.5808170000000  0.5393710000000 1.0
C      1  0.5326300000000  0.5595780000000  0.4176760000000 1.0
C      1  0.5465870000000  0.5992020000000  0.5033670000000 1.0
C      1  0.5289740000000  0.4909620000000  0.6062150000000 1.0
C      1  0.5250170000000  0.4464600000000  0.4113110000000 1.0
C      1  0.4534820000000  0.5235880000000  0.5026660000000 1.0
C      1  0.4074280000000  0.5182830000000  0.5651420000000 1.0
C      1  0.5305630000000  0.3846450000000  0.4961820000000 1.0
C      1  0.4654160000000  0.4769950000000  0.4945230000000 1.0
C      1  0.5226250000000  0.3878360000000  0.4417780000000 1.0
C      1  0.5199650000000  0.5965940000000  0.5416060000000 1.0
C      1  0.5093220000000  0.5030840000000  0.4935080000000 1.0
C      1  0.5990010000000  0.5353150000000  0.4942270000000 1.0
C      1  0.4978090000000  0.5594270000000  0.3854580000000 1.0
C      1  0.5188540000000  0.4216960000000  0.5586530000000 1.0
C      1  0.4746630000000  0.4552400000000  0.4326530000000 1.0
C      1  0.5060260000000  0.5729450000000  0.5845810000000 1.0
C      1  0.5872880000000  0.5590280000000  0.5519390000000 1.0
C      1  0.6139300000000  0.5046110000000  0.5657800000000 1.0
C      1  0.4875950000000  0.5232130000000  0.5865000000000 1.0
C      1  0.4182360000000  0.4845390000000  0.4121580000000 1.0
C      1  0.5547220000000  0.5154340000000  0.5028520000000 1.0
C      1  0.4485790000000  0.5403180000000  0.4332680000000 1.0
C      1  0.4113820000000  0.5352520000000  0.4614330000000 1.0
C      1  0.5162740000000  0.5393940000000  0.4378880000000 1.0
C      1  0.5499490000000  0.4563500000000  0.5679360000000 1.0
C      1  0.4363300000000  0.4392840000000  0.5798620000000 1.0
C      1  0.5042190000000  0.4381660000000  0.4806980000000 1.0
C      1  0.5755100000000  0.4692500000000  0.5743770000000 1.0
C      1  0.4827890000000  0.4653450000000  0.6075840000000 1.0
C      1  0.5911630000000  0.4419520000000  0.4442010000000 1.0
C      1  0.4649690000000  0.4872650000000  0.6138950000000 1.0
C      1  0.5394600000000  0.5305100000000  0.4565690000000 1.0
C      1  0.6198740000000  0.4996190000000  0.4589340000000 1.0
C      1  0.4742620000000  0.4436300000000  0.5889130000000 1.0
C      1  0.4717640000000  0.4937390000000  0.5425870000000 1.0
C      1  0.4573650000000  0.3979150000000  0.5628600000000 1.0
C      1  0.3992830000000  0.4307810000000  0.5323930000000 1.0
C      1  0.4269070000000  0.4420260000000  0.4901650000000 1.0
C      1  0.4847140000000  0.5766070000000  0.4322060000000 1.0
C      1  0.5006490000000  0.5723230000000  0.4776260000000 1.0
C      1  0.4299280000000  0.4394610000000  0.4423240000000 1.0
C      1  0.4851670000000  0.4751950000000  0.3957450000000 1.0
C      1  0.4488780000000  0.5087670000000  0.6028220000000 1.0
C      1  0.4491570000000  0.4922750000000  0.4514610000000 1.0
C      1  0.5687930000000  0.5023660000000  0.4000660000000 1.0
C      1  0.4981640000000  0.3854230000000  0.4569320000000 1.0
C      1  0.4466470000000  0.4851380000000  0.4167960000000 1.0
C      1  0.5331960000000  0.5522760000000  0.5266340000000 1.0
C      1  0.4026520000000  0.4726970000000  0.5490200000000 1.0
C      1  0.5094700000000  0.4716670000000  0.6022670000000 1.0
C      1  0.4843880000000  0.3981930000000  0.5728910000000 1.0
C      1  0.5722600000000  0.5657140000000  0.4667390000000 1.0
C      1  0.5166200000000  0.4900060000000  0.4306720000000 1.0
C      1  0.5073740000000  0.5133220000000  0.5412130000000 1.0
C      1  0.4973710000000  0.5138800000000  0.4325800000000 1.0
C      1  0.6077170000000  0.5091980000000  0.4320650000000 1.0
C      1  0.5487200000000  0.5452310000000  0.5024390000000 1.0
END
