TITL C-950528-5794-458 -2.4352508833282e-06 125000 -704.618264535142 0 0 113 (C1) n - 1
REM
REM in /home/bkarasulu/work/CARBON/AIRSS/Generating-Clusters/EDIP-Nigel-Params/with-SteepDescent/Only-C1/SD-CG/HFTN-CG
REM
REM
REM
REM
REM
REM ./C.cell (11c1c37f851c82e70ff6c80c92926a4b)
REM
REM compiler GCC version 9.2.1 20190827 (Red Hat 9.2.1-1)
REM options -cpp -mtune=generic -march=x86-64 -g -O0 -fpre-include=/usr/include/finclude/math-vector-fortran.h
REM seed -1934084339 -355085614 2138005357 2103620029 632239746 -139640831 877796272 -281445792 -519842848 -578204677 -1702876786 490342645 -1051330272 -414555157 -357102105 512110234 -578248369 -1336321833 -440745964 1416795279 479993283 140411463 -1636323892 224211629 -851756842 -666130466 88038807 -59023841 793956171 1809776092 -1918089241 2118135016 -1935585651
REM
CELL 1.54180   50.00000   50.00000   50.00000   90.00000   90.00000   90.00000
LATT -1
SFAC C  
C      1  0.4901450000000  0.5792990000000  0.4860410000000 1.0
C      1  0.4621090000000  0.5011910000000  0.4215100000000 1.0
C      1  0.5120940000000  0.4189150000000  0.5363520000000 1.0
C      1  0.5570090000000  0.4515060000000  0.5470030000000 1.0
C      1  0.5856480000000  0.5010320000000  0.4935330000000 1.0
C      1  0.5627290000000  0.5072040000000  0.4280350000000 1.0
C      1  0.4578020000000  0.5617480000000  0.4516680000000 1.0
C      1  0.4074280000000  0.5398430000000  0.5167250000000 1.0
C      1  0.5405140000000  0.5416710000000  0.5739230000000 1.0
C      1  0.4861750000000  0.5784610000000  0.5490450000000 1.0
C      1  0.5236300000000  0.5168340000000  0.5292250000000 1.0
C      1  0.4665170000000  0.4065420000000  0.4767490000000 1.0
C      1  0.4849230000000  0.5720150000000  0.4572300000000 1.0
C      1  0.5341730000000  0.4539170000000  0.5647130000000 1.0
C      1  0.4532540000000  0.5492240000000  0.4268380000000 1.0
C      1  0.5764990000000  0.4713500000000  0.5438410000000 1.0
C      1  0.5431850000000  0.4698480000000  0.5156720000000 1.0
C      1  0.4506260000000  0.5020250000000  0.5344440000000 1.0
C      1  0.4411380000000  0.4006810000000  0.4859730000000 1.0
C      1  0.4963970000000  0.4894860000000  0.4568410000000 1.0
C      1  0.4737280000000  0.4938850000000  0.5708970000000 1.0
C      1  0.4720190000000  0.5928160000000  0.5293840000000 1.0
C      1  0.5210880000000  0.5941190000000  0.5216230000000 1.0
C      1  0.5818170000000  0.4988450000000  0.4466410000000 1.0
C      1  0.4833290000000  0.5350170000000  0.5248190000000 1.0
C      1  0.5572750000000  0.4331770000000  0.4871300000000 1.0
C      1  0.5001210000000  0.5329230000000  0.4258970000000 1.0
C      1  0.4681780000000  0.4634860000000  0.4908510000000 1.0
C      1  0.5230420000000  0.4816540000000  0.5639160000000 1.0
C      1  0.5825950000000  0.5126350000000  0.5671620000000 1.0
C      1  0.5085450000000  0.5017720000000  0.5091990000000 1.0
C      1  0.5011960000000  0.4373280000000  0.4179340000000 1.0
C      1  0.4419770000000  0.5199850000000  0.5545600000000 1.0
C      1  0.5347710000000  0.5652760000000  0.4515080000000 1.0
C      1  0.4536530000000  0.4623280000000  0.4405440000000 1.0
C      1  0.4198290000000  0.4790960000000  0.4822460000000 1.0
C      1  0.5653380000000  0.5388480000000  0.4697250000000 1.0
C      1  0.5668590000000  0.4545230000000  0.5037360000000 1.0
C      1  0.4520510000000  0.4774800000000  0.5818580000000 1.0
C      1  0.5151000000000  0.5816760000000  0.5463000000000 1.0
C      1  0.4505560000000  0.4542790000000  0.5165220000000 1.0
C      1  0.4799640000000  0.4773420000000  0.4324800000000 1.0
C      1  0.5533810000000  0.5139420000000  0.5684780000000 1.0
C      1  0.4492940000000  0.5468040000000  0.5585120000000 1.0
C      1  0.4446060000000  0.5664430000000  0.4995430000000 1.0
C      1  0.4996930000000  0.4582730000000  0.4987760000000 1.0
C      1  0.5256790000000  0.4979250000000  0.5895500000000 1.0
C      1  0.5020410000000  0.5469690000000  0.5047230000000 1.0
C      1  0.5728100000000  0.5582530000000  0.5130550000000 1.0
C      1  0.5329860000000  0.5587510000000  0.5511500000000 1.0
C      1  0.4710520000000  0.5278750000000  0.4265970000000 1.0
C      1  0.5398700000000  0.5763790000000  0.4784920000000 1.0
C      1  0.4348220000000  0.4776620000000  0.5303380000000 1.0
C      1  0.4268390000000  0.4376800000000  0.5059810000000 1.0
C      1  0.5136770000000  0.5115340000000  0.4433040000000 1.0
C      1  0.5916200000000  0.5123700000000  0.5190320000000 1.0
C      1  0.4720790000000  0.4962740000000  0.4860120000000 1.0
C      1  0.4947180000000  0.4796330000000  0.5225150000000 1.0
C      1  0.4270320000000  0.4678760000000  0.5585380000000 1.0
C      1  0.4782480000000  0.5495680000000  0.5517910000000 1.0
C      1  0.4540310000000  0.4473830000000  0.4665550000000 1.0
C      1  0.5188380000000  0.5281190000000  0.5908260000000 1.0
C      1  0.5069650000000  0.5603720000000  0.4407780000000 1.0
C      1  0.5561710000000  0.5483080000000  0.4431210000000 1.0
C      1  0.4378160000000  0.4895660000000  0.4378760000000 1.0
C      1  0.4625980000000  0.5159050000000  0.5114160000000 1.0
C      1  0.5431890000000  0.4371980000000  0.4627530000000 1.0
C      1  0.4934540000000  0.4778270000000  0.5534950000000 1.0
C      1  0.4953480000000  0.5264330000000  0.4831580000000 1.0
C      1  0.4354580000000  0.4405520000000  0.5656060000000 1.0
C      1  0.4258170000000  0.4097020000000  0.5060570000000 1.0
C      1  0.4706260000000  0.4169470000000  0.4505580000000 1.0
C      1  0.5867720000000  0.5174850000000  0.4692800000000 1.0
C      1  0.4157570000000  0.4902270000000  0.5095100000000 1.0
C      1  0.5546160000000  0.5637740000000  0.5336160000000 1.0
C      1  0.4821740000000  0.5149560000000  0.5877770000000 1.0
C      1  0.5482550000000  0.4625810000000  0.4520100000000 1.0
C      1  0.5358400000000  0.4999980000000  0.4256870000000 1.0
C      1  0.5107930000000  0.5282240000000  0.3992170000000 1.0
C      1  0.5313290000000  0.4887360000000  0.4937510000000 1.0
C      1  0.5858170000000  0.4977860000000  0.5434100000000 1.0
C      1  0.4261860000000  0.4499630000000  0.4793150000000 1.0
C      1  0.5177180000000  0.5870960000000  0.4945990000000 1.0
C      1  0.4432520000000  0.5515350000000  0.4747090000000 1.0
C      1  0.5095650000000  0.4799180000000  0.3941400000000 1.0
C      1  0.5422840000000  0.5248260000000  0.4850830000000 1.0
C      1  0.5750300000000  0.4723090000000  0.4579700000000 1.0
C      1  0.4605830000000  0.4485700000000  0.5786560000000 1.0
C      1  0.4851470000000  0.4166470000000  0.4960010000000 1.0
C      1  0.5329060000000  0.5398400000000  0.5117330000000 1.0
C      1  0.5674830000000  0.5719380000000  0.4883020000000 1.0
C      1  0.4974640000000  0.4232780000000  0.4417440000000 1.0
C      1  0.4279610000000  0.5260990000000  0.4750510000000 1.0
C      1  0.5412950000000  0.4974330000000  0.5433570000000 1.0
C      1  0.4662610000000  0.5855880000000  0.5029850000000 1.0
C      1  0.4935150000000  0.5372170000000  0.5749890000000 1.0
C      1  0.5109650000000  0.4346110000000  0.5617450000000 1.0
C      1  0.4251620000000  0.5611390000000  0.5204920000000 1.0
C      1  0.4947460000000  0.4633860000000  0.4109910000000 1.0
C      1  0.4683240000000  0.4378290000000  0.5360590000000 1.0
C      1  0.4324720000000  0.5660060000000  0.5470030000000 1.0
C      1  0.5192210000000  0.5268570000000  0.4670340000000 1.0
C      1  0.5234210000000  0.4327430000000  0.5121370000000 1.0
C      1  0.4337610000000  0.4987180000000  0.4654310000000 1.0
C      1  0.5123060000000  0.4175290000000  0.4888240000000 1.0
C      1  0.4239900000000  0.5198660000000  0.5042150000000 1.0
C      1  0.5170270000000  0.4714420000000  0.4726960000000 1.0
C      1  0.4841270000000  0.4159600000000  0.5250020000000 1.0
C      1  0.5829550000000  0.4729230000000  0.4865800000000 1.0
C      1  0.5242030000000  0.5031930000000  0.3991590000000 1.0
C      1  0.5935510000000  0.5402120000000  0.5185080000000 1.0
C      1  0.5161520000000  0.4285960000000  0.4632380000000 1.0
C      1  0.4838320000000  0.4491630000000  0.5591150000000 1.0
END
