TITL C-951333-8791-605 4.24782886333375e-07 125000 -130.920949997733 0 0 24 (C1) n - 1
REM
REM in /home/bkarasulu/work/CARBON/AIRSS/Generating-Clusters/EDIP-Nigel-Params/with-SteepDescent/Only-C1/SD-CG/HFTN-CG
REM
REM
REM
REM
REM
REM ./C.cell (11c1c37f851c82e70ff6c80c92926a4b)
REM
REM compiler GCC version 9.2.1 20190827 (Red Hat 9.2.1-1)
REM options -cpp -mtune=generic -march=x86-64 -g -O0 -fpre-include=/usr/include/finclude/math-vector-fortran.h
REM seed -1563469966 605897663 1866589410 -1603532791 2098398960 950436912 -1741506545 -462426599 -1481326561 1925967657 486258008 -1425656744 1368320194 -1020017793 871869138 -353433814 1905408102 860563292 -2117563940 -173296290 -2065479051 994561046 -256799635 -1655728579 759717205 -126725694 -478737479 310187223 -780789762 -198796665 -478494414 1887464588 1580113585
REM
CELL 1.54180   50.00000   50.00000   50.00000   90.00000   90.00000   90.00000
LATT -1
SFAC C  
C      1  0.5463160000000  0.5510320000000  0.4641950000000 1.0
C      1  0.4920050000000  0.4818580000000  0.5382530000000 1.0
C      1  0.4789330000000  0.4550720000000  0.4813400000000 1.0
C      1  0.4771970000000  0.5223050000000  0.5272840000000 1.0
C      1  0.5330750000000  0.4866580000000  0.4819330000000 1.0
C      1  0.5610220000000  0.5576300000000  0.4443440000000 1.0
C      1  0.4637400000000  0.4719790000000  0.5409120000000 1.0
C      1  0.5584880000000  0.4932020000000  0.4860100000000 1.0
C      1  0.5154050000000  0.5372370000000  0.5060210000000 1.0
C      1  0.5263750000000  0.4565870000000  0.4800690000000 1.0
C      1  0.4484180000000  0.5113230000000  0.5266940000000 1.0
C      1  0.4854590000000  0.4560150000000  0.4538610000000 1.0
C      1  0.4489900000000  0.4816710000000  0.5133580000000 1.0
C      1  0.4910770000000  0.5090520000000  0.5498960000000 1.0
C      1  0.5213140000000  0.4911560000000  0.4548550000000 1.0
C      1  0.5298390000000  0.5444680000000  0.4838090000000 1.0
C      1  0.5034660000000  0.4501180000000  0.4964170000000 1.0
C      1  0.4711190000000  0.4804800000000  0.4931380000000 1.0
C      1  0.4877980000000  0.5463340000000  0.5398810000000 1.0
C      1  0.4463680000000  0.4939630000000  0.5503990000000 1.0
C      1  0.4947450000000  0.5166430000000  0.5034330000000 1.0
C      1  0.5128580000000  0.4625750000000  0.4515070000000 1.0
C      1  0.5085200000000  0.5569850000000  0.5247900000000 1.0
C      1  0.4974710000000  0.4856560000000  0.5076010000000 1.0
END
