TITL C-951347-9520-704 -1.29576392067633e-06 125000 -831.998576739543 0 0 133 (C1) n - 1
REM
REM in /home/bkarasulu/work/CARBON/AIRSS/Generating-Clusters/EDIP-Nigel-Params/with-SteepDescent/Only-C1/SD-CG/HFTN-CG
REM
REM
REM
REM
REM
REM ./C.cell (11c1c37f851c82e70ff6c80c92926a4b)
REM
REM compiler GCC version 9.2.1 20190827 (Red Hat 9.2.1-1)
REM options -cpp -mtune=generic -march=x86-64 -g -O0 -fpre-include=/usr/include/finclude/math-vector-fortran.h
REM seed -1693429171 1162423993 1937935761 -489189878 -197958472 -1269327195 663483105 37158139 140917577 -1344782776 -613717125 -1874054187 -510430415 1935288118 -1758338182 534650185 5494686 925161753 -1610740584 756394751 -1557444614 -433419219 -255196005 -2011191244 -316603364 -702716157 1801109709 -664738359 1998430809 -1452903992 1245177274 -505166550 -456445259
REM
CELL 1.54180   50.00000   50.00000   50.00000   90.00000   90.00000   90.00000
LATT -1
SFAC C  
C      1  0.5449740000000  0.4843210000000  0.4628470000000 1.0
C      1  0.4189100000000  0.5302040000000  0.5721430000000 1.0
C      1  0.4634480000000  0.5271630000000  0.5418610000000 1.0
C      1  0.4442560000000  0.5030210000000  0.5203920000000 1.0
C      1  0.4963700000000  0.5184600000000  0.5080490000000 1.0
C      1  0.5882410000000  0.5170260000000  0.4601870000000 1.0
C      1  0.4132130000000  0.5348520000000  0.5222620000000 1.0
C      1  0.5009260000000  0.5493810000000  0.5589980000000 1.0
C      1  0.5754460000000  0.5351090000000  0.5528510000000 1.0
C      1  0.4671660000000  0.5394390000000  0.4639390000000 1.0
C      1  0.4789560000000  0.5797560000000  0.4387400000000 1.0
C      1  0.5181010000000  0.5290820000000  0.4525690000000 1.0
C      1  0.5144920000000  0.5755190000000  0.5007900000000 1.0
C      1  0.5560870000000  0.4127520000000  0.4976060000000 1.0
C      1  0.5313870000000  0.5334990000000  0.4250630000000 1.0
C      1  0.5316540000000  0.4650220000000  0.4834690000000 1.0
C      1  0.4850840000000  0.4925230000000  0.4932580000000 1.0
C      1  0.4292260000000  0.5736190000000  0.4935210000000 1.0
C      1  0.5501540000000  0.5057100000000  0.5161400000000 1.0
C      1  0.5458010000000  0.5745190000000  0.5365950000000 1.0
C      1  0.4568550000000  0.5487060000000  0.4366670000000 1.0
C      1  0.4440540000000  0.5417020000000  0.5858560000000 1.0
C      1  0.4482730000000  0.4564180000000  0.4446940000000 1.0
C      1  0.5742430000000  0.5480390000000  0.5034440000000 1.0
C      1  0.4873670000000  0.4162940000000  0.4705430000000 1.0
C      1  0.4337910000000  0.5319860000000  0.4260310000000 1.0
C      1  0.5024200000000  0.4637840000000  0.4791810000000 1.0
C      1  0.4635050000000  0.4715680000000  0.5849960000000 1.0
C      1  0.5037380000000  0.4682130000000  0.4003040000000 1.0
C      1  0.5361980000000  0.5058230000000  0.5815450000000 1.0
C      1  0.5083510000000  0.3977050000000  0.4789850000000 1.0
C      1  0.5884560000000  0.4525110000000  0.5031830000000 1.0
C      1  0.4907780000000  0.5183780000000  0.5952110000000 1.0
C      1  0.4714200000000  0.5335890000000  0.5129270000000 1.0
C      1  0.5708290000000  0.5090380000000  0.5664570000000 1.0
C      1  0.4601230000000  0.5186790000000  0.5960690000000 1.0
C      1  0.4925630000000  0.4705080000000  0.5832540000000 1.0
C      1  0.5198420000000  0.4339650000000  0.4361610000000 1.0
C      1  0.5411000000000  0.4814730000000  0.4290700000000 1.0
C      1  0.4866740000000  0.5864250000000  0.4906550000000 1.0
C      1  0.4687590000000  0.4685020000000  0.5336850000000 1.0
C      1  0.4886440000000  0.4393670000000  0.4905320000000 1.0
C      1  0.5821190000000  0.4889880000000  0.5483500000000 1.0
C      1  0.4888420000000  0.4093390000000  0.5475590000000 1.0
C      1  0.4208840000000  0.4902380000000  0.5381200000000 1.0
C      1  0.5434460000000  0.5260670000000  0.4947960000000 1.0
C      1  0.4429120000000  0.5850270000000  0.5152360000000 1.0
C      1  0.4145830000000  0.4487170000000  0.5108670000000 1.0
C      1  0.5614250000000  0.5425230000000  0.4290770000000 1.0
C      1  0.5353860000000  0.4555810000000  0.5145540000000 1.0
C      1  0.4697670000000  0.5836090000000  0.4661480000000 1.0
C      1  0.5867250000000  0.4890550000000  0.4697880000000 1.0
C      1  0.4784420000000  0.5060230000000  0.4117970000000 1.0
C      1  0.4009800000000  0.5078710000000  0.5211440000000 1.0
C      1  0.5396690000000  0.4257110000000  0.5512310000000 1.0
C      1  0.5366930000000  0.4729420000000  0.5425410000000 1.0
C      1  0.5417510000000  0.5849680000000  0.4904400000000 1.0
C      1  0.4499570000000  0.4480640000000  0.5458910000000 1.0
C      1  0.5526270000000  0.4305370000000  0.5230900000000 1.0
C      1  0.5054120000000  0.5051170000000  0.5361250000000 1.0
C      1  0.5069260000000  0.4478660000000  0.5239360000000 1.0
C      1  0.5897570000000  0.4819280000000  0.4980660000000 1.0
C      1  0.4763120000000  0.4960080000000  0.4635210000000 1.0
C      1  0.4919070000000  0.4725110000000  0.4516990000000 1.0
C      1  0.4247440000000  0.5009850000000  0.5671360000000 1.0
C      1  0.5416460000000  0.5566570000000  0.5825960000000 1.0
C      1  0.4709350000000  0.5881520000000  0.5151030000000 1.0
C      1  0.4700080000000  0.5335360000000  0.4135400000000 1.0
C      1  0.5611490000000  0.5743590000000  0.5108290000000 1.0
C      1  0.5080160000000  0.5398030000000  0.6060700000000 1.0
C      1  0.4916520000000  0.4263630000000  0.4421410000000 1.0
C      1  0.4613350000000  0.4180900000000  0.5435060000000 1.0
C      1  0.5147910000000  0.5547630000000  0.4129430000000 1.0
C      1  0.4376510000000  0.4409150000000  0.4672110000000 1.0
C      1  0.5862840000000  0.5303150000000  0.5248050000000 1.0
C      1  0.4537580000000  0.5523410000000  0.5573340000000 1.0
C      1  0.5222950000000  0.4594610000000  0.4216890000000 1.0
C      1  0.5772320000000  0.4597450000000  0.5532950000000 1.0
C      1  0.4874820000000  0.5211660000000  0.4522090000000 1.0
C      1  0.4759990000000  0.4599760000000  0.4065840000000 1.0
C      1  0.4613220000000  0.4808610000000  0.5088220000000 1.0
C      1  0.4504250000000  0.4966980000000  0.5807310000000 1.0
C      1  0.5165590000000  0.5585810000000  0.4602340000000 1.0
C      1  0.4580140000000  0.4087630000000  0.4736360000000 1.0
C      1  0.4051030000000  0.5305510000000  0.4780620000000 1.0
C      1  0.5338640000000  0.4103360000000  0.4775560000000 1.0
C      1  0.5036210000000  0.4469720000000  0.5729250000000 1.0
C      1  0.5492720000000  0.4529630000000  0.5632610000000 1.0
C      1  0.5778480000000  0.4674770000000  0.4495620000000 1.0
C      1  0.5669940000000  0.4406530000000  0.4587510000000 1.0
C      1  0.4900530000000  0.5217550000000  0.5564600000000 1.0
C      1  0.5356690000000  0.5040340000000  0.5424120000000 1.0
C      1  0.5816960000000  0.5208420000000  0.4315900000000 1.0
C      1  0.5525460000000  0.5532650000000  0.5557340000000 1.0
C      1  0.5373160000000  0.5309820000000  0.5988440000000 1.0
C      1  0.4262960000000  0.5071360000000  0.4386160000000 1.0
C      1  0.4796800000000  0.5704560000000  0.5619880000000 1.0
C      1  0.4370880000000  0.4795640000000  0.4274500000000 1.0
C      1  0.4249170000000  0.5433370000000  0.4953610000000 1.0
C      1  0.5792550000000  0.5414520000000  0.4744100000000 1.0
C      1  0.5161020000000  0.5789780000000  0.5298500000000 1.0
C      1  0.5160780000000  0.5414150000000  0.4955270000000 1.0
C      1  0.4032310000000  0.5045910000000  0.4912770000000 1.0
C      1  0.4494000000000  0.4505180000000  0.5743660000000 1.0
C      1  0.4201860000000  0.4576570000000  0.4851150000000 1.0
C      1  0.5663810000000  0.5583740000000  0.4541540000000 1.0
C      1  0.5772610000000  0.4313440000000  0.4844430000000 1.0
C      1  0.4882290000000  0.5865970000000  0.5386140000000 1.0
C      1  0.4169320000000  0.5467110000000  0.5479720000000 1.0
C      1  0.5794620000000  0.5005700000000  0.5205720000000 1.0
C      1  0.4433730000000  0.4965450000000  0.4621970000000 1.0
C      1  0.5106140000000  0.5620960000000  0.5850690000000 1.0
C      1  0.5059140000000  0.5706890000000  0.4349880000000 1.0
C      1  0.5795000000000  0.4422970000000  0.5291240000000 1.0
C      1  0.4419300000000  0.5829070000000  0.4703750000000 1.0
C      1  0.5393910000000  0.4299950000000  0.4572750000000 1.0
C      1  0.5824600000000  0.4992340000000  0.4135190000000 1.0
C      1  0.4617030000000  0.4003220000000  0.5213800000000 1.0
C      1  0.5696770000000  0.4759860000000  0.4215800000000 1.0
C      1  0.4966760000000  0.4728370000000  0.5397820000000 1.0
C      1  0.4517990000000  0.5285850000000  0.4893980000000 1.0
C      1  0.5298450000000  0.5058920000000  0.4133460000000 1.0
C      1  0.4253510000000  0.4863170000000  0.4843350000000 1.0
C      1  0.5075580000000  0.4951850000000  0.5871900000000 1.0
C      1  0.4490680000000  0.4147970000000  0.5008000000000 1.0
C      1  0.5425280000000  0.5733270000000  0.4632700000000 1.0
C      1  0.5095300000000  0.4305970000000  0.5495920000000 1.0
C      1  0.4589400000000  0.4846130000000  0.4069970000000 1.0
C      1  0.5364700000000  0.5122610000000  0.4694570000000 1.0
C      1  0.5044260000000  0.4981780000000  0.4002010000000 1.0
C      1  0.4765330000000  0.4522540000000  0.4360900000000 1.0
C      1  0.4598380000000  0.4438600000000  0.4984990000000 1.0
C      1  0.4227040000000  0.4588220000000  0.5355440000000 1.0
END
