TITL C-951338-5626-561 -2.61707923772377e-06 125000 -520.785586476093 0 0 85 (C1) n - 1
REM
REM in /home/bkarasulu/work/CARBON/AIRSS/Generating-Clusters/EDIP-Nigel-Params/with-SteepDescent/Only-C1/SD-CG/HFTN-CG
REM
REM
REM
REM
REM
REM ./C.cell (11c1c37f851c82e70ff6c80c92926a4b)
REM
REM compiler GCC version 9.2.1 20190827 (Red Hat 9.2.1-1)
REM options -cpp -mtune=generic -march=x86-64 -g -O0 -fpre-include=/usr/include/finclude/math-vector-fortran.h
REM seed 968946590 -413981059 -973759147 399153243 601977361 1845557832 1805390658 -1673397209 -814127639 -689944239 2097114000 -268651016 -520510704 225159418 -1597768976 -1485481903 1595510472 310689146 -1876584839 -19084077 1911635672 -2094145003 -1609617190 1746854569 1207215485 352427220 -969746828 -599169791 826432060 -269714741 625601415 1272319944 -704637138
REM
CELL 1.54180   50.00000   50.00000   50.00000   90.00000   90.00000   90.00000
LATT -1
SFAC C  
C      1  0.4534560000000  0.5070950000000  0.5820430000000 1.0
C      1  0.4295710000000  0.5091040000000  0.4607790000000 1.0
C      1  0.5059720000000  0.4784710000000  0.4291690000000 1.0
C      1  0.5607910000000  0.4575060000000  0.5275730000000 1.0
C      1  0.4952820000000  0.5748650000000  0.5084950000000 1.0
C      1  0.5215810000000  0.4976790000000  0.4793200000000 1.0
C      1  0.5341800000000  0.5291290000000  0.4394020000000 1.0
C      1  0.4633430000000  0.4638640000000  0.5517280000000 1.0
C      1  0.5018090000000  0.5670680000000  0.4618840000000 1.0
C      1  0.5329570000000  0.4591460000000  0.5153590000000 1.0
C      1  0.5549350000000  0.4320150000000  0.4845830000000 1.0
C      1  0.4914000000000  0.5032290000000  0.4293560000000 1.0
C      1  0.4466430000000  0.5237380000000  0.4415920000000 1.0
C      1  0.4638670000000  0.4949330000000  0.5174510000000 1.0
C      1  0.5285270000000  0.4334690000000  0.4997580000000 1.0
C      1  0.4387820000000  0.4377680000000  0.5216790000000 1.0
C      1  0.4341910000000  0.4860700000000  0.5232540000000 1.0
C      1  0.5839140000000  0.5332360000000  0.4728490000000 1.0
C      1  0.4231670000000  0.4755590000000  0.4992430000000 1.0
C      1  0.4767440000000  0.5242540000000  0.5326560000000 1.0
C      1  0.5677880000000  0.5100570000000  0.4670240000000 1.0
C      1  0.4800710000000  0.4160230000000  0.5062400000000 1.0
C      1  0.4696220000000  0.4905640000000  0.5604180000000 1.0
C      1  0.5489220000000  0.5048220000000  0.4271760000000 1.0
C      1  0.5393580000000  0.4820200000000  0.4956970000000 1.0
C      1  0.5572660000000  0.5463000000000  0.5418160000000 1.0
C      1  0.4874550000000  0.5543680000000  0.5679750000000 1.0
C      1  0.5127280000000  0.4616510000000  0.5402890000000 1.0
C      1  0.4488160000000  0.4752710000000  0.4326210000000 1.0
C      1  0.4945560000000  0.4924460000000  0.5779630000000 1.0
C      1  0.5377340000000  0.5369070000000  0.4922880000000 1.0
C      1  0.5416230000000  0.4914990000000  0.5547710000000 1.0
C      1  0.4213420000000  0.5267630000000  0.5530730000000 1.0
C      1  0.4802230000000  0.5105710000000  0.5972000000000 1.0
C      1  0.5753210000000  0.4471870000000  0.5024610000000 1.0
C      1  0.5703850000000  0.5562430000000  0.4646110000000 1.0
C      1  0.4842960000000  0.4535400000000  0.5340960000000 1.0
C      1  0.5383730000000  0.5195140000000  0.4688290000000 1.0
C      1  0.4532080000000  0.4429100000000  0.4738350000000 1.0
C      1  0.4208850000000  0.5142140000000  0.5281800000000 1.0
C      1  0.5486820000000  0.4560450000000  0.4373090000000 1.0
C      1  0.5224520000000  0.4987840000000  0.5326070000000 1.0
C      1  0.5388590000000  0.5090160000000  0.5771210000000 1.0
C      1  0.5051670000000  0.5287330000000  0.4316100000000 1.0
C      1  0.4623710000000  0.5016980000000  0.4294310000000 1.0
C      1  0.4645140000000  0.4511340000000  0.4400220000000 1.0
C      1  0.4430760000000  0.5320240000000  0.5699470000000 1.0
C      1  0.5545280000000  0.4388600000000  0.4571720000000 1.0
C      1  0.4275260000000  0.4804660000000  0.4524270000000 1.0
C      1  0.5210980000000  0.4397580000000  0.5576800000000 1.0
C      1  0.4307200000000  0.4630700000000  0.4756470000000 1.0
C      1  0.5003930000000  0.4293230000000  0.4876060000000 1.0
C      1  0.4523380000000  0.4258930000000  0.4994770000000 1.0
C      1  0.4372850000000  0.4603350000000  0.5391830000000 1.0
C      1  0.4861910000000  0.4241360000000  0.5345480000000 1.0
C      1  0.4466050000000  0.5549090000000  0.5051590000000 1.0
C      1  0.5307370000000  0.5579400000000  0.5380140000000 1.0
C      1  0.4441370000000  0.5115200000000  0.4880480000000 1.0
C      1  0.5408860000000  0.5201940000000  0.5178640000000 1.0
C      1  0.4891390000000  0.5502360000000  0.4424020000000 1.0
C      1  0.5878570000000  0.4689600000000  0.4892270000000 1.0
C      1  0.5668310000000  0.4832270000000  0.5422810000000 1.0
C      1  0.4647570000000  0.5420060000000  0.4577420000000 1.0
C      1  0.5674890000000  0.5203780000000  0.5328400000000 1.0
C      1  0.4933700000000  0.5012650000000  0.4848540000000 1.0
C      1  0.4754540000000  0.5426680000000  0.5079370000000 1.0
C      1  0.4928960000000  0.4560240000000  0.4411110000000 1.0
C      1  0.4727160000000  0.5239920000000  0.4829810000000 1.0
C      1  0.5479360000000  0.5571350000000  0.4447000000000 1.0
C      1  0.5113560000000  0.4170660000000  0.5457530000000 1.0
C      1  0.5064110000000  0.5225200000000  0.5429460000000 1.0
C      1  0.4833950000000  0.4537850000000  0.4783360000000 1.0
C      1  0.4657230000000  0.5431490000000  0.5541020000000 1.0
C      1  0.5425890000000  0.5661960000000  0.4892760000000 1.0
C      1  0.5241280000000  0.5733630000000  0.5134990000000 1.0
C      1  0.4550230000000  0.5666710000000  0.4774140000000 1.0
C      1  0.5672200000000  0.4878660000000  0.4870580000000 1.0
C      1  0.4834260000000  0.5778240000000  0.4818610000000 1.0
C      1  0.5347790000000  0.4792980000000  0.4303670000000 1.0
C      1  0.5107960000000  0.5171200000000  0.5736160000000 1.0
C      1  0.4283770000000  0.5309460000000  0.5042910000000 1.0
C      1  0.5739440000000  0.5017030000000  0.4394770000000 1.0
C      1  0.5133510000000  0.5591080000000  0.5605320000000 1.0
C      1  0.5300660000000  0.5741940000000  0.4620870000000 1.0
C      1  0.4823170000000  0.4783940000000  0.4977040000000 1.0
END
