TITL C-950533-5798-31 -4.77983160288378e-06 125000 -769.13877568297 0 0 125 (C1) n - 1
REM
REM in /home/bkarasulu/work/CARBON/AIRSS/Generating-Clusters/EDIP-Nigel-Params/with-SteepDescent/Only-C1/SD-CG/HFTN-CG
REM
REM
REM
REM
REM
REM ./C.cell (11c1c37f851c82e70ff6c80c92926a4b)
REM
REM compiler GCC version 9.2.1 20190827 (Red Hat 9.2.1-1)
REM options -cpp -mtune=generic -march=x86-64 -g -O0 -fpre-include=/usr/include/finclude/math-vector-fortran.h
REM seed -913830760 1496334098 1245833385 1016036982 -1329112571 705217186 1860998110 1533153630 -367001879 1134121416 491791183 1815479561 -454180230 -1771005154 -1875203775 700788227 -16314389 -1202751031 -2014582500 -801353768 1226081133 465187217 -735759188 271215939 146709660 -2138460729 104332147 137955844 -166774132 -1755910300 -1688939474 608504291 -1205575103
REM
CELL 1.54180   50.00000   50.00000   50.00000   90.00000   90.00000   90.00000
LATT -1
SFAC C  
C      1  0.5338420000000  0.5157720000000  0.6024990000000 1.0
C      1  0.4978870000000  0.5110310000000  0.4464630000000 1.0
C      1  0.5240620000000  0.5457360000000  0.4729010000000 1.0
C      1  0.4349830000000  0.4285470000000  0.5367220000000 1.0
C      1  0.5456780000000  0.5064200000000  0.4654180000000 1.0
C      1  0.4671090000000  0.4816540000000  0.4736400000000 1.0
C      1  0.4719280000000  0.5396930000000  0.4458910000000 1.0
C      1  0.5650370000000  0.4749090000000  0.5123460000000 1.0
C      1  0.4200370000000  0.5674260000000  0.5049200000000 1.0
C      1  0.4969150000000  0.4141880000000  0.5419390000000 1.0
C      1  0.5270220000000  0.4473780000000  0.5595780000000 1.0
C      1  0.4822590000000  0.4912040000000  0.4965430000000 1.0
C      1  0.5051250000000  0.5897090000000  0.4672590000000 1.0
C      1  0.5228190000000  0.4062160000000  0.4860060000000 1.0
C      1  0.4799450000000  0.5306800000000  0.5295050000000 1.0
C      1  0.5555940000000  0.4583810000000  0.5594860000000 1.0
C      1  0.3992140000000  0.5594070000000  0.4876550000000 1.0
C      1  0.5210590000000  0.4813410000000  0.4260280000000 1.0
C      1  0.4458360000000  0.4895720000000  0.5797680000000 1.0
C      1  0.5562960000000  0.5387200000000  0.5465600000000 1.0
C      1  0.5808620000000  0.5013640000000  0.5483960000000 1.0
C      1  0.5496450000000  0.5012030000000  0.5832360000000 1.0
C      1  0.4970650000000  0.5854150000000  0.4403210000000 1.0
C      1  0.4856230000000  0.4569080000000  0.5289850000000 1.0
C      1  0.5328850000000  0.5546940000000  0.4372090000000 1.0
C      1  0.5579980000000  0.5036830000000  0.4199470000000 1.0
C      1  0.4376640000000  0.4785470000000  0.5267620000000 1.0
C      1  0.5876630000000  0.5169140000000  0.5240570000000 1.0
C      1  0.4348330000000  0.5326630000000  0.4354570000000 1.0
C      1  0.5890340000000  0.4908060000000  0.4543940000000 1.0
C      1  0.4404620000000  0.5825490000000  0.4911440000000 1.0
C      1  0.5281420000000  0.5420590000000  0.5954820000000 1.0
C      1  0.5051710000000  0.5215260000000  0.4740100000000 1.0
C      1  0.5355560000000  0.5910670000000  0.4722140000000 1.0
C      1  0.5039570000000  0.5684670000000  0.5136050000000 1.0
C      1  0.4106990000000  0.4773150000000  0.4684090000000 1.0
C      1  0.5296590000000  0.4531770000000  0.4968860000000 1.0
C      1  0.5274920000000  0.5049840000000  0.5087100000000 1.0
C      1  0.5687660000000  0.5108810000000  0.4467130000000 1.0
C      1  0.5016130000000  0.5647830000000  0.4835670000000 1.0
C      1  0.4492200000000  0.5600220000000  0.4417790000000 1.0
C      1  0.5115830000000  0.5029960000000  0.6122660000000 1.0
C      1  0.4617200000000  0.5884960000000  0.5079600000000 1.0
C      1  0.4965590000000  0.4668040000000  0.5850380000000 1.0
C      1  0.4604100000000  0.5288370000000  0.5038040000000 1.0
C      1  0.4120590000000  0.5245690000000  0.5290450000000 1.0
C      1  0.5062650000000  0.5610880000000  0.4290660000000 1.0
C      1  0.4061290000000  0.5330590000000  0.4805000000000 1.0
C      1  0.4318050000000  0.5463410000000  0.5233220000000 1.0
C      1  0.4241470000000  0.5018100000000  0.5430370000000 1.0
C      1  0.4841700000000  0.4843200000000  0.4499060000000 1.0
C      1  0.5700910000000  0.4377310000000  0.5357940000000 1.0
C      1  0.5653480000000  0.5183990000000  0.5659090000000 1.0
C      1  0.5289300000000  0.5809420000000  0.5234560000000 1.0
C      1  0.5094290000000  0.4308430000000  0.4955860000000 1.0
C      1  0.5499680000000  0.5742160000000  0.4512460000000 1.0
C      1  0.4877180000000  0.4950380000000  0.3947570000000 1.0
C      1  0.4876890000000  0.4284280000000  0.5166610000000 1.0
C      1  0.5143720000000  0.5502530000000  0.5727310000000 1.0
C      1  0.5576970000000  0.4737970000000  0.4216300000000 1.0
C      1  0.4796950000000  0.5034540000000  0.5432790000000 1.0
C      1  0.5408770000000  0.4541220000000  0.4663250000000 1.0
C      1  0.4523210000000  0.5109960000000  0.4223570000000 1.0
C      1  0.5481390000000  0.4089880000000  0.5001910000000 1.0
C      1  0.4243050000000  0.5218720000000  0.4603630000000 1.0
C      1  0.4427500000000  0.5562910000000  0.5494980000000 1.0
C      1  0.5040600000000  0.4929220000000  0.5576480000000 1.0
C      1  0.4845300000000  0.4542750000000  0.4178960000000 1.0
C      1  0.5511030000000  0.5153580000000  0.4925120000000 1.0
C      1  0.4344030000000  0.4546410000000  0.5467920000000 1.0
C      1  0.5262800000000  0.4360100000000  0.4464320000000 1.0
C      1  0.4653370000000  0.4234420000000  0.4722980000000 1.0
C      1  0.5463560000000  0.5797320000000  0.4998590000000 1.0
C      1  0.4385320000000  0.5035340000000  0.5000920000000 1.0
C      1  0.4798450000000  0.5794450000000  0.5267640000000 1.0
C      1  0.4421380000000  0.4582870000000  0.4434420000000 1.0
C      1  0.5257030000000  0.4206360000000  0.5465980000000 1.0
C      1  0.4369170000000  0.4249760000000  0.5090250000000 1.0
C      1  0.4768970000000  0.5173830000000  0.4080110000000 1.0
C      1  0.4629460000000  0.4129020000000  0.5010590000000 1.0
C      1  0.4756430000000  0.4484330000000  0.5772090000000 1.0
C      1  0.5126380000000  0.4833150000000  0.4948710000000 1.0
C      1  0.4716690000000  0.5567270000000  0.5452680000000 1.0
C      1  0.4236350000000  0.4530600000000  0.4649190000000 1.0
C      1  0.4869970000000  0.4177320000000  0.4539950000000 1.0
C      1  0.4342030000000  0.4956010000000  0.4701460000000 1.0
C      1  0.5800710000000  0.4504090000000  0.5106870000000 1.0
C      1  0.4822720000000  0.4241450000000  0.5642020000000 1.0
C      1  0.5763970000000  0.4664940000000  0.4438340000000 1.0
C      1  0.5582100000000  0.4739930000000  0.5849830000000 1.0
C      1  0.5083300000000  0.5408900000000  0.5241640000000 1.0
C      1  0.5520350000000  0.5504350000000  0.4888780000000 1.0
C      1  0.4850470000000  0.5538860000000  0.5725320000000 1.0
C      1  0.4096350000000  0.5138840000000  0.5024960000000 1.0
C      1  0.5290050000000  0.5522400000000  0.5463640000000 1.0
C      1  0.4643180000000  0.4528980000000  0.4821060000000 1.0
C      1  0.4395540000000  0.5434660000000  0.5748230000000 1.0
C      1  0.5244600000000  0.4086080000000  0.4570780000000 1.0
C      1  0.5023730000000  0.4729060000000  0.4040610000000 1.0
C      1  0.4975790000000  0.4425840000000  0.4425570000000 1.0
C      1  0.4691030000000  0.5062580000000  0.5862230000000 1.0
C      1  0.4964100000000  0.5402720000000  0.4093270000000 1.0
C      1  0.5104270000000  0.4659490000000  0.5432160000000 1.0
C      1  0.4704560000000  0.4826290000000  0.5233040000000 1.0
C      1  0.4365160000000  0.4505850000000  0.4929020000000 1.0
C      1  0.4627520000000  0.4743170000000  0.4295400000000 1.0
C      1  0.5792310000000  0.5373840000000  0.4490930000000 1.0
C      1  0.4647970000000  0.5361100000000  0.5867940000000 1.0
C      1  0.5439890000000  0.4281320000000  0.5231740000000 1.0
C      1  0.4220900000000  0.5016220000000  0.5709930000000 1.0
C      1  0.5773320000000  0.4423250000000  0.4601760000000 1.0
C      1  0.4431620000000  0.5761060000000  0.4639180000000 1.0
C      1  0.5258640000000  0.4831010000000  0.4642200000000 1.0
C      1  0.5580330000000  0.4826280000000  0.5401040000000 1.0
C      1  0.5727820000000  0.4339020000000  0.4875210000000 1.0
C      1  0.4498870000000  0.4616360000000  0.5710810000000 1.0
C      1  0.5960320000000  0.4935030000000  0.4811180000000 1.0
C      1  0.5767000000000  0.5002470000000  0.5015350000000 1.0
C      1  0.5705800000000  0.5580290000000  0.4654720000000 1.0
C      1  0.5286910000000  0.5130220000000  0.4223800000000 1.0
C      1  0.5194480000000  0.5270340000000  0.3985110000000 1.0
C      1  0.5314640000000  0.4983290000000  0.5377870000000 1.0
C      1  0.5750040000000  0.5422550000000  0.5258410000000 1.0
C      1  0.4788600000000  0.5377620000000  0.4769300000000 1.0
C      1  0.4904370000000  0.4909120000000  0.5991020000000 1.0
END
