TITL C-950536-5891-578 -5.52138760696383e-07 125000 -314.843980579769 0 0 52 (C1) n - 1
REM
REM in /home/bkarasulu/work/CARBON/AIRSS/Generating-Clusters/EDIP-Nigel-Params/with-SteepDescent/Only-C1/SD-CG/HFTN-CG
REM
REM
REM
REM
REM
REM ./C.cell (11c1c37f851c82e70ff6c80c92926a4b)
REM
REM compiler GCC version 9.2.1 20190827 (Red Hat 9.2.1-1)
REM options -cpp -mtune=generic -march=x86-64 -g -O0 -fpre-include=/usr/include/finclude/math-vector-fortran.h
REM seed 963747380 -1107348170 74008685 -630450997 23179518 -1561309087 -72433102 -644537073 -2097491598 1684354860 -1998431908 -1970217241 284785822 -2129094550 -1607552302 -1204402648 1564580820 1205959750 -2005254581 381473403 736403267 -1756196297 188165589 1104320163 1054796615 705621002 1336729047 2067366154 307299688 1965807550 1729878827 112961701 -1132723712
REM
CELL 1.54180   50.00000   50.00000   50.00000   90.00000   90.00000   90.00000
LATT -1
SFAC C  
C      1  0.5355370000000  0.4501620000000  0.5278770000000 1.0
C      1  0.4782030000000  0.5218360000000  0.5450790000000 1.0
C      1  0.5585010000000  0.5601740000000  0.4806650000000 1.0
C      1  0.4458990000000  0.4780450000000  0.4998260000000 1.0
C      1  0.4893490000000  0.4704710000000  0.5160150000000 1.0
C      1  0.5473280000000  0.5079140000000  0.5267750000000 1.0
C      1  0.5034500000000  0.5342500000000  0.4397870000000 1.0
C      1  0.4333600000000  0.5194520000000  0.5303060000000 1.0
C      1  0.5214550000000  0.5488710000000  0.5407820000000 1.0
C      1  0.5338910000000  0.4952330000000  0.5017720000000 1.0
C      1  0.5485920000000  0.4655790000000  0.5494840000000 1.0
C      1  0.5210480000000  0.4668970000000  0.5071330000000 1.0
C      1  0.4704510000000  0.5409890000000  0.4962510000000 1.0
C      1  0.4913080000000  0.4275470000000  0.5283590000000 1.0
C      1  0.5027760000000  0.4456120000000  0.4644000000000 1.0
C      1  0.4793360000000  0.4338990000000  0.4755140000000 1.0
C      1  0.4377430000000  0.5188100000000  0.4675100000000 1.0
C      1  0.5187860000000  0.4287070000000  0.5351830000000 1.0
C      1  0.4397210000000  0.4692120000000  0.4746000000000 1.0
C      1  0.4683630000000  0.4917190000000  0.5108090000000 1.0
C      1  0.5043270000000  0.4895890000000  0.4610770000000 1.0
C      1  0.5081130000000  0.5728600000000  0.5027460000000 1.0
C      1  0.5071880000000  0.5550450000000  0.4603800000000 1.0
C      1  0.4367710000000  0.4926340000000  0.4591200000000 1.0
C      1  0.4554910000000  0.4469710000000  0.4682180000000 1.0
C      1  0.5254250000000  0.4511340000000  0.4813800000000 1.0
C      1  0.4999800000000  0.5633970000000  0.5295630000000 1.0
C      1  0.5656540000000  0.5382030000000  0.4649980000000 1.0
C      1  0.5623370000000  0.4879500000000  0.5395440000000 1.0
C      1  0.5525060000000  0.4917640000000  0.4759690000000 1.0
C      1  0.4808550000000  0.5129180000000  0.4909470000000 1.0
C      1  0.5047290000000  0.4826510000000  0.5666260000000 1.0
C      1  0.5423540000000  0.4666470000000  0.4623290000000 1.0
C      1  0.4763740000000  0.5459450000000  0.5265170000000 1.0
C      1  0.5526010000000  0.5147970000000  0.4556360000000 1.0
C      1  0.4775720000000  0.5228450000000  0.4411880000000 1.0
C      1  0.5364320000000  0.5596210000000  0.5004180000000 1.0
C      1  0.4871520000000  0.5628880000000  0.4816110000000 1.0
C      1  0.4788920000000  0.4526410000000  0.5371360000000 1.0
C      1  0.4857000000000  0.4624480000000  0.5628170000000 1.0
C      1  0.4837100000000  0.4233180000000  0.5013470000000 1.0
C      1  0.5280780000000  0.5218270000000  0.5456880000000 1.0
C      1  0.5034860000000  0.5063070000000  0.5489730000000 1.0
C      1  0.5283470000000  0.5189800000000  0.4400010000000 1.0
C      1  0.4415840000000  0.5381290000000  0.4878350000000 1.0
C      1  0.4567570000000  0.5049450000000  0.5355440000000 1.0
C      1  0.4249960000000  0.5349790000000  0.5099140000000 1.0
C      1  0.5251170000000  0.5400730000000  0.4787350000000 1.0
C      1  0.5303240000000  0.4719930000000  0.5698530000000 1.0
C      1  0.5124810000000  0.5139650000000  0.4902830000000 1.0
C      1  0.5201280000000  0.4732210000000  0.4435410000000 1.0
C      1  0.4794440000000  0.5039390000000  0.4619410000000 1.0
END
