TITL C-950533-5798-467 9.05266300729824e-07 125000 -375.69106681422 0 0 62 (C1) n - 1
REM
REM in /home/bkarasulu/work/CARBON/AIRSS/Generating-Clusters/EDIP-Nigel-Params/with-SteepDescent/Only-C1/SD-CG/HFTN-CG
REM
REM
REM
REM
REM
REM ./C.cell (11c1c37f851c82e70ff6c80c92926a4b)
REM
REM compiler GCC version 9.2.1 20190827 (Red Hat 9.2.1-1)
REM options -cpp -mtune=generic -march=x86-64 -g -O0 -fpre-include=/usr/include/finclude/math-vector-fortran.h
REM seed -1684372444 -1807087624 -2109197275 -1645320022 -1913231234 1444448251 1490756344 566422168 -1064167776 -1097706291 808878251 427374312 1052964010 -1834854309 -1590502549 1850474090 -1247919987 1146999766 1864754671 2117929211 1387519423 1354299359 346193358 -1601893945 1375103259 -2077060108 932048927 -97199721 156355648 -231932196 1387944262 477844084 1792932138
REM
CELL 1.54180   50.00000   50.00000   50.00000   90.00000   90.00000   90.00000
LATT -1
SFAC C  
C      1  0.4703690000000  0.5088000000000  0.4739960000000 1.0
C      1  0.5176270000000  0.4505180000000  0.4604230000000 1.0
C      1  0.4905040000000  0.5609750000000  0.5426900000000 1.0
C      1  0.4969240000000  0.4348030000000  0.5226920000000 1.0
C      1  0.5074750000000  0.4981310000000  0.4391730000000 1.0
C      1  0.5070570000000  0.5033750000000  0.5429590000000 1.0
C      1  0.4315110000000  0.5366280000000  0.4833970000000 1.0
C      1  0.5269010000000  0.5194100000000  0.4308560000000 1.0
C      1  0.4584880000000  0.4225170000000  0.4956570000000 1.0
C      1  0.4782360000000  0.5122720000000  0.5471010000000 1.0
C      1  0.5196860000000  0.5291980000000  0.5278910000000 1.0
C      1  0.5392040000000  0.4323290000000  0.5001400000000 1.0
C      1  0.4919870000000  0.5648840000000  0.5117340000000 1.0
C      1  0.4801980000000  0.4843470000000  0.5131790000000 1.0
C      1  0.5253320000000  0.4419280000000  0.5225180000000 1.0
C      1  0.4919050000000  0.4694380000000  0.5730990000000 1.0
C      1  0.5523320000000  0.4763490000000  0.4828880000000 1.0
C      1  0.4692510000000  0.4652170000000  0.5569760000000 1.0
C      1  0.4569840000000  0.4917040000000  0.5502020000000 1.0
C      1  0.4574750000000  0.4668150000000  0.4504390000000 1.0
C      1  0.5441340000000  0.5346890000000  0.4730830000000 1.0
C      1  0.5328850000000  0.4914350000000  0.5010940000000 1.0
C      1  0.5103800000000  0.4834470000000  0.5193060000000 1.0
C      1  0.5172260000000  0.4715380000000  0.4414720000000 1.0
C      1  0.5022870000000  0.5550380000000  0.4540640000000 1.0
C      1  0.5393290000000  0.4746420000000  0.5714610000000 1.0
C      1  0.4988780000000  0.5099510000000  0.4644090000000 1.0
C      1  0.5397870000000  0.4445410000000  0.5471460000000 1.0
C      1  0.5786670000000  0.4763810000000  0.4952730000000 1.0
C      1  0.4675290000000  0.4414810000000  0.4566180000000 1.0
C      1  0.4922700000000  0.4419260000000  0.4722740000000 1.0
C      1  0.5412510000000  0.4489980000000  0.4776460000000 1.0
C      1  0.5688150000000  0.5443490000000  0.4868340000000 1.0
C      1  0.4496520000000  0.4451490000000  0.5134590000000 1.0
C      1  0.5546630000000  0.4906460000000  0.4579170000000 1.0
C      1  0.4674690000000  0.5734390000000  0.4954720000000 1.0
C      1  0.4886090000000  0.4242550000000  0.4958490000000 1.0
C      1  0.4755240000000  0.5165890000000  0.5031090000000 1.0
C      1  0.5500100000000  0.5171350000000  0.4498100000000 1.0
C      1  0.4712730000000  0.5740900000000  0.4665910000000 1.0
C      1  0.4513120000000  0.5298070000000  0.5165290000000 1.0
C      1  0.5412920000000  0.5181740000000  0.5090470000000 1.0
C      1  0.5134620000000  0.4868540000000  0.5682790000000 1.0
C      1  0.5851760000000  0.5017810000000  0.5021970000000 1.0
C      1  0.4484560000000  0.4246720000000  0.4690190000000 1.0
C      1  0.5704050000000  0.5248800000000  0.5070660000000 1.0
C      1  0.4438410000000  0.5571840000000  0.5033690000000 1.0
C      1  0.5207080000000  0.5555380000000  0.5443020000000 1.0
C      1  0.5120600000000  0.5351950000000  0.4747180000000 1.0
C      1  0.4645160000000  0.5517790000000  0.4503210000000 1.0
C      1  0.4742140000000  0.4552160000000  0.5285550000000 1.0
C      1  0.4343270000000  0.4908860000000  0.5314070000000 1.0
C      1  0.4290510000000  0.5113070000000  0.5122570000000 1.0
C      1  0.4510760000000  0.5288520000000  0.4620290000000 1.0
C      1  0.5571640000000  0.4654310000000  0.5524470000000 1.0
C      1  0.5149680000000  0.5455990000000  0.4298770000000 1.0
C      1  0.4748130000000  0.5396970000000  0.5517290000000 1.0
C      1  0.5327550000000  0.5759930000000  0.5291560000000 1.0
C      1  0.5000290000000  0.5363880000000  0.5039220000000 1.0
C      1  0.4453060000000  0.4724780000000  0.4997810000000 1.0
C      1  0.4594040000000  0.4811970000000  0.4745500000000 1.0
C      1  0.5155820000000  0.5817320000000  0.5085490000000 1.0
END
