TITL C-950523-3027-276 -2.88281640335822e-06 125000 -532.592835807523 0 0 86 (C1) n - 1
REM
REM in /home/bkarasulu/work/CARBON/AIRSS/Generating-Clusters/EDIP-Nigel-Params/with-SteepDescent/Only-C1/SD-CG/HFTN-CG
REM
REM
REM
REM
REM
REM ./C.cell (11c1c37f851c82e70ff6c80c92926a4b)
REM
REM compiler GCC version 9.2.1 20190827 (Red Hat 9.2.1-1)
REM options -cpp -mtune=generic -march=x86-64 -g -O0 -fpre-include=/usr/include/finclude/math-vector-fortran.h
REM seed 642126550 915553992 589585198 1408359168 1490866856 -1568148499 -206621980 -1241470176 1671927452 -1985668106 467614487 -557776237 1108024095 2071140807 905457660 486091470 -677373429 -847578029 2098191067 372303369 -828744525 -1966470437 -1903719801 495735077 647277694 -2079286410 -1266472601 -1614905243 -1479348584 -702989128 -605234500 923570434 1637386213
REM
CELL 1.54180   50.00000   50.00000   50.00000   90.00000   90.00000   90.00000
LATT -1
SFAC C  
C      1  0.5823480000000  0.4905810000000  0.4926030000000 1.0
C      1  0.4777460000000  0.5038450000000  0.5123540000000 1.0
C      1  0.4160100000000  0.4782310000000  0.5334890000000 1.0
C      1  0.4806920000000  0.5481690000000  0.5677780000000 1.0
C      1  0.5524070000000  0.5425240000000  0.5500270000000 1.0
C      1  0.4812490000000  0.5720540000000  0.5123210000000 1.0
C      1  0.5057000000000  0.4350750000000  0.5015540000000 1.0
C      1  0.4505840000000  0.5068870000000  0.5565620000000 1.0
C      1  0.5041350000000  0.5209200000000  0.5798220000000 1.0
C      1  0.5532820000000  0.4927330000000  0.4519000000000 1.0
C      1  0.4576200000000  0.5356300000000  0.5532140000000 1.0
C      1  0.5506430000000  0.5380020000000  0.5774580000000 1.0
C      1  0.5205310000000  0.4493510000000  0.5624490000000 1.0
C      1  0.5371570000000  0.5301900000000  0.4213080000000 1.0
C      1  0.4300490000000  0.5021040000000  0.5360850000000 1.0
C      1  0.5259830000000  0.5438350000000  0.5353030000000 1.0
C      1  0.5295820000000  0.4307720000000  0.4838210000000 1.0
C      1  0.4263030000000  0.4563490000000  0.4705980000000 1.0
C      1  0.5425880000000  0.4528110000000  0.5402310000000 1.0
C      1  0.5719210000000  0.4620260000000  0.4994780000000 1.0
C      1  0.5301860000000  0.5050690000000  0.4370510000000 1.0
C      1  0.5808310000000  0.5152860000000  0.5296930000000 1.0
C      1  0.5691310000000  0.4520850000000  0.5267560000000 1.0
C      1  0.4582600000000  0.5568490000000  0.4607700000000 1.0
C      1  0.5615500000000  0.5083950000000  0.4765480000000 1.0
C      1  0.4745290000000  0.5228900000000  0.4893740000000 1.0
C      1  0.5029710000000  0.4655220000000  0.5059900000000 1.0
C      1  0.5576640000000  0.5395700000000  0.4681600000000 1.0
C      1  0.5039580000000  0.4728860000000  0.5359840000000 1.0
C      1  0.4228960000000  0.5268380000000  0.5209970000000 1.0
C      1  0.5548600000000  0.4798640000000  0.5500070000000 1.0
C      1  0.4798800000000  0.4207580000000  0.4953100000000 1.0
C      1  0.5493270000000  0.5460230000000  0.4416100000000 1.0
C      1  0.4685600000000  0.4567950000000  0.5532100000000 1.0
C      1  0.5258900000000  0.5760130000000  0.4865900000000 1.0
C      1  0.4773610000000  0.4789610000000  0.4954470000000 1.0
C      1  0.4701260000000  0.4276650000000  0.4673460000000 1.0
C      1  0.4940500000000  0.5369010000000  0.4381500000000 1.0
C      1  0.4409280000000  0.5484120000000  0.5320730000000 1.0
C      1  0.4960540000000  0.4919270000000  0.5788800000000 1.0
C      1  0.4620830000000  0.4981240000000  0.4717070000000 1.0
C      1  0.5774600000000  0.5421670000000  0.5366940000000 1.0
C      1  0.4329810000000  0.4990340000000  0.4799650000000 1.0
C      1  0.4929300000000  0.5023650000000  0.4101930000000 1.0
C      1  0.5173730000000  0.4869220000000  0.4166600000000 1.0
C      1  0.5074520000000  0.5158200000000  0.4561530000000 1.0
C      1  0.4198140000000  0.4474170000000  0.4963940000000 1.0
C      1  0.4936480000000  0.5744570000000  0.5587310000000 1.0
C      1  0.5065910000000  0.5323690000000  0.4110080000000 1.0
C      1  0.4706260000000  0.4926760000000  0.4293230000000 1.0
C      1  0.4816970000000  0.5881150000000  0.5359380000000 1.0
C      1  0.5254550000000  0.5323930000000  0.5024950000000 1.0
C      1  0.5460850000000  0.4574200000000  0.4837220000000 1.0
C      1  0.5348540000000  0.4467500000000  0.4384950000000 1.0
C      1  0.4875920000000  0.4472540000000  0.4269610000000 1.0
C      1  0.5056910000000  0.5260400000000  0.5487440000000 1.0
C      1  0.5984770000000  0.5045440000000  0.5106900000000 1.0
C      1  0.5013520000000  0.5338800000000  0.4802200000000 1.0
C      1  0.4976390000000  0.5771350000000  0.4880710000000 1.0
C      1  0.4634000000000  0.5386660000000  0.4376980000000 1.0
C      1  0.4715200000000  0.4855410000000  0.5623840000000 1.0
C      1  0.4516460000000  0.4460590000000  0.5312610000000 1.0
C      1  0.5122100000000  0.4619880000000  0.4295200000000 1.0
C      1  0.5266840000000  0.4783710000000  0.4930250000000 1.0
C      1  0.4515330000000  0.5428890000000  0.4867850000000 1.0
C      1  0.5222550000000  0.4247260000000  0.4548920000000 1.0
C      1  0.4641240000000  0.4636440000000  0.4345460000000 1.0
C      1  0.5543160000000  0.5029770000000  0.5301020000000 1.0
C      1  0.5419580000000  0.5528830000000  0.4894470000000 1.0
C      1  0.4535790000000  0.4518230000000  0.4603130000000 1.0
C      1  0.4989180000000  0.5026670000000  0.5317350000000 1.0
C      1  0.4261930000000  0.5259110000000  0.4905740000000 1.0
C      1  0.5298180000000  0.5274550000000  0.5908620000000 1.0
C      1  0.4519700000000  0.5125480000000  0.4377630000000 1.0
C      1  0.5201690000000  0.4748450000000  0.5772350000000 1.0
C      1  0.5455510000000  0.4867440000000  0.5770410000000 1.0
C      1  0.4917880000000  0.4252990000000  0.4467940000000 1.0
C      1  0.4868440000000  0.5662370000000  0.4632970000000 1.0
C      1  0.5407450000000  0.5044680000000  0.5006050000000 1.0
C      1  0.4613400000000  0.4247580000000  0.5162120000000 1.0
C      1  0.4154780000000  0.4819850000000  0.4656580000000 1.0
C      1  0.4544050000000  0.5616140000000  0.5090290000000 1.0
C      1  0.5162750000000  0.5711330000000  0.5396460000000 1.0
C      1  0.5531980000000  0.4631930000000  0.4554530000000 1.0
C      1  0.4929170000000  0.4411550000000  0.5549420000000 1.0
C      1  0.4258250000000  0.4547460000000  0.5227140000000 1.0
END
