TITL C-951344-124-551 -0.00123666573041677 125000 -246.304147479409 0 0 42 (C1) n - 1
REM
REM in /home/bkarasulu/work/CARBON/AIRSS/Generating-Clusters/EDIP-Nigel-Params/with-SteepDescent/Only-C1/SD-CG/HFTN-CG
REM
REM
REM
REM
REM
REM ./C.cell (11c1c37f851c82e70ff6c80c92926a4b)
REM
REM compiler GCC version 9.2.1 20190827 (Red Hat 9.2.1-1)
REM options -cpp -mtune=generic -march=x86-64 -g -O0 -fpre-include=/usr/include/finclude/math-vector-fortran.h
REM seed 612900854 534227622 284938791 1518141951 -752382616 -1102994238 -2030686142 1793101205 622686058 498223949 -1737619708 -1933414454 -1302828737 541724173 -228502075 1785017011 -319176410 -267254230 1340222331 1926537038 -306562256 -1952713977 404784894 1729075609 2074668098 1863413905 1126095997 -365746881 -1801309337 -1985540314 1253744734 -1803821035 -960375196
REM
CELL 1.54180   50.00000   50.00000   50.00000   90.00000   90.00000   90.00000
LATT -1
SFAC C  
C      1  0.4794570000000  0.5232900000000  0.4383960000000 1.0
C      1  0.5321180000000  0.4969110000000  0.4461130000000 1.0
C      1  0.5323850000000  0.5433920000000  0.4995610000000 1.0
C      1  0.4937930000000  0.4308560000000  0.5042250000000 1.0
C      1  0.5334930000000  0.4381310000000  0.4768400000000 1.0
C      1  0.5023120000000  0.4419290000000  0.4761820000000 1.0
C      1  0.5029340000000  0.5540680000000  0.5441720000000 1.0
C      1  0.5429080000000  0.5354120000000  0.4748230000000 1.0
C      1  0.5227540000000  0.5342920000000  0.5473610000000 1.0
C      1  0.5252360000000  0.4317600000000  0.5062190000000 1.0
C      1  0.5119070000000  0.5108600000000  0.5615030000000 1.0
C      1  0.4727380000000  0.4725560000000  0.5291290000000 1.0
C      1  0.5042100000000  0.5363220000000  0.4449960000000 1.0
C      1  0.4814860000000  0.5105520000000  0.5592600000000 1.0
C      1  0.4917320000000  0.5230870000000  0.4793880000000 1.0
C      1  0.5377960000000  0.5267600000000  0.5228310000000 1.0
C      1  0.4788030000000  0.4465780000000  0.5214340000000 1.0
C      1  0.4775890000000  0.4796440000000  0.5585930000000 1.0
C      1  0.5505300000000  0.4590770000000  0.4708420000000 1.0
C      1  0.4839870000000  0.5646650000000  0.5271210000000 1.0
C      1  0.4819670000000  0.4956120000000  0.4293220000000 1.0
C      1  0.5094060000000  0.4817840000000  0.4353080000000 1.0
C      1  0.4524900000000  0.5247910000000  0.5194870000000 1.0
C      1  0.4436140000000  0.5276870000000  0.4934400000000 1.0
C      1  0.4914160000000  0.4942330000000  0.5189000000000 1.0
C      1  0.5024700000000  0.5428280000000  0.5008600000000 1.0
C      1  0.5499770000000  0.4748190000000  0.5198630000000 1.0
C      1  0.4733360000000  0.4756160000000  0.4489070000000 1.0
C      1  0.4941620000000  0.4717000000000  0.4697480000000 1.0
C      1  0.5524270000000  0.4822240000000  0.4576920000000 1.0
C      1  0.5279670000000  0.5239350000000  0.4542110000000 1.0
C      1  0.4629380000000  0.5272120000000  0.4724300000000 1.0
C      1  0.5202220000000  0.4521080000000  0.5507130000000 1.0
C      1  0.4171020000000  0.5317870000000  0.4880360000000 1.0
C      1  0.5336830000000  0.4525210000000  0.5259890000000 1.0
C      1  0.4901270000000  0.5692620000000  0.5003970000000 1.0
C      1  0.5032060000000  0.4676020000000  0.5663890000000 1.0
C      1  0.4958480000000  0.4948910000000  0.4892140000000 1.0
C      1  0.5163330000000  0.4911940000000  0.5378340000000 1.0
C      1  0.3924780000000  0.5352220000000  0.4819300000000 1.0
C      1  0.5522180000000  0.5022220000000  0.5208020000000 1.0
C      1  0.4784460000000  0.5206100000000  0.5295410000000 1.0
END
