TITL C-951347-9520-698 1.92101817916182e-06 125000 -574.975926706931 0 0 93 (C1) n - 1
REM
REM in /home/bkarasulu/work/CARBON/AIRSS/Generating-Clusters/EDIP-Nigel-Params/with-SteepDescent/Only-C1/SD-CG/HFTN-CG
REM
REM
REM
REM
REM
REM ./C.cell (11c1c37f851c82e70ff6c80c92926a4b)
REM
REM compiler GCC version 9.2.1 20190827 (Red Hat 9.2.1-1)
REM options -cpp -mtune=generic -march=x86-64 -g -O0 -fpre-include=/usr/include/finclude/math-vector-fortran.h
REM seed 1213546789 -126055345 -1528017672 -77332474 86566410 1660976536 461901815 741696254 2060316778 2020762191 -2047637460 1812535721 1223835585 -46626290 1701758427 795949657 1786273799 -2122379948 1733010356 -1404559935 1618509212 384869238 1646122429 -1122872658 -2103722700 -1708272686 -634418381 1814986488 -633135875 -2142848887 -460839204 -251464218 -1633572840
REM
CELL 1.54180   50.00000   50.00000   50.00000   90.00000   90.00000   90.00000
LATT -1
SFAC C  
C      1  0.5225760000000  0.4807060000000  0.4286390000000 1.0
C      1  0.5079680000000  0.5273530000000  0.4246980000000 1.0
C      1  0.4508600000000  0.5766670000000  0.4913940000000 1.0
C      1  0.4521590000000  0.4641440000000  0.4222930000000 1.0
C      1  0.5737030000000  0.5190540000000  0.5101430000000 1.0
C      1  0.5115150000000  0.4280570000000  0.5163240000000 1.0
C      1  0.4403800000000  0.5264530000000  0.4850200000000 1.0
C      1  0.4920040000000  0.4364560000000  0.5574990000000 1.0
C      1  0.4989900000000  0.5505670000000  0.5417040000000 1.0
C      1  0.4134800000000  0.4930370000000  0.4539510000000 1.0
C      1  0.5758840000000  0.4923940000000  0.5454170000000 1.0
C      1  0.4472850000000  0.5133720000000  0.5433240000000 1.0
C      1  0.5791220000000  0.4688080000000  0.4991940000000 1.0
C      1  0.4847920000000  0.5094090000000  0.5685300000000 1.0
C      1  0.4719570000000  0.5959740000000  0.4931750000000 1.0
C      1  0.4880190000000  0.4331420000000  0.4223360000000 1.0
C      1  0.5476780000000  0.4948270000000  0.5853320000000 1.0
C      1  0.5240760000000  0.5243750000000  0.5161500000000 1.0
C      1  0.4637380000000  0.4516550000000  0.4901530000000 1.0
C      1  0.5320340000000  0.5085240000000  0.4308260000000 1.0
C      1  0.5865760000000  0.5584300000000  0.4822860000000 1.0
C      1  0.4577570000000  0.4708690000000  0.5769450000000 1.0
C      1  0.5592130000000  0.5120000000000  0.4458040000000 1.0
C      1  0.5222730000000  0.4832660000000  0.5909900000000 1.0
C      1  0.5182470000000  0.4960100000000  0.5313290000000 1.0
C      1  0.4388290000000  0.4579490000000  0.5599470000000 1.0
C      1  0.4279170000000  0.5373900000000  0.5101590000000 1.0
C      1  0.5685070000000  0.4825120000000  0.5706810000000 1.0
C      1  0.4933150000000  0.5788380000000  0.5039150000000 1.0
C      1  0.5373490000000  0.4587470000000  0.4362490000000 1.0
C      1  0.4417350000000  0.4727390000000  0.4890230000000 1.0
C      1  0.5547560000000  0.4425720000000  0.5294010000000 1.0
C      1  0.5020460000000  0.5283480000000  0.4963110000000 1.0
C      1  0.5411310000000  0.5532620000000  0.4629310000000 1.0
C      1  0.5164330000000  0.5660190000000  0.4575240000000 1.0
C      1  0.4753300000000  0.4755780000000  0.4518250000000 1.0
C      1  0.4215350000000  0.5206040000000  0.4612420000000 1.0
C      1  0.5750720000000  0.4905480000000  0.4529360000000 1.0
C      1  0.5495230000000  0.5548960000000  0.5059180000000 1.0
C      1  0.5439330000000  0.5237000000000  0.5810500000000 1.0
C      1  0.5523890000000  0.4568150000000  0.5043900000000 1.0
C      1  0.4928860000000  0.4818250000000  0.4255530000000 1.0
C      1  0.4774710000000  0.4636440000000  0.5546000000000 1.0
C      1  0.5626140000000  0.5693740000000  0.4725190000000 1.0
C      1  0.5437390000000  0.4375540000000  0.4824230000000 1.0
C      1  0.5388270000000  0.5759590000000  0.5229670000000 1.0
C      1  0.4738990000000  0.5027870000000  0.4654210000000 1.0
C      1  0.5478570000000  0.4439990000000  0.4558390000000 1.0
C      1  0.4698600000000  0.5496670000000  0.4477620000000 1.0
C      1  0.5464720000000  0.5119110000000  0.4962120000000 1.0
C      1  0.4625450000000  0.5520170000000  0.4770280000000 1.0
C      1  0.5466590000000  0.5323800000000  0.5533870000000 1.0
C      1  0.5199060000000  0.4354930000000  0.5622140000000 1.0
C      1  0.5004510000000  0.4183540000000  0.4669800000000 1.0
C      1  0.5188850000000  0.5908060000000  0.5103370000000 1.0
C      1  0.5013500000000  0.5071960000000  0.4766050000000 1.0
C      1  0.4811720000000  0.4202820000000  0.4463550000000 1.0
C      1  0.4934850000000  0.5544210000000  0.4848850000000 1.0
C      1  0.5398610000000  0.5231950000000  0.4662630000000 1.0
C      1  0.4543670000000  0.5415750000000  0.5499110000000 1.0
C      1  0.4652270000000  0.4447000000000  0.5180510000000 1.0
C      1  0.4399150000000  0.4508700000000  0.4442820000000 1.0
C      1  0.5309800000000  0.4310560000000  0.5369140000000 1.0
C      1  0.4567610000000  0.4997330000000  0.5758520000000 1.0
C      1  0.4360110000000  0.5185550000000  0.4356810000000 1.0
C      1  0.4105870000000  0.4919040000000  0.5209540000000 1.0
C      1  0.5049030000000  0.5057350000000  0.5907560000000 1.0
C      1  0.5184730000000  0.4245220000000  0.4881270000000 1.0
C      1  0.4887180000000  0.4598120000000  0.4741810000000 1.0
C      1  0.5893430000000  0.4846790000000  0.5206120000000 1.0
C      1  0.4206350000000  0.5162750000000  0.5300640000000 1.0
C      1  0.4985600000000  0.5507520000000  0.4409990000000 1.0
C      1  0.5068070000000  0.4806030000000  0.4875680000000 1.0
C      1  0.4893170000000  0.4921370000000  0.5418270000000 1.0
C      1  0.5847960000000  0.4762560000000  0.4732490000000 1.0
C      1  0.4411470000000  0.4540190000000  0.5317460000000 1.0
C      1  0.4243420000000  0.4690860000000  0.5129720000000 1.0
C      1  0.4842270000000  0.5106910000000  0.4192280000000 1.0
C      1  0.4813250000000  0.5679020000000  0.5274750000000 1.0
C      1  0.5289630000000  0.5552390000000  0.5427720000000 1.0
C      1  0.5306490000000  0.4817080000000  0.5058950000000 1.0
C      1  0.4648540000000  0.5210570000000  0.4409000000000 1.0
C      1  0.4499080000000  0.5601780000000  0.5209480000000 1.0
C      1  0.4268190000000  0.4694000000000  0.4636260000000 1.0
C      1  0.4561200000000  0.5007690000000  0.4917820000000 1.0
C      1  0.4816120000000  0.5384280000000  0.5608460000000 1.0
C      1  0.4552810000000  0.4287480000000  0.4536660000000 1.0
C      1  0.4674740000000  0.5034110000000  0.5222200000000 1.0
C      1  0.4860330000000  0.4282270000000  0.5297190000000 1.0
C      1  0.5789590000000  0.5481980000000  0.5073210000000 1.0
C      1  0.4788960000000  0.4578380000000  0.4119000000000 1.0
C      1  0.5195040000000  0.5299160000000  0.5942260000000 1.0
C      1  0.5684670000000  0.5190940000000  0.5394210000000 1.0
END
