TITL C-950529-3362-384 -6.68578604665082e-07 125000 -821.26925864722 0 0 131 (C1) n - 1
REM
REM in /home/bkarasulu/work/CARBON/AIRSS/Generating-Clusters/EDIP-Nigel-Params/with-SteepDescent/Only-C1/SD-CG/HFTN-CG
REM
REM
REM
REM
REM
REM ./C.cell (11c1c37f851c82e70ff6c80c92926a4b)
REM
REM compiler GCC version 9.2.1 20190827 (Red Hat 9.2.1-1)
REM options -cpp -mtune=generic -march=x86-64 -g -O0 -fpre-include=/usr/include/finclude/math-vector-fortran.h
REM seed 196334918 375612849 -724619778 -50562330 -1478430114 -1776452920 -1847795014 -1779610947 -493416696 -1463108372 424036269 369435741 -981138181 1767468095 -1005109401 -874394391 -1382125600 -1844684616 -1231876628 1754890363 342908110 1242701763 1525702739 1705839300 1003552909 -1812104728 1471820922 182600665 -243879058 485406859 473210263 -1355404369 688571469
REM
CELL 1.54180   50.00000   50.00000   50.00000   90.00000   90.00000   90.00000
LATT -1
SFAC C  
C      1  0.4459700000000  0.5429710000000  0.5814630000000 1.0
C      1  0.4560440000000  0.5638690000000  0.5625340000000 1.0
C      1  0.4886130000000  0.4690470000000  0.4149120000000 1.0
C      1  0.4230980000000  0.4581520000000  0.4456960000000 1.0
C      1  0.4758600000000  0.5864140000000  0.4429960000000 1.0
C      1  0.5830540000000  0.4340070000000  0.5033020000000 1.0
C      1  0.5429760000000  0.5597020000000  0.5553440000000 1.0
C      1  0.4132160000000  0.5323760000000  0.4906920000000 1.0
C      1  0.4567050000000  0.5092090000000  0.4262360000000 1.0
C      1  0.4192640000000  0.4552330000000  0.4915710000000 1.0
C      1  0.5166880000000  0.4362290000000  0.5625730000000 1.0
C      1  0.5616970000000  0.5432980000000  0.4394160000000 1.0
C      1  0.5566570000000  0.4290810000000  0.4883520000000 1.0
C      1  0.4088270000000  0.4843250000000  0.4939030000000 1.0
C      1  0.5436350000000  0.4457410000000  0.5645590000000 1.0
C      1  0.4217130000000  0.5070630000000  0.4769680000000 1.0
C      1  0.4977670000000  0.5198910000000  0.4578530000000 1.0
C      1  0.4317240000000  0.5253480000000  0.4336080000000 1.0
C      1  0.4624590000000  0.4745180000000  0.5119210000000 1.0
C      1  0.5659350000000  0.5651330000000  0.4626870000000 1.0
C      1  0.4689730000000  0.4574620000000  0.5363930000000 1.0
C      1  0.6080500000000  0.4873400000000  0.5213440000000 1.0
C      1  0.4523560000000  0.5060950000000  0.4791260000000 1.0
C      1  0.5619740000000  0.4333490000000  0.5478150000000 1.0
C      1  0.4677620000000  0.4818860000000  0.4455130000000 1.0
C      1  0.5458360000000  0.5079110000000  0.5251500000000 1.0
C      1  0.4626190000000  0.4294540000000  0.4952010000000 1.0
C      1  0.4700060000000  0.5280410000000  0.5935130000000 1.0
C      1  0.5287590000000  0.4871700000000  0.5414950000000 1.0
C      1  0.5159880000000  0.4446470000000  0.4395190000000 1.0
C      1  0.5027110000000  0.5086310000000  0.4946930000000 1.0
C      1  0.5059970000000  0.4641610000000  0.4767430000000 1.0
C      1  0.5217150000000  0.5683830000000  0.4465290000000 1.0
C      1  0.4912990000000  0.4723030000000  0.5769870000000 1.0
C      1  0.4511840000000  0.4575060000000  0.4563180000000 1.0
C      1  0.5717120000000  0.5242740000000  0.5381980000000 1.0
C      1  0.6158920000000  0.4716000000000  0.4994900000000 1.0
C      1  0.5923120000000  0.5297630000000  0.4907380000000 1.0
C      1  0.6010130000000  0.4511070000000  0.4865060000000 1.0
C      1  0.5369940000000  0.4915400000000  0.5887560000000 1.0
C      1  0.4724240000000  0.4297950000000  0.5239760000000 1.0
C      1  0.4952570000000  0.5858830000000  0.4909090000000 1.0
C      1  0.4771970000000  0.5249600000000  0.4111210000000 1.0
C      1  0.5669660000000  0.5535480000000  0.5399150000000 1.0
C      1  0.5296210000000  0.4303310000000  0.5041600000000 1.0
C      1  0.4862770000000  0.4200880000000  0.4364800000000 1.0
C      1  0.4417550000000  0.4971410000000  0.5254700000000 1.0
C      1  0.4612860000000  0.5643960000000  0.4313380000000 1.0
C      1  0.4981190000000  0.4786540000000  0.5015150000000 1.0
C      1  0.4885800000000  0.5055900000000  0.5431630000000 1.0
C      1  0.5378100000000  0.5555920000000  0.4255670000000 1.0
C      1  0.4528380000000  0.5799090000000  0.5149710000000 1.0
C      1  0.5278820000000  0.5319410000000  0.4128310000000 1.0
C      1  0.5099560000000  0.4905070000000  0.4115850000000 1.0
C      1  0.4139290000000  0.4252640000000  0.4968320000000 1.0
C      1  0.4875780000000  0.4048900000000  0.5314080000000 1.0
C      1  0.5404350000000  0.5818110000000  0.5141180000000 1.0
C      1  0.4484050000000  0.4079240000000  0.4657390000000 1.0
C      1  0.4208150000000  0.5426920000000  0.5395950000000 1.0
C      1  0.5925710000000  0.5140450000000  0.4664350000000 1.0
C      1  0.4439530000000  0.5613280000000  0.5360500000000 1.0
C      1  0.4120990000000  0.4963540000000  0.5202660000000 1.0
C      1  0.4675250000000  0.5469940000000  0.4840960000000 1.0
C      1  0.4131350000000  0.4824460000000  0.4369850000000 1.0
C      1  0.5412500000000  0.5829190000000  0.4636740000000 1.0
C      1  0.5050370000000  0.4213390000000  0.4866340000000 1.0
C      1  0.5663480000000  0.5683400000000  0.5143260000000 1.0
C      1  0.4708590000000  0.5927080000000  0.4711760000000 1.0
C      1  0.4843910000000  0.5185990000000  0.5159340000000 1.0
C      1  0.4953910000000  0.5420530000000  0.5808000000000 1.0
C      1  0.5271880000000  0.5907890000000  0.4894970000000 1.0
C      1  0.4067800000000  0.4460940000000  0.4656410000000 1.0
C      1  0.5864850000000  0.4877110000000  0.4603800000000 1.0
C      1  0.5830720000000  0.4748000000000  0.5327030000000 1.0
C      1  0.5338270000000  0.5422290000000  0.5775910000000 1.0
C      1  0.4458170000000  0.5045020000000  0.5542830000000 1.0
C      1  0.5652010000000  0.4893600000000  0.5112850000000 1.0
C      1  0.5746550000000  0.5122380000000  0.5654790000000 1.0
C      1  0.5380030000000  0.4897520000000  0.4229400000000 1.0
C      1  0.4683830000000  0.4966820000000  0.5953910000000 1.0
C      1  0.4952680000000  0.5562090000000  0.4875060000000 1.0
C      1  0.5025800000000  0.5872010000000  0.4360720000000 1.0
C      1  0.5124640000000  0.4104650000000  0.5501530000000 1.0
C      1  0.5005870000000  0.3969920000000  0.5038870000000 1.0
C      1  0.4498900000000  0.4568470000000  0.4886200000000 1.0
C      1  0.4071400000000  0.5259650000000  0.5181930000000 1.0
C      1  0.5260300000000  0.5762200000000  0.5386230000000 1.0
C      1  0.4974050000000  0.5753520000000  0.5398580000000 1.0
C      1  0.5576510000000  0.4469410000000  0.4638420000000 1.0
C      1  0.4986710000000  0.4443240000000  0.5837020000000 1.0
C      1  0.5031140000000  0.5178000000000  0.4236440000000 1.0
C      1  0.4716210000000  0.5520540000000  0.4086710000000 1.0
C      1  0.4508280000000  0.5732520000000  0.4843890000000 1.0
C      1  0.4818940000000  0.5882340000000  0.5185170000000 1.0
C      1  0.5946940000000  0.5156250000000  0.5172490000000 1.0
C      1  0.5228400000000  0.4663800000000  0.5177690000000 1.0
C      1  0.4613630000000  0.4290200000000  0.4507910000000 1.0
C      1  0.4753100000000  0.4294920000000  0.5854600000000 1.0
C      1  0.4558600000000  0.5179640000000  0.5070220000000 1.0
C      1  0.5098560000000  0.4193640000000  0.4575390000000 1.0
C      1  0.5133340000000  0.5454010000000  0.4671680000000 1.0
C      1  0.5373360000000  0.4689680000000  0.4705650000000 1.0
C      1  0.4508180000000  0.4575320000000  0.5610440000000 1.0
C      1  0.5515350000000  0.5178810000000  0.5841800000000 1.0
C      1  0.4973600000000  0.4411810000000  0.4152620000000 1.0
C      1  0.5746390000000  0.4833740000000  0.5602480000000 1.0
C      1  0.5459570000000  0.4707390000000  0.4993850000000 1.0
C      1  0.4284960000000  0.5263180000000  0.5635570000000 1.0
C      1  0.4264900000000  0.5671500000000  0.4666920000000 1.0
C      1  0.5259200000000  0.4051340000000  0.5225840000000 1.0
C      1  0.4919650000000  0.4753230000000  0.5469620000000 1.0
C      1  0.4848240000000  0.5643740000000  0.5633630000000 1.0
C      1  0.4501890000000  0.4349390000000  0.5778090000000 1.0
C      1  0.5554460000000  0.5185120000000  0.4596390000000 1.0
C      1  0.5293170000000  0.5192790000000  0.5029110000000 1.0
C      1  0.4385010000000  0.4100170000000  0.4931550000000 1.0
C      1  0.4377700000000  0.5529910000000  0.4433930000000 1.0
C      1  0.5729590000000  0.5529770000000  0.4895870000000 1.0
C      1  0.4667440000000  0.5244760000000  0.4603500000000 1.0
C      1  0.5812220000000  0.4445060000000  0.5310350000000 1.0
C      1  0.4979480000000  0.4772640000000  0.4517540000000 1.0
C      1  0.5854140000000  0.4596590000000  0.4629240000000 1.0
C      1  0.5075490000000  0.4963850000000  0.5876310000000 1.0
C      1  0.4132620000000  0.5078220000000  0.4481570000000 1.0
C      1  0.5509260000000  0.5145580000000  0.4147580000000 1.0
C      1  0.5395430000000  0.5349250000000  0.4806750000000 1.0
C      1  0.4039770000000  0.5555580000000  0.4783960000000 1.0
C      1  0.4492970000000  0.4842160000000  0.5745490000000 1.0
C      1  0.5460780000000  0.4756290000000  0.5646510000000 1.0
C      1  0.5390920000000  0.4936880000000  0.4520950000000 1.0
C      1  0.5068760000000  0.5170960000000  0.5651460000000 1.0
END
