TITL C-951347-9520-695 -4.61820707647475e-06 125000 -957.077248993784 0 0 152 (C1) n - 1
REM
REM in /home/bkarasulu/work/CARBON/AIRSS/Generating-Clusters/EDIP-Nigel-Params/with-SteepDescent/Only-C1/SD-CG/HFTN-CG
REM
REM
REM
REM
REM
REM ./C.cell (11c1c37f851c82e70ff6c80c92926a4b)
REM
REM compiler GCC version 9.2.1 20190827 (Red Hat 9.2.1-1)
REM options -cpp -mtune=generic -march=x86-64 -g -O0 -fpre-include=/usr/include/finclude/math-vector-fortran.h
REM seed 1865398176 1059206138 -818882499 -1440229056 -847136946 824757562 1982549014 -1735887280 -155786707 839394221 1239719421 -273009584 682733636 47748113 -97630705 1791981706 -55906302 -501899194 -239611173 -1898324245 -1155717934 -1496250365 188101211 904658480 130177625 177064993 -108996744 -977545180 -1819055675 -335735582 526636314 363498719 -877251600
REM
CELL 1.54180   50.00000   50.00000   50.00000   90.00000   90.00000   90.00000
LATT -1
SFAC C  
C      1  0.5516150000000  0.4876580000000  0.4338790000000 1.0
C      1  0.4819660000000  0.4456380000000  0.4260390000000 1.0
C      1  0.4673950000000  0.4688840000000  0.5902020000000 1.0
C      1  0.5299780000000  0.4344020000000  0.5157590000000 1.0
C      1  0.5095160000000  0.5588320000000  0.4976140000000 1.0
C      1  0.4836290000000  0.5860720000000  0.5495780000000 1.0
C      1  0.5048500000000  0.6154050000000  0.4807170000000 1.0
C      1  0.5811080000000  0.4454130000000  0.5198510000000 1.0
C      1  0.4292490000000  0.4676460000000  0.5611510000000 1.0
C      1  0.5540790000000  0.5307100000000  0.5136160000000 1.0
C      1  0.5071650000000  0.4409810000000  0.5771090000000 1.0
C      1  0.5780370000000  0.5009040000000  0.4363380000000 1.0
C      1  0.4756250000000  0.3957730000000  0.5160580000000 1.0
C      1  0.4306840000000  0.4934470000000  0.4266470000000 1.0
C      1  0.4627360000000  0.4140180000000  0.4633130000000 1.0
C      1  0.4440180000000  0.5979890000000  0.4915200000000 1.0
C      1  0.4248530000000  0.4583430000000  0.4646750000000 1.0
C      1  0.5506230000000  0.5777770000000  0.4853670000000 1.0
C      1  0.5316060000000  0.4857550000000  0.5801160000000 1.0
C      1  0.4378070000000  0.4669300000000  0.4394740000000 1.0
C      1  0.5402730000000  0.4010630000000  0.4701720000000 1.0
C      1  0.5172470000000  0.5265200000000  0.5444490000000 1.0
C      1  0.5461380000000  0.5717630000000  0.4359960000000 1.0
C      1  0.4915350000000  0.5622260000000  0.4177970000000 1.0
C      1  0.5644550000000  0.4155660000000  0.4815980000000 1.0
C      1  0.5470080000000  0.4796160000000  0.5258030000000 1.0
C      1  0.4067790000000  0.4765390000000  0.4775070000000 1.0
C      1  0.4455150000000  0.5038040000000  0.4021070000000 1.0
C      1  0.5598750000000  0.4487530000000  0.5686210000000 1.0
C      1  0.5369070000000  0.5269760000000  0.4195580000000 1.0
C      1  0.5536000000000  0.5438800000000  0.4352220000000 1.0
C      1  0.4920020000000  0.5515850000000  0.5891140000000 1.0
C      1  0.5785350000000  0.4612990000000  0.4661260000000 1.0
C      1  0.4431680000000  0.5203290000000  0.5399010000000 1.0
C      1  0.5079810000000  0.5904750000000  0.5639710000000 1.0
C      1  0.4422050000000  0.4967990000000  0.4936420000000 1.0
C      1  0.5784990000000  0.4303500000000  0.4588110000000 1.0
C      1  0.5003940000000  0.5719990000000  0.4649930000000 1.0
C      1  0.5356460000000  0.5925890000000  0.5080360000000 1.0
C      1  0.5580820000000  0.4287450000000  0.4367960000000 1.0
C      1  0.4583980000000  0.4619320000000  0.5617210000000 1.0
C      1  0.4661340000000  0.4335720000000  0.5512310000000 1.0
C      1  0.4909500000000  0.5196340000000  0.4297580000000 1.0
C      1  0.4071940000000  0.4732340000000  0.5062910000000 1.0
C      1  0.5935940000000  0.4862350000000  0.4574440000000 1.0
C      1  0.5083750000000  0.4118510000000  0.4369520000000 1.0
C      1  0.4834130000000  0.5412340000000  0.3973360000000 1.0
C      1  0.4551590000000  0.5320540000000  0.4048450000000 1.0
C      1  0.4954930000000  0.4717980000000  0.4307650000000 1.0
C      1  0.4014840000000  0.5096420000000  0.5461240000000 1.0
C      1  0.5350070000000  0.4363700000000  0.5744620000000 1.0
C      1  0.4231980000000  0.4967740000000  0.5636090000000 1.0
C      1  0.4660900000000  0.5690280000000  0.4304620000000 1.0
C      1  0.5753460000000  0.5590090000000  0.4853090000000 1.0
C      1  0.4851350000000  0.5383340000000  0.5041680000000 1.0
C      1  0.4240620000000  0.5400820000000  0.5014370000000 1.0
C      1  0.4191900000000  0.5552800000000  0.5274200000000 1.0
C      1  0.5454080000000  0.5663210000000  0.5460180000000 1.0
C      1  0.4092640000000  0.5378700000000  0.5484290000000 1.0
C      1  0.4673720000000  0.4862880000000  0.3944210000000 1.0
C      1  0.5154400000000  0.4370870000000  0.4891600000000 1.0
C      1  0.4683310000000  0.4406750000000  0.4738250000000 1.0
C      1  0.5581300000000  0.4737980000000  0.5843150000000 1.0
C      1  0.4816730000000  0.5992080000000  0.5237400000000 1.0
C      1  0.4549920000000  0.5905740000000  0.5158600000000 1.0
C      1  0.4895050000000  0.4225190000000  0.5648040000000 1.0
C      1  0.5209230000000  0.4073530000000  0.5273380000000 1.0
C      1  0.4695340000000  0.5119190000000  0.5497900000000 1.0
C      1  0.5389530000000  0.4842230000000  0.4093100000000 1.0
C      1  0.5784190000000  0.5487100000000  0.5117170000000 1.0
C      1  0.5426030000000  0.5935900000000  0.5362600000000 1.0
C      1  0.4949850000000  0.4592390000000  0.5960110000000 1.0
C      1  0.5783870000000  0.5305090000000  0.4428070000000 1.0
C      1  0.5055490000000  0.5976260000000  0.5035110000000 1.0
C      1  0.5995140000000  0.4612430000000  0.5051560000000 1.0
C      1  0.5374900000000  0.4090240000000  0.4420620000000 1.0
C      1  0.4872840000000  0.4435570000000  0.4959140000000 1.0
C      1  0.4070470000000  0.5046900000000  0.4697480000000 1.0
C      1  0.4964910000000  0.4241050000000  0.4148100000000 1.0
C      1  0.5619350000000  0.5169550000000  0.5637290000000 1.0
C      1  0.5630540000000  0.5097670000000  0.5334120000000 1.0
C      1  0.5126760000000  0.4757280000000  0.4059740000000 1.0
C      1  0.4615140000000  0.4964410000000  0.4620560000000 1.0
C      1  0.5704470000000  0.4623000000000  0.5417740000000 1.0
C      1  0.4932310000000  0.5044630000000  0.5989990000000 1.0
C      1  0.5263590000000  0.6085700000000  0.5531110000000 1.0
C      1  0.5589280000000  0.4325950000000  0.5057300000000 1.0
C      1  0.4651280000000  0.4242880000000  0.5217470000000 1.0
C      1  0.4841240000000  0.4722990000000  0.5013240000000 1.0
C      1  0.5324520000000  0.5310290000000  0.5978310000000 1.0
C      1  0.5115300000000  0.5556510000000  0.4413110000000 1.0
C      1  0.4440020000000  0.4504970000000  0.4871540000000 1.0
C      1  0.5191830000000  0.5167300000000  0.4420030000000 1.0
C      1  0.4653980000000  0.4979400000000  0.5982690000000 1.0
C      1  0.4008570000000  0.5210060000000  0.4946090000000 1.0
C      1  0.4136750000000  0.4502400000000  0.5463340000000 1.0
C      1  0.4224680000000  0.5403190000000  0.4408990000000 1.0
C      1  0.5071260000000  0.4780050000000  0.4588640000000 1.0
C      1  0.4494750000000  0.5180470000000  0.5825130000000 1.0
C      1  0.5994930000000  0.4899050000000  0.5045550000000 1.0
C      1  0.4706450000000  0.4824860000000  0.5420440000000 1.0
C      1  0.5037960000000  0.5305730000000  0.6044900000000 1.0
C      1  0.4954020000000  0.4925710000000  0.3893730000000 1.0
C      1  0.4881020000000  0.4915150000000  0.4772630000000 1.0
C      1  0.4744810000000  0.4942970000000  0.4321190000000 1.0
C      1  0.4585560000000  0.5500340000000  0.4841970000000 1.0
C      1  0.4501490000000  0.5771540000000  0.4739430000000 1.0
C      1  0.4899430000000  0.5275240000000  0.5340810000000 1.0
C      1  0.5230140000000  0.4614780000000  0.5322040000000 1.0
C      1  0.4476780000000  0.5460070000000  0.4286800000000 1.0
C      1  0.4723640000000  0.5812490000000  0.4561430000000 1.0
C      1  0.5927590000000  0.5023100000000  0.5300540000000 1.0
C      1  0.5135230000000  0.5980100000000  0.4601740000000 1.0
C      1  0.5678760000000  0.5457280000000  0.5752140000000 1.0
C      1  0.5296960000000  0.4656040000000  0.4734620000000 1.0
C      1  0.4612030000000  0.5680260000000  0.5571830000000 1.0
C      1  0.5409220000000  0.4858780000000  0.4948760000000 1.0
C      1  0.5862480000000  0.5335350000000  0.4707080000000 1.0
C      1  0.5796120000000  0.5696570000000  0.5312450000000 1.0
C      1  0.5967130000000  0.5057300000000  0.4794500000000 1.0
C      1  0.4135400000000  0.5127970000000  0.4417730000000 1.0
C      1  0.4471780000000  0.4180930000000  0.4387420000000 1.0
C      1  0.5782250000000  0.4937640000000  0.5750980000000 1.0
C      1  0.5418260000000  0.5885080000000  0.4593100000000 1.0
C      1  0.5333540000000  0.5144770000000  0.5717790000000 1.0
C      1  0.4444370000000  0.4026010000000  0.4855260000000 1.0
C      1  0.5043100000000  0.5190270000000  0.4003960000000 1.0
C      1  0.5438340000000  0.5151290000000  0.4887400000000 1.0
C      1  0.4976230000000  0.5181050000000  0.4858130000000 1.0
C      1  0.5054620000000  0.4054990000000  0.5502070000000 1.0
C      1  0.5823510000000  0.5644770000000  0.5588280000000 1.0
C      1  0.5312240000000  0.5462080000000  0.5264130000000 1.0
C      1  0.4530570000000  0.4437500000000  0.4279780000000 1.0
C      1  0.4543220000000  0.4735780000000  0.5077050000000 1.0
C      1  0.4982620000000  0.4777950000000  0.5270170000000 1.0
C      1  0.5512150000000  0.4632010000000  0.4513500000000 1.0
C      1  0.5922140000000  0.4816160000000  0.5515780000000 1.0
C      1  0.4575980000000  0.3820520000000  0.4991580000000 1.0
C      1  0.4652080000000  0.5461330000000  0.5772010000000 1.0
C      1  0.5417670000000  0.5581010000000  0.5888300000000 1.0
C      1  0.4428010000000  0.5719840000000  0.5346790000000 1.0
C      1  0.4366430000000  0.4268780000000  0.5053460000000 1.0
C      1  0.4130610000000  0.4468040000000  0.5189870000000 1.0
C      1  0.5125510000000  0.4070880000000  0.4812790000000 1.0
C      1  0.4450650000000  0.5205700000000  0.5111040000000 1.0
C      1  0.4915590000000  0.4026450000000  0.4593240000000 1.0
C      1  0.4459920000000  0.5257100000000  0.4677520000000 1.0
C      1  0.5149470000000  0.5665930000000  0.5779560000000 1.0
C      1  0.5047880000000  0.3935650000000  0.5074120000000 1.0
C      1  0.5114670000000  0.4824950000000  0.6007410000000 1.0
C      1  0.3989390000000  0.5000730000000  0.5170420000000 1.0
C      1  0.5215480000000  0.5289030000000  0.4722410000000 1.0
END
