TITL C-950521-2237-718 2.8298261399042e-07 125000 -210.819604416185 0 0 36 (C1) n - 1
REM
REM in /home/bkarasulu/work/CARBON/AIRSS/Generating-Clusters/EDIP-Nigel-Params/with-SteepDescent/Only-C1/SD-CG/HFTN-CG
REM
REM
REM
REM
REM
REM ./C.cell (11c1c37f851c82e70ff6c80c92926a4b)
REM
REM compiler GCC version 9.2.1 20190827 (Red Hat 9.2.1-1)
REM options -cpp -mtune=generic -march=x86-64 -g -O0 -fpre-include=/usr/include/finclude/math-vector-fortran.h
REM seed 997582850 -550395941 1951305072 -1068766341 983949829 -1124095382 811311060 868335974 -750174527 -916770485 102066424 -1215438283 -540873076 -1367025791 -1668242768 231160473 921433643 1279079491 -1771269011 -365739371 -1056060157 -695399215 823780793 -1075177789 -125862253 1264699259 -484649731 1720740001 -101706265 -382646485 1821673260 -879605612 -1123222374
REM
CELL 1.54180   50.00000   50.00000   50.00000   90.00000   90.00000   90.00000
LATT -1
SFAC C  
C      1  0.4703700000000  0.4923300000000  0.5077710000000 1.0
C      1  0.4442560000000  0.4853860000000  0.4596740000000 1.0
C      1  0.4672260000000  0.4501440000000  0.4854390000000 1.0
C      1  0.5350430000000  0.5205150000000  0.4619060000000 1.0
C      1  0.4462840000000  0.4530540000000  0.5036540000000 1.0
C      1  0.5292410000000  0.4954610000000  0.5444820000000 1.0
C      1  0.5480960000000  0.5540540000000  0.4995930000000 1.0
C      1  0.5198410000000  0.5616960000000  0.4984320000000 1.0
C      1  0.4884570000000  0.4774170000000  0.4471950000000 1.0
C      1  0.4870380000000  0.5048050000000  0.4561960000000 1.0
C      1  0.5223600000000  0.4627860000000  0.4707550000000 1.0
C      1  0.5527910000000  0.4785670000000  0.4985500000000 1.0
C      1  0.5485880000000  0.4739410000000  0.4698600000000 1.0
C      1  0.5093220000000  0.4603320000000  0.4967910000000 1.0
C      1  0.5496830000000  0.4980320000000  0.4562680000000 1.0
C      1  0.4587000000000  0.5165570000000  0.5446810000000 1.0
C      1  0.4909830000000  0.4378440000000  0.4949260000000 1.0
C      1  0.4972500000000  0.4846560000000  0.5104120000000 1.0
C      1  0.5357340000000  0.4572660000000  0.5090160000000 1.0
C      1  0.4737840000000  0.5376140000000  0.5344060000000 1.0
C      1  0.4654940000000  0.4662610000000  0.4604130000000 1.0
C      1  0.4232290000000  0.4854400000000  0.5322440000000 1.0
C      1  0.5030390000000  0.5329180000000  0.5274690000000 1.0
C      1  0.5580730000000  0.5281480000000  0.5072750000000 1.0
C      1  0.5393690000000  0.5069980000000  0.4976860000000 1.0
C      1  0.5667270000000  0.5246790000000  0.5336750000000 1.0
C      1  0.4733980000000  0.5397850000000  0.5030740000000 1.0
C      1  0.4589720000000  0.5096680000000  0.4653510000000 1.0
C      1  0.4365810000000  0.4614890000000  0.5280750000000 1.0
C      1  0.5200630000000  0.5571880000000  0.5268970000000 1.0
C      1  0.4591080000000  0.5148740000000  0.4945690000000 1.0
C      1  0.5166710000000  0.5048890000000  0.5201820000000 1.0
C      1  0.5525730000000  0.5079650000000  0.5492010000000 1.0
C      1  0.5079840000000  0.5204980000000  0.4700260000000 1.0
C      1  0.4445310000000  0.4931040000000  0.5483120000000 1.0
C      1  0.4991410000000  0.5436400000000  0.4855450000000 1.0
END
