TITL C-950523-3027-25 8.23237827073835e-07 125000 -875.979508527996 0 0 140 (C1) n - 1
REM
REM in /home/bkarasulu/work/CARBON/AIRSS/Generating-Clusters/EDIP-Nigel-Params/with-SteepDescent/Only-C1/SD-CG/HFTN-CG
REM
REM
REM
REM
REM
REM ./C.cell (11c1c37f851c82e70ff6c80c92926a4b)
REM
REM compiler GCC version 9.2.1 20190827 (Red Hat 9.2.1-1)
REM options -cpp -mtune=generic -march=x86-64 -g -O0 -fpre-include=/usr/include/finclude/math-vector-fortran.h
REM seed 206117736 190983922 -2000966339 -744980782 -1864472821 -1791627953 798076070 -61320619 292287803 669797599 -1122250024 -726726492 666142184 1880329071 1061986591 -1668344842 -1777972465 2000452059 -1809355151 1568336575 -1805600991 1662013630 -1843798628 -979475745 1086243577 2024460505 906441467 -1898844026 -1681515955 -1309559619 -1150776609 -1437846594 140869389
REM
CELL 1.54180   50.00000   50.00000   50.00000   90.00000   90.00000   90.00000
LATT -1
SFAC C  
C      1  0.4216690000000  0.5309320000000  0.5572930000000 1.0
C      1  0.5158240000000  0.5961320000000  0.4891540000000 1.0
C      1  0.4388930000000  0.4201700000000  0.5503620000000 1.0
C      1  0.4799720000000  0.5589350000000  0.5675030000000 1.0
C      1  0.4702230000000  0.5116750000000  0.5703640000000 1.0
C      1  0.4370180000000  0.5587710000000  0.4463540000000 1.0
C      1  0.4334800000000  0.5863300000000  0.4899530000000 1.0
C      1  0.4289770000000  0.5382350000000  0.5005410000000 1.0
C      1  0.4932260000000  0.5785280000000  0.4456140000000 1.0
C      1  0.5085220000000  0.4526930000000  0.4132700000000 1.0
C      1  0.5557720000000  0.4996960000000  0.5647170000000 1.0
C      1  0.6014240000000  0.5098040000000  0.4610990000000 1.0
C      1  0.4869590000000  0.5914100000000  0.5006420000000 1.0
C      1  0.5462620000000  0.4503240000000  0.5829420000000 1.0
C      1  0.5209100000000  0.5844070000000  0.5429210000000 1.0
C      1  0.4966390000000  0.5474510000000  0.4019060000000 1.0
C      1  0.4512790000000  0.4486300000000  0.4302840000000 1.0
C      1  0.4971970000000  0.5322600000000  0.4972880000000 1.0
C      1  0.4168650000000  0.4410220000000  0.5522450000000 1.0
C      1  0.5195440000000  0.5675640000000  0.4475230000000 1.0
C      1  0.5529950000000  0.4791920000000  0.5898450000000 1.0
C      1  0.4991130000000  0.4332310000000  0.4349780000000 1.0
C      1  0.4235070000000  0.4895900000000  0.4954940000000 1.0
C      1  0.5268400000000  0.4913280000000  0.4495360000000 1.0
C      1  0.5607630000000  0.5429620000000  0.4472810000000 1.0
C      1  0.5054830000000  0.4171560000000  0.5562300000000 1.0
C      1  0.4480990000000  0.5804010000000  0.4651950000000 1.0
C      1  0.5203410000000  0.4427110000000  0.5920030000000 1.0
C      1  0.4774550000000  0.4839710000000  0.4982920000000 1.0
C      1  0.4799750000000  0.4594630000000  0.5397410000000 1.0
C      1  0.5251760000000  0.5425780000000  0.4883790000000 1.0
C      1  0.5663950000000  0.5020570000000  0.4242690000000 1.0
C      1  0.5405290000000  0.4871740000000  0.4218560000000 1.0
C      1  0.5468030000000  0.5838450000000  0.5291280000000 1.0
C      1  0.4415170000000  0.4121390000000  0.5218910000000 1.0
C      1  0.4980020000000  0.5355740000000  0.5739850000000 1.0
C      1  0.4575060000000  0.5108500000000  0.4072880000000 1.0
C      1  0.4576720000000  0.5499970000000  0.4282730000000 1.0
C      1  0.4824640000000  0.5031880000000  0.4588400000000 1.0
C      1  0.5869600000000  0.5189660000000  0.4837030000000 1.0
C      1  0.4768110000000  0.5744570000000  0.4721240000000 1.0
C      1  0.5679970000000  0.5409710000000  0.4761040000000 1.0
C      1  0.4878070000000  0.5313810000000  0.5289990000000 1.0
C      1  0.5179470000000  0.4580730000000  0.4863800000000 1.0
C      1  0.4440940000000  0.5270620000000  0.5776940000000 1.0
C      1  0.5289880000000  0.5710900000000  0.4750420000000 1.0
C      1  0.4837500000000  0.5321220000000  0.4498640000000 1.0
C      1  0.5115120000000  0.5264660000000  0.5478290000000 1.0
C      1  0.5230570000000  0.4215780000000  0.4481670000000 1.0
C      1  0.4662730000000  0.5094480000000  0.5399080000000 1.0
C      1  0.5826140000000  0.4933700000000  0.4477870000000 1.0
C      1  0.5729160000000  0.4274330000000  0.4810440000000 1.0
C      1  0.5212250000000  0.5751620000000  0.5695050000000 1.0
C      1  0.5443100000000  0.4413110000000  0.4417800000000 1.0
C      1  0.4490490000000  0.4479580000000  0.5746770000000 1.0
C      1  0.4197360000000  0.4536040000000  0.4655280000000 1.0
C      1  0.4538850000000  0.5901410000000  0.5109670000000 1.0
C      1  0.4985100000000  0.4854550000000  0.4432230000000 1.0
C      1  0.4337030000000  0.4883320000000  0.5426170000000 1.0
C      1  0.5889520000000  0.4706870000000  0.5355080000000 1.0
C      1  0.5573240000000  0.4861120000000  0.4835010000000 1.0
C      1  0.5703660000000  0.4423140000000  0.4557760000000 1.0
C      1  0.5103040000000  0.4767640000000  0.6195440000000 1.0
C      1  0.4750160000000  0.5300560000000  0.3948330000000 1.0
C      1  0.5439530000000  0.5413460000000  0.5909560000000 1.0
C      1  0.5441480000000  0.5997030000000  0.5037170000000 1.0
C      1  0.5294700000000  0.4852500000000  0.5247780000000 1.0
C      1  0.4333310000000  0.5130900000000  0.4267240000000 1.0
C      1  0.5367640000000  0.5013590000000  0.5012210000000 1.0
C      1  0.5134560000000  0.5384630000000  0.4422820000000 1.0
C      1  0.4123200000000  0.4490700000000  0.5238700000000 1.0
C      1  0.5309390000000  0.5226960000000  0.4613900000000 1.0
C      1  0.4104800000000  0.5158980000000  0.5058980000000 1.0
C      1  0.5622880000000  0.5557530000000  0.5264590000000 1.0
C      1  0.4279340000000  0.4682270000000  0.5655570000000 1.0
C      1  0.4560510000000  0.4606650000000  0.4058390000000 1.0
C      1  0.4773330000000  0.4561690000000  0.5688080000000 1.0
C      1  0.5194820000000  0.5531920000000  0.5866560000000 1.0
C      1  0.5262330000000  0.4894160000000  0.5994590000000 1.0
C      1  0.4335870000000  0.4655820000000  0.4445320000000 1.0
C      1  0.4657360000000  0.4102750000000  0.5043680000000 1.0
C      1  0.5588080000000  0.4461030000000  0.5120460000000 1.0
C      1  0.5007310000000  0.5034090000000  0.4874990000000 1.0
C      1  0.4871620000000  0.4544790000000  0.4918760000000 1.0
C      1  0.5881640000000  0.5598450000000  0.5111090000000 1.0
C      1  0.4901500000000  0.4117700000000  0.5210510000000 1.0
C      1  0.4518910000000  0.5680660000000  0.5304410000000 1.0
C      1  0.5607030000000  0.5278110000000  0.5734510000000 1.0
C      1  0.4142390000000  0.5104640000000  0.5379330000000 1.0
C      1  0.4972480000000  0.4345820000000  0.5776200000000 1.0
C      1  0.4368020000000  0.4399490000000  0.4840210000000 1.0
C      1  0.4809770000000  0.5656140000000  0.4211320000000 1.0
C      1  0.4969320000000  0.4815050000000  0.4135900000000 1.0
C      1  0.5358380000000  0.4088030000000  0.5168650000000 1.0
C      1  0.4655340000000  0.4311650000000  0.4786790000000 1.0
C      1  0.4517470000000  0.5562580000000  0.5769570000000 1.0
C      1  0.4696360000000  0.4844880000000  0.4013920000000 1.0
C      1  0.5900380000000  0.5209680000000  0.5373960000000 1.0
C      1  0.4765220000000  0.5435220000000  0.4777340000000 1.0
C      1  0.5490960000000  0.4103550000000  0.4891120000000 1.0
C      1  0.4349350000000  0.5662270000000  0.5541800000000 1.0
C      1  0.4712900000000  0.4334620000000  0.4463660000000 1.0
C      1  0.5287530000000  0.4566820000000  0.5149620000000 1.0
C      1  0.5222390000000  0.5311370000000  0.4127960000000 1.0
C      1  0.4190800000000  0.4888240000000  0.4345770000000 1.0
C      1  0.5723160000000  0.4461890000000  0.5383460000000 1.0
C      1  0.5306130000000  0.4225960000000  0.5431490000000 1.0
C      1  0.5489870000000  0.4420550000000  0.5551610000000 1.0
C      1  0.4207510000000  0.5332250000000  0.4457730000000 1.0
C      1  0.5997530000000  0.4721580000000  0.5092830000000 1.0
C      1  0.4981110000000  0.5775970000000  0.5255420000000 1.0
C      1  0.5804090000000  0.5671900000000  0.4839620000000 1.0
C      1  0.4842860000000  0.4811290000000  0.6110270000000 1.0
C      1  0.3992510000000  0.4958060000000  0.4561350000000 1.0
C      1  0.5380270000000  0.4699120000000  0.4673240000000 1.0
C      1  0.4225480000000  0.4278450000000  0.5062930000000 1.0
C      1  0.5264190000000  0.4999520000000  0.5513170000000 1.0
C      1  0.5746270000000  0.5422160000000  0.5518540000000 1.0
C      1  0.5382690000000  0.4570020000000  0.4170100000000 1.0
C      1  0.4178880000000  0.5637990000000  0.4961410000000 1.0
C      1  0.5120990000000  0.4869120000000  0.5743510000000 1.0
C      1  0.5465170000000  0.5324860000000  0.5073830000000 1.0
C      1  0.4956930000000  0.4425610000000  0.5211740000000 1.0
C      1  0.4750170000000  0.4846190000000  0.5274750000000 1.0
C      1  0.4284910000000  0.4727360000000  0.5187840000000 1.0
C      1  0.5849650000000  0.4656480000000  0.4516040000000 1.0
C      1  0.4836970000000  0.4838900000000  0.5819610000000 1.0
C      1  0.5110620000000  0.3973260000000  0.5069640000000 1.0
C      1  0.5766710000000  0.4955170000000  0.5433980000000 1.0
C      1  0.4040290000000  0.4754230000000  0.4768800000000 1.0
C      1  0.5556940000000  0.5298130000000  0.4223960000000 1.0
C      1  0.4518340000000  0.4976640000000  0.4833570000000 1.0
C      1  0.5620450000000  0.5892980000000  0.4825450000000 1.0
C      1  0.4038390000000  0.5223120000000  0.4677590000000 1.0
C      1  0.4789400000000  0.5596660000000  0.5379490000000 1.0
C      1  0.5985060000000  0.5311610000000  0.5097330000000 1.0
C      1  0.5193940000000  0.5015120000000  0.4044580000000 1.0
C      1  0.4515340000000  0.5280430000000  0.4852880000000 1.0
C      1  0.5252450000000  0.4060850000000  0.4725470000000 1.0
C      1  0.5760570000000  0.4643310000000  0.4937950000000 1.0
END
