TITL C-951346-9544-488 -1.28750665517229e-06 125000 -1174.43068584158 0 0 187 (C1) n - 1
REM
REM in /home/bkarasulu/work/CARBON/AIRSS/Generating-Clusters/EDIP-Nigel-Params/with-SteepDescent/Only-C1/SD-CG/HFTN-CG
REM
REM
REM
REM
REM
REM ./C.cell (11c1c37f851c82e70ff6c80c92926a4b)
REM
REM compiler GCC version 9.2.1 20190827 (Red Hat 9.2.1-1)
REM options -cpp -mtune=generic -march=x86-64 -g -O0 -fpre-include=/usr/include/finclude/math-vector-fortran.h
REM seed 526550965 1585380972 816745153 -304061587 -2010911106 -723390800 -1387080077 746669812 1968737215 1584573476 -504139239 1462354030 170257391 -1392748056 1234125534 -1490055529 35502880 -1065430813 2117092109 -1745141421 1957509402 1053549874 1758817719 -1221359321 -1548720062 597605379 -849466235 -2034111944 -1567698322 1111044120 1251314482 865594636 -1265136538
REM
CELL 1.54180   50.00000   50.00000   50.00000   90.00000   90.00000   90.00000
LATT -1
SFAC C  
C      1  0.4778620000000  0.5120480000000  0.4654060000000 1.0
C      1  0.5438940000000  0.5467100000000  0.4199090000000 1.0
C      1  0.5286360000000  0.4305230000000  0.5656370000000 1.0
C      1  0.5094190000000  0.4714090000000  0.4174220000000 1.0
C      1  0.4187110000000  0.4524060000000  0.4575560000000 1.0
C      1  0.5535520000000  0.4770870000000  0.4934310000000 1.0
C      1  0.4994810000000  0.5686110000000  0.4952010000000 1.0
C      1  0.5218650000000  0.5302060000000  0.5729860000000 1.0
C      1  0.4284940000000  0.4537230000000  0.4145060000000 1.0
C      1  0.4445540000000  0.4854130000000  0.4818950000000 1.0
C      1  0.5567580000000  0.4286700000000  0.5736080000000 1.0
C      1  0.4777670000000  0.5437210000000  0.3871410000000 1.0
C      1  0.3831050000000  0.4770740000000  0.4220040000000 1.0
C      1  0.4825230000000  0.5439020000000  0.6011690000000 1.0
C      1  0.4901300000000  0.4824380000000  0.5282230000000 1.0
C      1  0.4157880000000  0.4872650000000  0.5675770000000 1.0
C      1  0.4290400000000  0.4138300000000  0.5332500000000 1.0
C      1  0.4693330000000  0.5010160000000  0.4379790000000 1.0
C      1  0.4967380000000  0.4692620000000  0.3907280000000 1.0
C      1  0.5742720000000  0.5189650000000  0.5820480000000 1.0
C      1  0.5384020000000  0.4515040000000  0.4845190000000 1.0
C      1  0.5382060000000  0.5355200000000  0.3938440000000 1.0
C      1  0.6050900000000  0.4752210000000  0.4802850000000 1.0
C      1  0.4921800000000  0.4048170000000  0.4883270000000 1.0
C      1  0.3849450000000  0.4643930000000  0.5083350000000 1.0
C      1  0.4762080000000  0.5556350000000  0.4131720000000 1.0
C      1  0.4209820000000  0.5840160000000  0.4852800000000 1.0
C      1  0.4084840000000  0.4738700000000  0.4065820000000 1.0
C      1  0.4256770000000  0.4342160000000  0.5541790000000 1.0
C      1  0.5405530000000  0.5933030000000  0.4366070000000 1.0
C      1  0.5671240000000  0.5885920000000  0.4848860000000 1.0
C      1  0.5257090000000  0.5704590000000  0.4262060000000 1.0
C      1  0.4582220000000  0.5997600000000  0.5199170000000 1.0
C      1  0.5203010000000  0.4412640000000  0.5073720000000 1.0
C      1  0.5580260000000  0.4234980000000  0.4429000000000 1.0
C      1  0.5919030000000  0.4276150000000  0.5083310000000 1.0
C      1  0.5616900000000  0.5629020000000  0.5666340000000 1.0
C      1  0.5132370000000  0.5017550000000  0.6101860000000 1.0
C      1  0.4438130000000  0.5970930000000  0.4721720000000 1.0
C      1  0.4635580000000  0.5560340000000  0.4716190000000 1.0
C      1  0.4231700000000  0.4831570000000  0.4598560000000 1.0
C      1  0.5818300000000  0.4306500000000  0.4303770000000 1.0
C      1  0.4362540000000  0.5588220000000  0.5962080000000 1.0
C      1  0.4375320000000  0.4821690000000  0.5124380000000 1.0
C      1  0.5605240000000  0.4444870000000  0.5968290000000 1.0
C      1  0.5703650000000  0.4860990000000  0.4239890000000 1.0
C      1  0.4679270000000  0.5545360000000  0.5038690000000 1.0
C      1  0.4653980000000  0.4622790000000  0.4666560000000 1.0
C      1  0.4212270000000  0.4269570000000  0.4212360000000 1.0
C      1  0.4443770000000  0.4185970000000  0.4359510000000 1.0
C      1  0.4714570000000  0.4278450000000  0.5507840000000 1.0
C      1  0.5181460000000  0.6145940000000  0.5359530000000 1.0
C      1  0.4967830000000  0.5727620000000  0.4265770000000 1.0
C      1  0.5869640000000  0.4290110000000  0.4805270000000 1.0
C      1  0.5360850000000  0.4576330000000  0.6036260000000 1.0
C      1  0.5942040000000  0.4741100000000  0.5528610000000 1.0
C      1  0.4434900000000  0.4344130000000  0.4618160000000 1.0
C      1  0.5563710000000  0.5475180000000  0.5411810000000 1.0
C      1  0.5073600000000  0.4846720000000  0.5530500000000 1.0
C      1  0.4741980000000  0.4521130000000  0.3914240000000 1.0
C      1  0.5130820000000  0.5441560000000  0.4813590000000 1.0
C      1  0.5916750000000  0.5416740000000  0.4309890000000 1.0
C      1  0.4355350000000  0.5363380000000  0.4392100000000 1.0
C      1  0.3927260000000  0.4440960000000  0.4700020000000 1.0
C      1  0.3869180000000  0.5015170000000  0.4386540000000 1.0
C      1  0.5558980000000  0.5893160000000  0.5555100000000 1.0
C      1  0.3795340000000  0.4711290000000  0.4784070000000 1.0
C      1  0.5660100000000  0.4914210000000  0.5876970000000 1.0
C      1  0.4580680000000  0.5789910000000  0.4518850000000 1.0
C      1  0.5270520000000  0.5065110000000  0.5536770000000 1.0
C      1  0.4684300000000  0.5675600000000  0.5614890000000 1.0
C      1  0.4712720000000  0.5087220000000  0.5614090000000 1.0
C      1  0.3955520000000  0.4364490000000  0.5003240000000 1.0
C      1  0.5119880000000  0.5796000000000  0.5770000000000 1.0
C      1  0.5715940000000  0.5228040000000  0.5503290000000 1.0
C      1  0.5430680000000  0.5418760000000  0.4688990000000 1.0
C      1  0.5753710000000  0.4870770000000  0.4764330000000 1.0
C      1  0.4885220000000  0.5391200000000  0.4633990000000 1.0
C      1  0.4408430000000  0.4156010000000  0.4855160000000 1.0
C      1  0.6113730000000  0.4451600000000  0.5211250000000 1.0
C      1  0.4927010000000  0.5079130000000  0.5097840000000 1.0
C      1  0.4417040000000  0.4528110000000  0.5119640000000 1.0
C      1  0.5776290000000  0.4258970000000  0.5522220000000 1.0
C      1  0.4937580000000  0.4684250000000  0.4796690000000 1.0
C      1  0.4605310000000  0.4816460000000  0.5396850000000 1.0
C      1  0.5319350000000  0.6088180000000  0.4589170000000 1.0
C      1  0.5167270000000  0.6113390000000  0.4824680000000 1.0
C      1  0.5575290000000  0.4260450000000  0.4729590000000 1.0
C      1  0.5567090000000  0.3941710000000  0.5133350000000 1.0
C      1  0.5176690000000  0.4593210000000  0.4644870000000 1.0
C      1  0.4705880000000  0.4507640000000  0.6042750000000 1.0
C      1  0.5537100000000  0.5004070000000  0.5418750000000 1.0
C      1  0.3978740000000  0.5400170000000  0.4946040000000 1.0
C      1  0.5179810000000  0.5008430000000  0.4220430000000 1.0
C      1  0.5987940000000  0.4781480000000  0.4272380000000 1.0
C      1  0.5436730000000  0.4025340000000  0.4878470000000 1.0
C      1  0.5008340000000  0.5214820000000  0.5917130000000 1.0
C      1  0.4476360000000  0.5143630000000  0.5801580000000 1.0
C      1  0.5996140000000  0.4901480000000  0.5290430000000 1.0
C      1  0.4916940000000  0.4945080000000  0.3786480000000 1.0
C      1  0.4371710000000  0.5067690000000  0.4339760000000 1.0
C      1  0.4239900000000  0.4290510000000  0.5074740000000 1.0
C      1  0.4790440000000  0.5375910000000  0.5491530000000 1.0
C      1  0.5469300000000  0.5038420000000  0.5079410000000 1.0
C      1  0.4925150000000  0.4092750000000  0.4609480000000 1.0
C      1  0.4669200000000  0.4140730000000  0.5023300000000 1.0
C      1  0.5187710000000  0.5749100000000  0.5157690000000 1.0
C      1  0.4521290000000  0.4600030000000  0.5847970000000 1.0
C      1  0.6011750000000  0.4495890000000  0.4379810000000 1.0
C      1  0.4921800000000  0.4332790000000  0.5962220000000 1.0
C      1  0.6256380000000  0.4906110000000  0.4666650000000 1.0
C      1  0.5432010000000  0.5497880000000  0.5864510000000 1.0
C      1  0.4958980000000  0.4968360000000  0.4822330000000 1.0
C      1  0.5666190000000  0.4782620000000  0.5608660000000 1.0
C      1  0.5259870000000  0.5490990000000  0.5303140000000 1.0
C      1  0.4110800000000  0.5032860000000  0.4167740000000 1.0
C      1  0.6011920000000  0.4454160000000  0.5494820000000 1.0
C      1  0.4758140000000  0.5931330000000  0.5446510000000 1.0
C      1  0.3959130000000  0.4940700000000  0.4672680000000 1.0
C      1  0.4142440000000  0.5567940000000  0.4768100000000 1.0
C      1  0.5362310000000  0.4331590000000  0.4298560000000 1.0
C      1  0.4334070000000  0.4808600000000  0.5900460000000 1.0
C      1  0.3996160000000  0.4436700000000  0.5584980000000 1.0
C      1  0.4859800000000  0.4149750000000  0.5729510000000 1.0
C      1  0.4177760000000  0.5225250000000  0.5345710000000 1.0
C      1  0.5291560000000  0.6029360000000  0.5095690000000 1.0
C      1  0.5966800000000  0.5192900000000  0.5340120000000 1.0
C      1  0.4915250000000  0.4274100000000  0.4399070000000 1.0
C      1  0.4107880000000  0.4989890000000  0.5173050000000 1.0
C      1  0.4043800000000  0.5462640000000  0.5229040000000 1.0
C      1  0.5134530000000  0.4477940000000  0.4372810000000 1.0
C      1  0.4909320000000  0.4803420000000  0.5788500000000 1.0
C      1  0.4375150000000  0.5397170000000  0.4678760000000 1.0
C      1  0.4531990000000  0.5366570000000  0.6001390000000 1.0
C      1  0.5362010000000  0.5081700000000  0.3990550000000 1.0
C      1  0.4183250000000  0.5714200000000  0.5214770000000 1.0
C      1  0.5627610000000  0.5685310000000  0.4661210000000 1.0
C      1  0.5375610000000  0.3824850000000  0.5297480000000 1.0
C      1  0.5907010000000  0.5667260000000  0.5220860000000 1.0
C      1  0.4926380000000  0.5944060000000  0.4787380000000 1.0
C      1  0.5878130000000  0.5308080000000  0.4875350000000 1.0
C      1  0.5716970000000  0.5581430000000  0.4209570000000 1.0
C      1  0.6047700000000  0.4483170000000  0.4671580000000 1.0
C      1  0.3939380000000  0.4708240000000  0.5575090000000 1.0
C      1  0.5413880000000  0.5239560000000  0.4425080000000 1.0
C      1  0.4503070000000  0.5599260000000  0.4270820000000 1.0
C      1  0.4025870000000  0.5115730000000  0.4911580000000 1.0
C      1  0.5715180000000  0.5874490000000  0.5294770000000 1.0
C      1  0.5591780000000  0.5261400000000  0.4895180000000 1.0
C      1  0.3816880000000  0.4795570000000  0.5330500000000 1.0
C      1  0.5920470000000  0.5211420000000  0.4505330000000 1.0
C      1  0.4944440000000  0.4577270000000  0.5079370000000 1.0
C      1  0.5125170000000  0.4064810000000  0.5624320000000 1.0
C      1  0.4856340000000  0.5702680000000  0.5856160000000 1.0
C      1  0.4924290000000  0.4820930000000  0.6100190000000 1.0
C      1  0.4590870000000  0.4076400000000  0.5317750000000 1.0
C      1  0.5671240000000  0.5806630000000  0.4396760000000 1.0
C      1  0.4472400000000  0.5717790000000  0.5187470000000 1.0
C      1  0.6131200000000  0.4730010000000  0.5096580000000 1.0
C      1  0.4706630000000  0.4718860000000  0.4387990000000 1.0
C      1  0.5588890000000  0.6012580000000  0.5077300000000 1.0
C      1  0.5390930000000  0.4867170000000  0.6017950000000 1.0
C      1  0.4662040000000  0.6056490000000  0.4905740000000 1.0
C      1  0.4856550000000  0.5888570000000  0.4486000000000 1.0
C      1  0.4895950000000  0.6166790000000  0.5363730000000 1.0
C      1  0.4666960000000  0.5242080000000  0.5091780000000 1.0
C      1  0.5078130000000  0.5482610000000  0.5546280000000 1.0
C      1  0.4537800000000  0.5140230000000  0.4831410000000 1.0
C      1  0.4809880000000  0.5164470000000  0.3929240000000 1.0
C      1  0.5191020000000  0.5252720000000  0.5089150000000 1.0
C      1  0.4520230000000  0.4510800000000  0.5565310000000 1.0
C      1  0.5996350000000  0.5405520000000  0.5128570000000 1.0
C      1  0.5602610000000  0.4942690000000  0.3994260000000 1.0
C      1  0.4589540000000  0.4558740000000  0.4159580000000 1.0
C      1  0.6123700000000  0.4999270000000  0.4439820000000 1.0
C      1  0.5724320000000  0.4157460000000  0.5251640000000 1.0
C      1  0.5143270000000  0.4496730000000  0.5846560000000 1.0
C      1  0.4688220000000  0.4429960000000  0.5066880000000 1.0
C      1  0.5618580000000  0.5355180000000  0.6017530000000 1.0
C      1  0.4195920000000  0.5161340000000  0.5630160000000 1.0
C      1  0.4902780000000  0.5142910000000  0.4201700000000 1.0
C      1  0.4687660000000  0.4271350000000  0.4213430000000 1.0
C      1  0.5131990000000  0.3936720000000  0.5364650000000 1.0
C      1  0.5664850000000  0.5047010000000  0.4470880000000 1.0
C      1  0.5172750000000  0.4112980000000  0.5037620000000 1.0
C      1  0.4410250000000  0.5677810000000  0.5710260000000 1.0
C      1  0.5267670000000  0.5937130000000  0.5555300000000 1.0
END
