TITL C-951348-1603-608 3.46768008155381e-05 125000 -198.307816906893 0 0 34 (C1) n - 1
REM
REM in /home/bkarasulu/work/CARBON/AIRSS/Generating-Clusters/EDIP-Nigel-Params/with-SteepDescent/Only-C1/SD-CG/HFTN-CG
REM
REM
REM
REM
REM
REM ./C.cell (11c1c37f851c82e70ff6c80c92926a4b)
REM
REM compiler GCC version 9.2.1 20190827 (Red Hat 9.2.1-1)
REM options -cpp -mtune=generic -march=x86-64 -g -O0 -fpre-include=/usr/include/finclude/math-vector-fortran.h
REM seed 861636308 -1346238282 -1917939308 1156992119 1666879723 127392071 738217637 1099981174 966136763 14439498 215986117 1025367231 -1218956901 -385392899 1783118745 -913484341 -6926469 1039798735 -221054767 886292681 401100518 -83411979 1653296456 755782361 -1914159483 1562065939 1278462115 1365136872 764439355 -897152620 878464013 841735794 -1444213180
REM
CELL 1.54180   50.00000   50.00000   50.00000   90.00000   90.00000   90.00000
LATT -1
SFAC C  
C      1  0.4784430000000  0.4563180000000  0.4918070000000 1.0
C      1  0.4933140000000  0.5002500000000  0.4528050000000 1.0
C      1  0.4350100000000  0.5070920000000  0.4947880000000 1.0
C      1  0.5250450000000  0.5006330000000  0.5548800000000 1.0
C      1  0.4664760000000  0.4927750000000  0.4605720000000 1.0
C      1  0.5101370000000  0.4800950000000  0.4436360000000 1.0
C      1  0.5024990000000  0.4807720000000  0.5569960000000 1.0
C      1  0.4845690000000  0.4753070000000  0.5141800000000 1.0
C      1  0.5152220000000  0.5259920000000  0.5661230000000 1.0
C      1  0.5462000000000  0.4787810000000  0.5309460000000 1.0
C      1  0.4824540000000  0.5534400000000  0.4609550000000 1.0
C      1  0.5269480000000  0.5451660000000  0.5074960000000 1.0
C      1  0.4686280000000  0.5383630000000  0.4792540000000 1.0
C      1  0.4889880000000  0.5263820000000  0.5549240000000 1.0
C      1  0.5377420000000  0.4701740000000  0.4769810000000 1.0
C      1  0.5293900000000  0.4556320000000  0.5242740000000 1.0
C      1  0.4394300000000  0.4970990000000  0.5191530000000 1.0
C      1  0.5097640000000  0.5561630000000  0.4589320000000 1.0
C      1  0.5326290000000  0.4973250000000  0.4874620000000 1.0
C      1  0.5427330000000  0.5017880000000  0.5143590000000 1.0
C      1  0.5324480000000  0.5253420000000  0.5257670000000 1.0
C      1  0.4993440000000  0.5027720000000  0.5070530000000 1.0
C      1  0.5209030000000  0.5634190000000  0.4360950000000 1.0
C      1  0.5254810000000  0.5496810000000  0.4808620000000 1.0
C      1  0.5267210000000  0.4490780000000  0.4946030000000 1.0
C      1  0.5019490000000  0.4611520000000  0.5348330000000 1.0
C      1  0.4640750000000  0.4666090000000  0.4703570000000 1.0
C      1  0.5322170000000  0.4661070000000  0.4497180000000 1.0
C      1  0.4609690000000  0.4842630000000  0.5308810000000 1.0
C      1  0.4775190000000  0.4973750000000  0.5537370000000 1.0
C      1  0.5007400000000  0.4402560000000  0.4869560000000 1.0
C      1  0.4881120000000  0.5232180000000  0.5261180000000 1.0
C      1  0.5004050000000  0.5168470000000  0.4771210000000 1.0
C      1  0.4534950000000  0.5143350000000  0.4753730000000 1.0
END
