TITL C-950530-3293-129 -4.73376752849047e-07 125000 -667.811234215111 0 0 109 (C1) n - 1
REM
REM in /home/bkarasulu/work/CARBON/AIRSS/Generating-Clusters/EDIP-Nigel-Params/with-SteepDescent/Only-C1/SD-CG/HFTN-CG
REM
REM
REM
REM
REM
REM ./C.cell (11c1c37f851c82e70ff6c80c92926a4b)
REM
REM compiler GCC version 9.2.1 20190827 (Red Hat 9.2.1-1)
REM options -cpp -mtune=generic -march=x86-64 -g -O0 -fpre-include=/usr/include/finclude/math-vector-fortran.h
REM seed 534015453 477191295 1273962312 -464391854 -1135396768 1408175894 1247879538 510243023 267612045 -1477737339 -1190135914 -142449670 1730735729 -1475209906 -207683533 -863745630 80200503 -197269213 -1425318150 -310847706 1971050767 -865532843 -1817303734 -230342734 2108402912 -1874880832 -1291447650 -2084820850 1697072750 -525733372 -337020944 -1659379225 136416616
REM
CELL 1.54180   50.00000   50.00000   50.00000   90.00000   90.00000   90.00000
LATT -1
SFAC C  
C      1  0.5025770000000  0.4928360000000  0.4906270000000 1.0
C      1  0.4899530000000  0.4869890000000  0.4401390000000 1.0
C      1  0.5493610000000  0.4186580000000  0.4785110000000 1.0
C      1  0.4747840000000  0.5083790000000  0.4247320000000 1.0
C      1  0.4606410000000  0.5048560000000  0.5053340000000 1.0
C      1  0.4412910000000  0.4828660000000  0.5474690000000 1.0
C      1  0.5635030000000  0.4395000000000  0.5551450000000 1.0
C      1  0.5060450000000  0.5381700000000  0.4154450000000 1.0
C      1  0.4984650000000  0.5383650000000  0.5117570000000 1.0
C      1  0.4971830000000  0.5906990000000  0.5232310000000 1.0
C      1  0.5228470000000  0.4935250000000  0.5237690000000 1.0
C      1  0.5125270000000  0.5209310000000  0.5307170000000 1.0
C      1  0.4683200000000  0.5346460000000  0.5146560000000 1.0
C      1  0.5213280000000  0.4525130000000  0.4556960000000 1.0
C      1  0.4327750000000  0.4403820000000  0.4613530000000 1.0
C      1  0.4708010000000  0.4430070000000  0.4318180000000 1.0
C      1  0.5121050000000  0.5659280000000  0.4544200000000 1.0
C      1  0.5022630000000  0.4448670000000  0.4803690000000 1.0
C      1  0.4819910000000  0.4858530000000  0.5096720000000 1.0
C      1  0.4507770000000  0.4221540000000  0.4736730000000 1.0
C      1  0.5330670000000  0.5246330000000  0.5804340000000 1.0
C      1  0.5208590000000  0.4947580000000  0.4446550000000 1.0
C      1  0.5437990000000  0.4964510000000  0.5023310000000 1.0
C      1  0.5736760000000  0.4963570000000  0.5569520000000 1.0
C      1  0.4124370000000  0.5529210000000  0.5094710000000 1.0
C      1  0.4380320000000  0.4809920000000  0.4332070000000 1.0
C      1  0.5785030000000  0.4473230000000  0.5304110000000 1.0
C      1  0.5651930000000  0.4819340000000  0.4664540000000 1.0
C      1  0.5387920000000  0.4280740000000  0.4534550000000 1.0
C      1  0.5190640000000  0.4103430000000  0.5158240000000 1.0
C      1  0.4912370000000  0.4618030000000  0.4251950000000 1.0
C      1  0.4737320000000  0.4166860000000  0.4582680000000 1.0
C      1  0.5695250000000  0.5115260000000  0.4696730000000 1.0
C      1  0.5356560000000  0.4781690000000  0.4670100000000 1.0
C      1  0.4331330000000  0.5278980000000  0.4424200000000 1.0
C      1  0.4475280000000  0.4562970000000  0.4424620000000 1.0
C      1  0.4162900000000  0.5041560000000  0.5080000000000 1.0
C      1  0.4771020000000  0.4827630000000  0.5800680000000 1.0
C      1  0.4630050000000  0.5531690000000  0.4677830000000 1.0
C      1  0.4454670000000  0.5073370000000  0.4273590000000 1.0
C      1  0.5463160000000  0.5861260000000  0.5370610000000 1.0
C      1  0.4331670000000  0.4350320000000  0.5465770000000 1.0
C      1  0.5240330000000  0.4991250000000  0.5670810000000 1.0
C      1  0.4702010000000  0.4544070000000  0.4803210000000 1.0
C      1  0.5774870000000  0.4708820000000  0.5121510000000 1.0
C      1  0.4647790000000  0.5343860000000  0.5444730000000 1.0
C      1  0.4661920000000  0.4678470000000  0.5555210000000 1.0
C      1  0.4298270000000  0.5666720000000  0.4930620000000 1.0
C      1  0.4113320000000  0.4810920000000  0.4689400000000 1.0
C      1  0.4764210000000  0.5375450000000  0.5893310000000 1.0
C      1  0.4945690000000  0.5524160000000  0.4371630000000 1.0
C      1  0.5535560000000  0.5393860000000  0.5637170000000 1.0
C      1  0.5526250000000  0.5740190000000  0.4760390000000 1.0
C      1  0.4786610000000  0.5286740000000  0.4631980000000 1.0
C      1  0.5458140000000  0.5290660000000  0.5025720000000 1.0
C      1  0.5324440000000  0.5215410000000  0.4748480000000 1.0
C      1  0.4866390000000  0.4708810000000  0.5338550000000 1.0
C      1  0.4381960000000  0.4860250000000  0.5175730000000 1.0
C      1  0.5169470000000  0.4535750000000  0.5730430000000 1.0
C      1  0.5332210000000  0.5278510000000  0.4185010000000 1.0
C      1  0.5438680000000  0.4574400000000  0.5644540000000 1.0
C      1  0.4738050000000  0.4224800000000  0.5360780000000 1.0
C      1  0.5270370000000  0.5950230000000  0.5181070000000 1.0
C      1  0.5732990000000  0.5230680000000  0.5492780000000 1.0
C      1  0.5021620000000  0.5232680000000  0.4839610000000 1.0
C      1  0.5052650000000  0.5826210000000  0.4774570000000 1.0
C      1  0.5355900000000  0.4783560000000  0.4225800000000 1.0
C      1  0.5733630000000  0.5413720000000  0.5027200000000 1.0
C      1  0.4269430000000  0.5291880000000  0.5500440000000 1.0
C      1  0.4826290000000  0.5851050000000  0.4971780000000 1.0
C      1  0.5203330000000  0.4056540000000  0.4565630000000 1.0
C      1  0.5650170000000  0.4237860000000  0.5199240000000 1.0
C      1  0.4186690000000  0.4565930000000  0.4808230000000 1.0
C      1  0.5830600000000  0.4994000000000  0.5196860000000 1.0
C      1  0.4667730000000  0.5624310000000  0.5534380000000 1.0
C      1  0.4354620000000  0.5496790000000  0.4601570000000 1.0
C      1  0.5789380000000  0.4661380000000  0.4847930000000 1.0
C      1  0.5373380000000  0.5021880000000  0.4076260000000 1.0
C      1  0.4740590000000  0.4823850000000  0.4663230000000 1.0
C      1  0.4939540000000  0.5208740000000  0.5531630000000 1.0
C      1  0.5067580000000  0.4793140000000  0.5824050000000 1.0
C      1  0.5250570000000  0.4581920000000  0.5049570000000 1.0
C      1  0.5512820000000  0.5381670000000  0.4388710000000 1.0
C      1  0.5399610000000  0.4276750000000  0.5048200000000 1.0
C      1  0.5402450000000  0.5639230000000  0.5531830000000 1.0
C      1  0.5130070000000  0.5642600000000  0.5621390000000 1.0
C      1  0.4166110000000  0.5291850000000  0.5231350000000 1.0
C      1  0.4377160000000  0.5066160000000  0.5644110000000 1.0
C      1  0.4411070000000  0.4331590000000  0.5189920000000 1.0
C      1  0.5111410000000  0.4538500000000  0.5349280000000 1.0
C      1  0.4941100000000  0.5660850000000  0.5396000000000 1.0
C      1  0.5022860000000  0.4257290000000  0.5324440000000 1.0
C      1  0.4415580000000  0.4575900000000  0.5013520000000 1.0
C      1  0.5759000000000  0.5259930000000  0.4451840000000 1.0
C      1  0.4557890000000  0.5062560000000  0.4750580000000 1.0
C      1  0.4626950000000  0.5100000000000  0.5814890000000 1.0
C      1  0.5875750000000  0.5169780000000  0.4948530000000 1.0
C      1  0.5305800000000  0.5870830000000  0.4903890000000 1.0
C      1  0.4604360000000  0.5618260000000  0.4959350000000 1.0
C      1  0.5480060000000  0.4844390000000  0.5584910000000 1.0
C      1  0.4223480000000  0.5050170000000  0.4784810000000 1.0
C      1  0.4637490000000  0.5616350000000  0.5814550000000 1.0
C      1  0.4874180000000  0.5214630000000  0.4027750000000 1.0
C      1  0.4986190000000  0.4156500000000  0.4725980000000 1.0
C      1  0.5178170000000  0.4559920000000  0.4174200000000 1.0
C      1  0.5765460000000  0.5648170000000  0.4871510000000 1.0
C      1  0.5401280000000  0.5597520000000  0.4543500000000 1.0
C      1  0.5061430000000  0.5389350000000  0.5763850000000 1.0
C      1  0.4597860000000  0.4381100000000  0.5574010000000 1.0
END
