TITL C-951339-9237-196 -3.90641208138379e-06 125000 -765.934797157189 0 0 124 (C1) n - 1
REM
REM in /home/bkarasulu/work/CARBON/AIRSS/Generating-Clusters/EDIP-Nigel-Params/with-SteepDescent/Only-C1/SD-CG/HFTN-CG
REM
REM
REM
REM
REM
REM ./C.cell (11c1c37f851c82e70ff6c80c92926a4b)
REM
REM compiler GCC version 9.2.1 20190827 (Red Hat 9.2.1-1)
REM options -cpp -mtune=generic -march=x86-64 -g -O0 -fpre-include=/usr/include/finclude/math-vector-fortran.h
REM seed 1672764806 1372936985 1131182905 610901065 -268720615 1729621691 1132441648 -717780994 2007793606 1547540024 -2060913225 -644679893 -1611730135 377970271 1993516840 -1293587360 -1363603391 1828001051 861290050 -1323140610 173606761 170207423 1297098487 355673415 -921538012 -266911281 335513532 -1085887012 -1705979977 -1170371333 1555604486 756927633 -1190459032
REM
CELL 1.54180   50.00000   50.00000   50.00000   90.00000   90.00000   90.00000
LATT -1
SFAC C  
C      1  0.5851520000000  0.5178450000000  0.4435380000000 1.0
C      1  0.4997640000000  0.4654870000000  0.4986830000000 1.0
C      1  0.4997610000000  0.5621530000000  0.4407090000000 1.0
C      1  0.4453790000000  0.4457280000000  0.5735490000000 1.0
C      1  0.4179320000000  0.4368410000000  0.5123890000000 1.0
C      1  0.4700200000000  0.4076670000000  0.4635850000000 1.0
C      1  0.5442630000000  0.4570370000000  0.5613630000000 1.0
C      1  0.5144320000000  0.5279570000000  0.5231830000000 1.0
C      1  0.5242820000000  0.5589960000000  0.5841060000000 1.0
C      1  0.4459250000000  0.4890650000000  0.5168040000000 1.0
C      1  0.5210590000000  0.4706210000000  0.4147630000000 1.0
C      1  0.4808150000000  0.4135320000000  0.5005020000000 1.0
C      1  0.5717650000000  0.4595900000000  0.5759940000000 1.0
C      1  0.5097410000000  0.4286690000000  0.4536830000000 1.0
C      1  0.4330920000000  0.4256130000000  0.4887020000000 1.0
C      1  0.4211930000000  0.4409690000000  0.4675670000000 1.0
C      1  0.4820710000000  0.5833080000000  0.4837440000000 1.0
C      1  0.4272760000000  0.5448210000000  0.5042060000000 1.0
C      1  0.5202790000000  0.4867710000000  0.5561970000000 1.0
C      1  0.5217640000000  0.4751290000000  0.4834990000000 1.0
C      1  0.4333410000000  0.5389070000000  0.4761920000000 1.0
C      1  0.5082160000000  0.4988350000000  0.4690480000000 1.0
C      1  0.4714550000000  0.4923930000000  0.4029300000000 1.0
C      1  0.5462110000000  0.4668090000000  0.4279290000000 1.0
C      1  0.5490530000000  0.4843080000000  0.4497140000000 1.0
C      1  0.4486750000000  0.5372600000000  0.4319890000000 1.0
C      1  0.5997440000000  0.4872930000000  0.5309610000000 1.0
C      1  0.5795020000000  0.5347410000000  0.4900740000000 1.0
C      1  0.4659000000000  0.4531960000000  0.5926240000000 1.0
C      1  0.5780300000000  0.4993690000000  0.5448530000000 1.0
C      1  0.5003270000000  0.5436790000000  0.5732550000000 1.0
C      1  0.4841210000000  0.4229460000000  0.5487100000000 1.0
C      1  0.4405190000000  0.4472930000000  0.4473620000000 1.0
C      1  0.5342660000000  0.5138580000000  0.6019850000000 1.0
C      1  0.4448320000000  0.5632790000000  0.5188310000000 1.0
C      1  0.4738340000000  0.4616580000000  0.4891270000000 1.0
C      1  0.4858000000000  0.5257440000000  0.5921730000000 1.0
C      1  0.5431440000000  0.4901020000000  0.5003560000000 1.0
C      1  0.4209450000000  0.5376890000000  0.5514680000000 1.0
C      1  0.5582010000000  0.5378740000000  0.5101960000000 1.0
C      1  0.4861770000000  0.5258460000000  0.5138210000000 1.0
C      1  0.4353190000000  0.5627780000000  0.5475290000000 1.0
C      1  0.5582340000000  0.4425010000000  0.4377680000000 1.0
C      1  0.5215240000000  0.5587870000000  0.5305780000000 1.0
C      1  0.5196060000000  0.5177090000000  0.5513750000000 1.0
C      1  0.5276100000000  0.4237150000000  0.5282490000000 1.0
C      1  0.4507910000000  0.4740900000000  0.4061860000000 1.0
C      1  0.5740720000000  0.4766880000000  0.4642690000000 1.0
C      1  0.4889570000000  0.4426750000000  0.4393200000000 1.0
C      1  0.5310450000000  0.4472330000000  0.4642830000000 1.0
C      1  0.5537040000000  0.5472060000000  0.4208310000000 1.0
C      1  0.4162320000000  0.5256570000000  0.5244670000000 1.0
C      1  0.4824620000000  0.5082130000000  0.4891350000000 1.0
C      1  0.4605540000000  0.4366040000000  0.4994130000000 1.0
C      1  0.5726140000000  0.4859380000000  0.4931290000000 1.0
C      1  0.4554380000000  0.4309980000000  0.5497750000000 1.0
C      1  0.4456720000000  0.5557970000000  0.4537400000000 1.0
C      1  0.5119530000000  0.6065120000000  0.5123520000000 1.0
C      1  0.4921740000000  0.4715080000000  0.4402870000000 1.0
C      1  0.4589780000000  0.4874050000000  0.4897510000000 1.0
C      1  0.5062310000000  0.5114970000000  0.6054970000000 1.0
C      1  0.4337100000000  0.4671990000000  0.4273590000000 1.0
C      1  0.4986040000000  0.4168570000000  0.5242170000000 1.0
C      1  0.5428700000000  0.5406590000000  0.5969000000000 1.0
C      1  0.5458830000000  0.4948900000000  0.5834240000000 1.0
C      1  0.5288930000000  0.5420930000000  0.4037640000000 1.0
C      1  0.4180650000000  0.4952040000000  0.5240040000000 1.0
C      1  0.5894260000000  0.5094510000000  0.4939240000000 1.0
C      1  0.4196500000000  0.5153860000000  0.4676610000000 1.0
C      1  0.5301250000000  0.5151170000000  0.3934740000000 1.0
C      1  0.5301880000000  0.4309330000000  0.5569470000000 1.0
C      1  0.5424050000000  0.5647720000000  0.5091280000000 1.0
C      1  0.4873460000000  0.5995920000000  0.5247440000000 1.0
C      1  0.5693330000000  0.5226270000000  0.4199570000000 1.0
C      1  0.4948680000000  0.4525730000000  0.5863940000000 1.0
C      1  0.4743240000000  0.5533090000000  0.5155080000000 1.0
C      1  0.4829420000000  0.4977650000000  0.4297080000000 1.0
C      1  0.5742640000000  0.4454590000000  0.4630240000000 1.0
C      1  0.5354560000000  0.5193100000000  0.5010390000000 1.0
C      1  0.5950670000000  0.4921160000000  0.4510160000000 1.0
C      1  0.4256430000000  0.4650720000000  0.5671790000000 1.0
C      1  0.5670570000000  0.5261210000000  0.5380770000000 1.0
C      1  0.4726420000000  0.5725480000000  0.4565990000000 1.0
C      1  0.5465860000000  0.5307240000000  0.5591790000000 1.0
C      1  0.4636420000000  0.4294900000000  0.4451940000000 1.0
C      1  0.5504180000000  0.4342760000000  0.5118320000000 1.0
C      1  0.5520510000000  0.4327490000000  0.4817910000000 1.0
C      1  0.5032310000000  0.4283090000000  0.5705390000000 1.0
C      1  0.5309830000000  0.5730210000000  0.4834540000000 1.0
C      1  0.5479550000000  0.5785020000000  0.4617940000000 1.0
C      1  0.4826830000000  0.5641240000000  0.5611660000000 1.0
C      1  0.5725340000000  0.4895770000000  0.5726740000000 1.0
C      1  0.4670080000000  0.4828450000000  0.5679970000000 1.0
C      1  0.5378230000000  0.5603880000000  0.5568780000000 1.0
C      1  0.4146180000000  0.4833090000000  0.5502890000000 1.0
C      1  0.4960200000000  0.4763700000000  0.5694240000000 1.0
C      1  0.5097630000000  0.5928000000000  0.4872660000000 1.0
C      1  0.5101820000000  0.5131870000000  0.4307080000000 1.0
C      1  0.4983780000000  0.4062310000000  0.4676140000000 1.0
C      1  0.4666480000000  0.5991040000000  0.5028210000000 1.0
C      1  0.5707040000000  0.4496580000000  0.5266270000000 1.0
C      1  0.4457240000000  0.4458840000000  0.5257600000000 1.0
C      1  0.5411700000000  0.5120910000000  0.4438570000000 1.0
C      1  0.5805160000000  0.4442840000000  0.5529840000000 1.0
C      1  0.5256950000000  0.5261470000000  0.4710210000000 1.0
C      1  0.4906270000000  0.4895590000000  0.3829790000000 1.0
C      1  0.4758570000000  0.5283520000000  0.4697990000000 1.0
C      1  0.5164150000000  0.4901540000000  0.3938620000000 1.0
C      1  0.4386910000000  0.5258010000000  0.5721270000000 1.0
C      1  0.5534530000000  0.5539670000000  0.4501480000000 1.0
C      1  0.4552250000000  0.5608360000000  0.5678840000000 1.0
C      1  0.4200010000000  0.4888290000000  0.4395020000000 1.0
C      1  0.4619780000000  0.5150880000000  0.4465490000000 1.0
C      1  0.4005640000000  0.4823700000000  0.5053110000000 1.0
C      1  0.4407640000000  0.4967790000000  0.4598470000000 1.0
C      1  0.4022330000000  0.4561700000000  0.4963280000000 1.0
C      1  0.5730510000000  0.5364260000000  0.4622120000000 1.0
C      1  0.4633400000000  0.5113720000000  0.5780070000000 1.0
C      1  0.4606530000000  0.4790110000000  0.5387840000000 1.0
C      1  0.5866220000000  0.4694290000000  0.5132190000000 1.0
C      1  0.5000540000000  0.5469320000000  0.4675560000000 1.0
C      1  0.5036780000000  0.5418110000000  0.4202700000000 1.0
C      1  0.4911820000000  0.5704070000000  0.5331350000000 1.0
C      1  0.4410920000000  0.5901960000000  0.5092680000000 1.0
END
