TITL C-950534-5965-600 4.16444357145404e-06 125000 -955.594559914399 0 0 154 (C1) n - 1
REM
REM in /home/bkarasulu/work/CARBON/AIRSS/Generating-Clusters/EDIP-Nigel-Params/with-SteepDescent/Only-C1/SD-CG/HFTN-CG
REM
REM
REM
REM
REM
REM ./C.cell (11c1c37f851c82e70ff6c80c92926a4b)
REM
REM compiler GCC version 9.2.1 20190827 (Red Hat 9.2.1-1)
REM options -cpp -mtune=generic -march=x86-64 -g -O0 -fpre-include=/usr/include/finclude/math-vector-fortran.h
REM seed 1038078124 265115383 -1625083494 -1498009990 -777129165 360490210 -1810267844 -121366635 994491006 -1711554758 976998805 724999342 -1275983075 137662878 1903590660 2085730833 -1464370723 -481404079 890047158 -253816955 -1728426005 -1377208401 688990600 433425602 1985417652 -1699995365 778626779 2077488636 -649006964 -505728037 -1530902074 1502425664 1636779159
REM
CELL 1.54180   50.00000   50.00000   50.00000   90.00000   90.00000   90.00000
LATT -1
SFAC C  
C      1  0.4385190000000  0.5850810000000  0.5200300000000 1.0
C      1  0.5475610000000  0.5541090000000  0.5819420000000 1.0
C      1  0.5471180000000  0.4918930000000  0.5770790000000 1.0
C      1  0.5157600000000  0.5499610000000  0.5852720000000 1.0
C      1  0.4794770000000  0.5417710000000  0.4350200000000 1.0
C      1  0.4005700000000  0.4799630000000  0.4816880000000 1.0
C      1  0.5784210000000  0.4242520000000  0.5333240000000 1.0
C      1  0.5315520000000  0.4919860000000  0.5065700000000 1.0
C      1  0.5955230000000  0.5279410000000  0.4483420000000 1.0
C      1  0.4320790000000  0.4188210000000  0.4672090000000 1.0
C      1  0.4112790000000  0.4388060000000  0.4687950000000 1.0
C      1  0.4707150000000  0.4642900000000  0.4218720000000 1.0
C      1  0.4852150000000  0.5592790000000  0.5812250000000 1.0
C      1  0.5372600000000  0.5677580000000  0.4511300000000 1.0
C      1  0.4452390000000  0.5672100000000  0.4619890000000 1.0
C      1  0.4998820000000  0.5296420000000  0.3948580000000 1.0
C      1  0.4836320000000  0.5564480000000  0.5360960000000 1.0
C      1  0.4561810000000  0.4211500000000  0.5446840000000 1.0
C      1  0.4660120000000  0.5210760000000  0.4846070000000 1.0
C      1  0.4479040000000  0.4629280000000  0.5744390000000 1.0
C      1  0.4340520000000  0.4230710000000  0.5264300000000 1.0
C      1  0.5118230000000  0.5345980000000  0.4973690000000 1.0
C      1  0.5318610000000  0.4434080000000  0.5157870000000 1.0
C      1  0.5870280000000  0.4947780000000  0.5280740000000 1.0
C      1  0.4906540000000  0.5154460000000  0.5058620000000 1.0
C      1  0.5116810000000  0.5487190000000  0.5414470000000 1.0
C      1  0.4999890000000  0.5488920000000  0.4753670000000 1.0
C      1  0.4793350000000  0.5626370000000  0.5054720000000 1.0
C      1  0.5439690000000  0.4738700000000  0.4349710000000 1.0
C      1  0.4097620000000  0.5293110000000  0.4713600000000 1.0
C      1  0.5383040000000  0.5758860000000  0.5032260000000 1.0
C      1  0.4779690000000  0.5801920000000  0.5557620000000 1.0
C      1  0.5764860000000  0.5056810000000  0.4530570000000 1.0
C      1  0.4527580000000  0.4429330000000  0.4265790000000 1.0
C      1  0.4924140000000  0.4654200000000  0.5040280000000 1.0
C      1  0.5487610000000  0.4099630000000  0.4702190000000 1.0
C      1  0.4568120000000  0.4297490000000  0.4517980000000 1.0
C      1  0.4927970000000  0.4916910000000  0.3869620000000 1.0
C      1  0.4129080000000  0.5196560000000  0.4435810000000 1.0
C      1  0.5565460000000  0.4259320000000  0.4487910000000 1.0
C      1  0.5228390000000  0.4792110000000  0.4582270000000 1.0
C      1  0.4448010000000  0.4167290000000  0.4975790000000 1.0
C      1  0.4569440000000  0.6111970000000  0.4803400000000 1.0
C      1  0.5808810000000  0.5519440000000  0.4380890000000 1.0
C      1  0.5714020000000  0.4472440000000  0.5523120000000 1.0
C      1  0.5123230000000  0.5760270000000  0.4668990000000 1.0
C      1  0.4028470000000  0.4727800000000  0.4535060000000 1.0
C      1  0.4238510000000  0.4758260000000  0.5658390000000 1.0
C      1  0.4449370000000  0.5298650000000  0.5249650000000 1.0
C      1  0.4659100000000  0.4628700000000  0.5154080000000 1.0
C      1  0.5042160000000  0.4081680000000  0.4489040000000 1.0
C      1  0.5241830000000  0.6001300000000  0.5485180000000 1.0
C      1  0.5440860000000  0.4845750000000  0.4814900000000 1.0
C      1  0.5711710000000  0.4684840000000  0.5311300000000 1.0
C      1  0.5836700000000  0.4344130000000  0.4828380000000 1.0
C      1  0.5493550000000  0.3925870000000  0.5045530000000 1.0
C      1  0.5039490000000  0.5312000000000  0.4490760000000 1.0
C      1  0.5407880000000  0.5102300000000  0.6019340000000 1.0
C      1  0.5200420000000  0.4902940000000  0.3939000000000 1.0
C      1  0.4884160000000  0.4366390000000  0.5780750000000 1.0
C      1  0.5098400000000  0.4456240000000  0.4133870000000 1.0
C      1  0.5813940000000  0.4588090000000  0.4666700000000 1.0
C      1  0.4183890000000  0.5656400000000  0.5100690000000 1.0
C      1  0.5275080000000  0.4705430000000  0.5297970000000 1.0
C      1  0.4984240000000  0.3888450000000  0.5158870000000 1.0
C      1  0.5150400000000  0.5246020000000  0.6005740000000 1.0
C      1  0.4908330000000  0.5074830000000  0.5407370000000 1.0
C      1  0.4706290000000  0.4890090000000  0.4394520000000 1.0
C      1  0.5003820000000  0.5001140000000  0.4488930000000 1.0
C      1  0.5071610000000  0.4403180000000  0.4968360000000 1.0
C      1  0.4729020000000  0.4611780000000  0.5457450000000 1.0
C      1  0.5342520000000  0.5042250000000  0.5527070000000 1.0
C      1  0.5350210000000  0.5140560000000  0.3922190000000 1.0
C      1  0.4563150000000  0.4789680000000  0.4633060000000 1.0
C      1  0.5746360000000  0.4870230000000  0.4765650000000 1.0
C      1  0.4173590000000  0.5417990000000  0.5287200000000 1.0
C      1  0.4447310000000  0.6072850000000  0.5041610000000 1.0
C      1  0.4455540000000  0.5092630000000  0.5917720000000 1.0
C      1  0.6113520000000  0.5355600000000  0.4712620000000 1.0
C      1  0.4637560000000  0.4965550000000  0.5548580000000 1.0
C      1  0.5634800000000  0.5449970000000  0.4159950000000 1.0
C      1  0.4862170000000  0.4223200000000  0.5126690000000 1.0
C      1  0.6021950000000  0.5256450000000  0.4956540000000 1.0
C      1  0.4036000000000  0.5161240000000  0.5162420000000 1.0
C      1  0.3990460000000  0.4935620000000  0.5319860000000 1.0
C      1  0.4258790000000  0.5042810000000  0.5704500000000 1.0
C      1  0.5113530000000  0.5235330000000  0.5567010000000 1.0
C      1  0.5141660000000  0.4346720000000  0.4406760000000 1.0
C      1  0.4110680000000  0.4698470000000  0.5408310000000 1.0
C      1  0.4694460000000  0.5286620000000  0.5848000000000 1.0
C      1  0.4821600000000  0.4198760000000  0.5564440000000 1.0
C      1  0.5288660000000  0.4653490000000  0.5726150000000 1.0
C      1  0.5784560000000  0.5137490000000  0.5737910000000 1.0
C      1  0.5021970000000  0.4598580000000  0.5860930000000 1.0
C      1  0.4552790000000  0.5413910000000  0.4529080000000 1.0
C      1  0.4143240000000  0.5062440000000  0.4893590000000 1.0
C      1  0.5506770000000  0.5905660000000  0.5459170000000 1.0
C      1  0.4680500000000  0.4522840000000  0.4693040000000 1.0
C      1  0.4365790000000  0.5577810000000  0.5582180000000 1.0
C      1  0.5848010000000  0.5589710000000  0.4863690000000 1.0
C      1  0.4870040000000  0.5690270000000  0.4240570000000 1.0
C      1  0.5591020000000  0.4990530000000  0.4317640000000 1.0
C      1  0.5111590000000  0.5568310000000  0.4079410000000 1.0
C      1  0.5282420000000  0.5464140000000  0.4312090000000 1.0
C      1  0.4573020000000  0.4811190000000  0.5954380000000 1.0
C      1  0.5606830000000  0.5898330000000  0.5177020000000 1.0
C      1  0.5738650000000  0.5476110000000  0.5359080000000 1.0
C      1  0.4189450000000  0.4488780000000  0.5214840000000 1.0
C      1  0.4764070000000  0.4089480000000  0.4495510000000 1.0
C      1  0.5525280000000  0.5346860000000  0.5204780000000 1.0
C      1  0.4167970000000  0.4915300000000  0.4371190000000 1.0
C      1  0.5006810000000  0.4772430000000  0.5459950000000 1.0
C      1  0.4103360000000  0.4545880000000  0.4933130000000 1.0
C      1  0.5213390000000  0.3871080000000  0.4963910000000 1.0
C      1  0.5170120000000  0.5934220000000  0.4924110000000 1.0
C      1  0.4929380000000  0.5920920000000  0.5104990000000 1.0
C      1  0.5280260000000  0.5494150000000  0.5164960000000 1.0
C      1  0.5285690000000  0.4675310000000  0.4100730000000 1.0
C      1  0.5931220000000  0.4325590000000  0.5094820000000 1.0
C      1  0.5915420000000  0.4996690000000  0.4992400000000 1.0
C      1  0.4705180000000  0.3997980000000  0.4985290000000 1.0
C      1  0.5206050000000  0.4051050000000  0.4733540000000 1.0
C      1  0.5658270000000  0.5636300000000  0.4612280000000 1.0
C      1  0.4902470000000  0.5874100000000  0.4483980000000 1.0
C      1  0.4474260000000  0.5825770000000  0.5483870000000 1.0
C      1  0.5036110000000  0.4910800000000  0.4987380000000 1.0
C      1  0.5595110000000  0.5645940000000  0.5570350000000 1.0
C      1  0.4917100000000  0.5105000000000  0.5927220000000 1.0
C      1  0.4973780000000  0.5986390000000  0.5399890000000 1.0
C      1  0.4598900000000  0.5399290000000  0.5485500000000 1.0
C      1  0.4746310000000  0.5235860000000  0.4116390000000 1.0
C      1  0.5620510000000  0.5298660000000  0.5926380000000 1.0
C      1  0.4864200000000  0.4824280000000  0.5972470000000 1.0
C      1  0.5543870000000  0.4066620000000  0.5294270000000 1.0
C      1  0.5500140000000  0.5069970000000  0.5272390000000 1.0
C      1  0.4226460000000  0.5565160000000  0.4805000000000 1.0
C      1  0.5058160000000  0.4068140000000  0.5426190000000 1.0
C      1  0.4539450000000  0.4459230000000  0.4943420000000 1.0
C      1  0.4826580000000  0.4664630000000  0.3959740000000 1.0
C      1  0.4545920000000  0.5441230000000  0.4984380000000 1.0
C      1  0.4491940000000  0.5064750000000  0.4212520000000 1.0
C      1  0.5611790000000  0.4545080000000  0.5056030000000 1.0
C      1  0.5438050000000  0.4407670000000  0.5628630000000 1.0
C      1  0.5063050000000  0.4527550000000  0.4639640000000 1.0
C      1  0.5641500000000  0.4523870000000  0.4438920000000 1.0
C      1  0.5326000000000  0.4236580000000  0.5395370000000 1.0
C      1  0.5870970000000  0.5207700000000  0.5470490000000 1.0
C      1  0.4412150000000  0.5014720000000  0.5343040000000 1.0
C      1  0.4364020000000  0.5308300000000  0.4331310000000 1.0
C      1  0.5552770000000  0.5183010000000  0.4112080000000 1.0
C      1  0.4470130000000  0.4981200000000  0.4856260000000 1.0
C      1  0.4644800000000  0.5890540000000  0.4646350000000 1.0
C      1  0.4529660000000  0.4879760000000  0.5117190000000 1.0
C      1  0.5831050000000  0.5695130000000  0.5151400000000 1.0
END
