TITL C-951339-9237-349 -2.65845820756308e-06 125000 -890.142201164944 0 0 142 (C1) n - 1
REM
REM in /home/bkarasulu/work/CARBON/AIRSS/Generating-Clusters/EDIP-Nigel-Params/with-SteepDescent/Only-C1/SD-CG/HFTN-CG
REM
REM
REM
REM
REM
REM ./C.cell (11c1c37f851c82e70ff6c80c92926a4b)
REM
REM compiler GCC version 9.2.1 20190827 (Red Hat 9.2.1-1)
REM options -cpp -mtune=generic -march=x86-64 -g -O0 -fpre-include=/usr/include/finclude/math-vector-fortran.h
REM seed -666364853 -1978032589 -353838338 -1981555761 -1875175053 1589848689 2142354325 -466619829 -4078133 1285601568 -11308883 1853191779 -1707921839 -517744395 -847798274 909405565 -1453428765 1252557130 -2038500604 -975840972 902793272 -1079583540 1354750437 -117188735 -2069555349 1815972686 696480221 1084143288 -1019208578 -899547265 -841908012 -310082955 -947153204
REM
CELL 1.54180   50.00000   50.00000   50.00000   90.00000   90.00000   90.00000
LATT -1
SFAC C  
C      1  0.5461960000000  0.4439400000000  0.5649230000000 1.0
C      1  0.4320120000000  0.4550030000000  0.5178580000000 1.0
C      1  0.4001360000000  0.5065830000000  0.5086240000000 1.0
C      1  0.5068220000000  0.4248070000000  0.5834640000000 1.0
C      1  0.4489110000000  0.5368600000000  0.4496430000000 1.0
C      1  0.4861920000000  0.5808900000000  0.5552630000000 1.0
C      1  0.4389560000000  0.5498850000000  0.5264750000000 1.0
C      1  0.5630060000000  0.5554580000000  0.5665730000000 1.0
C      1  0.4848890000000  0.5609510000000  0.4923680000000 1.0
C      1  0.5631800000000  0.5547120000000  0.5369000000000 1.0
C      1  0.5361830000000  0.5286480000000  0.5962160000000 1.0
C      1  0.4338820000000  0.5000590000000  0.4808050000000 1.0
C      1  0.4025710000000  0.4628010000000  0.5166510000000 1.0
C      1  0.4391410000000  0.4544280000000  0.5765570000000 1.0
C      1  0.4075020000000  0.5218790000000  0.4468040000000 1.0
C      1  0.4921510000000  0.5944710000000  0.5314900000000 1.0
C      1  0.5810680000000  0.4350230000000  0.4976940000000 1.0
C      1  0.4272730000000  0.5016340000000  0.5731560000000 1.0
C      1  0.4577320000000  0.5025190000000  0.5323840000000 1.0
C      1  0.5984370000000  0.5093070000000  0.5400410000000 1.0
C      1  0.5839360000000  0.4634960000000  0.4632990000000 1.0
C      1  0.5313060000000  0.5522910000000  0.4784060000000 1.0
C      1  0.5235600000000  0.4263810000000  0.5613740000000 1.0
C      1  0.5078810000000  0.3981040000000  0.4918640000000 1.0
C      1  0.5152610000000  0.5914120000000  0.5075890000000 1.0
C      1  0.5752110000000  0.4815260000000  0.4428670000000 1.0
C      1  0.5416070000000  0.5705420000000  0.5769070000000 1.0
C      1  0.4998650000000  0.4538720000000  0.5249420000000 1.0
C      1  0.5847460000000  0.5330190000000  0.4997290000000 1.0
C      1  0.5239010000000  0.4738650000000  0.5234820000000 1.0
C      1  0.4375590000000  0.4184180000000  0.5308590000000 1.0
C      1  0.4915110000000  0.4615030000000  0.4057290000000 1.0
C      1  0.5664790000000  0.5583390000000  0.4621520000000 1.0
C      1  0.5055610000000  0.5860710000000  0.4555960000000 1.0
C      1  0.4629730000000  0.5319400000000  0.5250710000000 1.0
C      1  0.5585260000000  0.5261180000000  0.5760170000000 1.0
C      1  0.5681260000000  0.4901800000000  0.5783650000000 1.0
C      1  0.4480160000000  0.5857750000000  0.4710820000000 1.0
C      1  0.4573080000000  0.4976340000000  0.4993720000000 1.0
C      1  0.5634130000000  0.5749870000000  0.5137710000000 1.0
C      1  0.5155220000000  0.5278040000000  0.4698360000000 1.0
C      1  0.5205810000000  0.4788580000000  0.5982040000000 1.0
C      1  0.4823420000000  0.5531940000000  0.5582280000000 1.0
C      1  0.5128750000000  0.4162810000000  0.4704670000000 1.0
C      1  0.4782230000000  0.4931900000000  0.4441560000000 1.0
C      1  0.5544640000000  0.4674420000000  0.4259120000000 1.0
C      1  0.5779520000000  0.4362400000000  0.4684050000000 1.0
C      1  0.4857140000000  0.4098350000000  0.5335880000000 1.0
C      1  0.4209380000000  0.5427720000000  0.5482830000000 1.0
C      1  0.5403640000000  0.4828720000000  0.4054970000000 1.0
C      1  0.4623230000000  0.4340940000000  0.4399470000000 1.0
C      1  0.4674240000000  0.4252740000000  0.4924980000000 1.0
C      1  0.5859870000000  0.4861840000000  0.5543820000000 1.0
C      1  0.4517780000000  0.5173820000000  0.4106940000000 1.0
C      1  0.5491120000000  0.5089020000000  0.5490730000000 1.0
C      1  0.5457280000000  0.5259050000000  0.4320400000000 1.0
C      1  0.4946080000000  0.5373540000000  0.4530540000000 1.0
C      1  0.4053300000000  0.5354370000000  0.5136660000000 1.0
C      1  0.4878750000000  0.5550320000000  0.3983610000000 1.0
C      1  0.5084220000000  0.5391610000000  0.5583850000000 1.0
C      1  0.4686960000000  0.4720930000000  0.4620660000000 1.0
C      1  0.5025770000000  0.6022010000000  0.4806220000000 1.0
C      1  0.4726810000000  0.5200010000000  0.4558990000000 1.0
C      1  0.5094390000000  0.4436430000000  0.4778360000000 1.0
C      1  0.3980420000000  0.4881160000000  0.5307460000000 1.0
C      1  0.5812160000000  0.5310730000000  0.5283150000000 1.0
C      1  0.5247870000000  0.5255570000000  0.3902120000000 1.0
C      1  0.5315780000000  0.5083170000000  0.4540630000000 1.0
C      1  0.5480110000000  0.4971920000000  0.4821060000000 1.0
C      1  0.5210140000000  0.5062690000000  0.6027270000000 1.0
C      1  0.4618960000000  0.4240080000000  0.5443620000000 1.0
C      1  0.4844340000000  0.4935880000000  0.5428230000000 1.0
C      1  0.5223700000000  0.5505970000000  0.5828980000000 1.0
C      1  0.4379320000000  0.4496060000000  0.4397410000000 1.0
C      1  0.4649390000000  0.4200240000000  0.4640810000000 1.0
C      1  0.4290990000000  0.5750560000000  0.4917820000000 1.0
C      1  0.4810490000000  0.4646630000000  0.5452840000000 1.0
C      1  0.4607080000000  0.4357870000000  0.5713600000000 1.0
C      1  0.5999860000000  0.4860270000000  0.4977420000000 1.0
C      1  0.5019720000000  0.5139910000000  0.4930670000000 1.0
C      1  0.4721460000000  0.5977790000000  0.4869940000000 1.0
C      1  0.5107200000000  0.4264870000000  0.5339850000000 1.0
C      1  0.4396280000000  0.4284520000000  0.5040670000000 1.0
C      1  0.5492170000000  0.4676150000000  0.4796360000000 1.0
C      1  0.4888300000000  0.4421560000000  0.4276900000000 1.0
C      1  0.5108320000000  0.4843590000000  0.4112490000000 1.0
C      1  0.5260390000000  0.4610840000000  0.4611180000000 1.0
C      1  0.5834760000000  0.5090920000000  0.4547000000000 1.0
C      1  0.4676080000000  0.5937080000000  0.5153280000000 1.0
C      1  0.5874870000000  0.4617140000000  0.5093340000000 1.0
C      1  0.5011150000000  0.5096610000000  0.3969470000000 1.0
C      1  0.5385960000000  0.4428830000000  0.4400140000000 1.0
C      1  0.5143460000000  0.5617330000000  0.5031840000000 1.0
C      1  0.3907600000000  0.4640110000000  0.4906400000000 1.0
C      1  0.6138950000000  0.4988870000000  0.5187470000000 1.0
C      1  0.4789560000000  0.5283050000000  0.4021270000000 1.0
C      1  0.5413630000000  0.4723440000000  0.5763970000000 1.0
C      1  0.4672260000000  0.4725680000000  0.3975490000000 1.0
C      1  0.4168810000000  0.5477970000000  0.4889840000000 1.0
C      1  0.5477110000000  0.5121210000000  0.4046410000000 1.0
C      1  0.4246610000000  0.5244450000000  0.4219780000000 1.0
C      1  0.5164430000000  0.5519790000000  0.4019190000000 1.0
C      1  0.3918990000000  0.5011800000000  0.4580680000000 1.0
C      1  0.5130660000000  0.4272140000000  0.4338650000000 1.0
C      1  0.4789180000000  0.5183920000000  0.5913480000000 1.0
C      1  0.5438520000000  0.4552330000000  0.5082560000000 1.0
C      1  0.5437720000000  0.5952280000000  0.5116990000000 1.0
C      1  0.5809100000000  0.5069860000000  0.4847670000000 1.0
C      1  0.4413380000000  0.5797310000000  0.5192750000000 1.0
C      1  0.4925890000000  0.4700050000000  0.5952040000000 1.0
C      1  0.4457800000000  0.4818640000000  0.5825780000000 1.0
C      1  0.4767390000000  0.4775890000000  0.4889940000000 1.0
C      1  0.4268010000000  0.5274730000000  0.4685930000000 1.0
C      1  0.5384600000000  0.5209840000000  0.5241930000000 1.0
C      1  0.5618970000000  0.4223560000000  0.5190130000000 1.0
C      1  0.4822870000000  0.4021320000000  0.5053780000000 1.0
C      1  0.5280600000000  0.4883880000000  0.5539890000000 1.0
C      1  0.4880210000000  0.4458010000000  0.5790310000000 1.0
C      1  0.4495040000000  0.4663800000000  0.5416900000000 1.0
C      1  0.4394610000000  0.4704670000000  0.4595490000000 1.0
C      1  0.4575300000000  0.5665070000000  0.4507380000000 1.0
C      1  0.4723230000000  0.4905300000000  0.5911080000000 1.0
C      1  0.5835610000000  0.4621240000000  0.5378520000000 1.0
C      1  0.5727650000000  0.5575720000000  0.4910570000000 1.0
C      1  0.5305320000000  0.4224760000000  0.5101790000000 1.0
C      1  0.5267210000000  0.5014370000000  0.5058530000000 1.0
C      1  0.5572010000000  0.4250470000000  0.4532740000000 1.0
C      1  0.4600820000000  0.4901330000000  0.4186870000000 1.0
C      1  0.4857660000000  0.5638390000000  0.4613390000000 1.0
C      1  0.4069680000000  0.4918850000000  0.5570220000000 1.0
C      1  0.3908140000000  0.4916560000000  0.4848110000000 1.0
C      1  0.5715700000000  0.5341360000000  0.4440380000000 1.0
C      1  0.4872910000000  0.4507550000000  0.4969290000000 1.0
C      1  0.4386670000000  0.5264660000000  0.5642310000000 1.0
C      1  0.5311400000000  0.5707540000000  0.4522490000000 1.0
C      1  0.5024830000000  0.5068440000000  0.5631150000000 1.0
C      1  0.4765910000000  0.5317130000000  0.4983180000000 1.0
C      1  0.5290770000000  0.5508240000000  0.4288930000000 1.0
C      1  0.4634840000000  0.5380260000000  0.5762330000000 1.0
C      1  0.5252880000000  0.5463050000000  0.5309410000000 1.0
C      1  0.5656880000000  0.4404550000000  0.5435460000000 1.0
C      1  0.5101910000000  0.4875780000000  0.4420980000000 1.0
END
