TITL C-950536-5891-270 0.080076553968766 125000 -227.873532539052 0 0 39 (C1) n - 1
REM
REM in /home/bkarasulu/work/CARBON/AIRSS/Generating-Clusters/EDIP-Nigel-Params/with-SteepDescent/Only-C1/SD-CG/HFTN-CG
REM
REM
REM
REM
REM
REM ./C.cell (11c1c37f851c82e70ff6c80c92926a4b)
REM
REM compiler GCC version 9.2.1 20190827 (Red Hat 9.2.1-1)
REM options -cpp -mtune=generic -march=x86-64 -g -O0 -fpre-include=/usr/include/finclude/math-vector-fortran.h
REM seed 871860991 718584997 -2095672649 -941409198 -1757683301 -1139094729 396673943 1479952028 1360762684 -1470751601 39771328 1849587099 442847936 -1991220480 906667844 -590633259 1387097906 -1261173394 -1470290475 1430692283 -542784707 978511135 -1167954380 1806517444 914915049 -869623685 73590294 -666638841 -1489810235 1363619732 687064024 -887276124 1744588168
REM
CELL 1.54180   50.00000   50.00000   50.00000   90.00000   90.00000   90.00000
LATT -1
SFAC C  
C      1  0.5118530000000  0.4558990000000  0.4412020000000 1.0
C      1  0.5397630000000  0.5025910000000  0.4545480000000 1.0
C      1  0.5097000000000  0.5416750000000  0.4281290000000 1.0
C      1  0.5011780000000  0.4818090000000  0.5494930000000 1.0
C      1  0.4751750000000  0.5366510000000  0.4593600000000 1.0
C      1  0.4540630000000  0.4579000000000  0.4450860000000 1.0
C      1  0.5347750000000  0.4334360000000  0.5071820000000 1.0
C      1  0.5510640000000  0.4934480000000  0.4789660000000 1.0
C      1  0.5321760000000  0.5020400000000  0.5001300000000 1.0
C      1  0.5537320000000  0.5839060000000  0.5623160000000 1.0
C      1  0.5144470000000  0.4427300000000  0.5235860000000 1.0
C      1  0.5058410000000  0.4994070000000  0.4878170000000 1.0
C      1  0.4860540000000  0.4421240000000  0.5115280000000 1.0
C      1  0.4677060000000  0.5268720000000  0.5061300000000 1.0
C      1  0.4993230000000  0.5288640000000  0.4488090000000 1.0
C      1  0.5373370000000  0.4979060000000  0.5285660000000 1.0
C      1  0.4483290000000  0.5644560000000  0.4849270000000 1.0
C      1  0.4609680000000  0.5413900000000  0.4823570000000 1.0
C      1  0.4655730000000  0.4655050000000  0.5200920000000 1.0
C      1  0.4700520000000  0.4797270000000  0.4406270000000 1.0
C      1  0.4802010000000  0.4986900000000  0.5046780000000 1.0
C      1  0.5035350000000  0.5313840000000  0.5449020000000 1.0
C      1  0.5308960000000  0.5980480000000  0.5646200000000 1.0
C      1  0.4578060000000  0.5377160000000  0.5308010000000 1.0
C      1  0.5181070000000  0.5062040000000  0.5496420000000 1.0
C      1  0.5106140000000  0.5028610000000  0.4578060000000 1.0
C      1  0.5324310000000  0.5781020000000  0.5445370000000 1.0
C      1  0.4752690000000  0.5329030000000  0.5538340000000 1.0
C      1  0.5557040000000  0.4655680000000  0.4792050000000 1.0
C      1  0.5123500000000  0.4475520000000  0.4679250000000 1.0
C      1  0.4724290000000  0.4835210000000  0.5451850000000 1.0
C      1  0.4869530000000  0.4417780000000  0.4814830000000 1.0
C      1  0.5378020000000  0.4440650000000  0.4816970000000 1.0
C      1  0.5086250000000  0.4725110000000  0.5223860000000 1.0
C      1  0.4984760000000  0.4805260000000  0.4416730000000 1.0
C      1  0.4603580000000  0.5075800000000  0.5552130000000 1.0
C      1  0.5182060000000  0.5547430000000  0.5469350000000 1.0
C      1  0.4636260000000  0.4585770000000  0.4728070000000 1.0
C      1  0.4575030000000  0.4793360000000  0.4938190000000 1.0
END
