TITL C-951345-2650-396 -2.01409946705596e-08 125000 -300.890292494704 0 0 50 (C1) n - 1
REM
REM in /home/bkarasulu/work/CARBON/AIRSS/Generating-Clusters/EDIP-Nigel-Params/with-SteepDescent/Only-C1/SD-CG/HFTN-CG
REM
REM
REM
REM
REM
REM ./C.cell (11c1c37f851c82e70ff6c80c92926a4b)
REM
REM compiler GCC version 9.2.1 20190827 (Red Hat 9.2.1-1)
REM options -cpp -mtune=generic -march=x86-64 -g -O0 -fpre-include=/usr/include/finclude/math-vector-fortran.h
REM seed 301820811 -1892247804 -1402086758 -551456853 -1333327427 1961412596 -411661161 -417935207 -634035455 1579895679 217833638 -1021181448 708473430 1316304799 454158368 691335529 -557351903 893185691 -1740660953 217788590 -1587921918 1053794509 -1188603168 1025509327 2125121677 800038689 1396375392 -924313606 -396746343 1027472929 -367530932 -585291063 -56071587
REM
CELL 1.54180   50.00000   50.00000   50.00000   90.00000   90.00000   90.00000
LATT -1
SFAC C  
C      1  0.4727000000000  0.4543690000000  0.4544340000000 1.0
C      1  0.4504330000000  0.5361500000000  0.5078770000000 1.0
C      1  0.4977800000000  0.5156180000000  0.4812070000000 1.0
C      1  0.4457620000000  0.4652730000000  0.4579780000000 1.0
C      1  0.5402110000000  0.4934940000000  0.4355690000000 1.0
C      1  0.4690200000000  0.5416210000000  0.4857270000000 1.0
C      1  0.4375920000000  0.4653710000000  0.4862990000000 1.0
C      1  0.5678000000000  0.5194810000000  0.5107870000000 1.0
C      1  0.5366520000000  0.5234500000000  0.5477920000000 1.0
C      1  0.4911210000000  0.5653790000000  0.4873920000000 1.0
C      1  0.5100460000000  0.4530760000000  0.5383290000000 1.0
C      1  0.5255960000000  0.4986480000000  0.5197450000000 1.0
C      1  0.4796670000000  0.4895950000000  0.5173000000000 1.0
C      1  0.5541600000000  0.4938050000000  0.5084000000000 1.0
C      1  0.4867200000000  0.5192850000000  0.5537990000000 1.0
C      1  0.4338080000000  0.4946890000000  0.4889400000000 1.0
C      1  0.4971040000000  0.4625850000000  0.5629610000000 1.0
C      1  0.4460310000000  0.5076560000000  0.5130430000000 1.0
C      1  0.5097040000000  0.5227320000000  0.5078060000000 1.0
C      1  0.4598680000000  0.4528950000000  0.5023850000000 1.0
C      1  0.5118850000000  0.5578100000000  0.4683950000000 1.0
C      1  0.4615040000000  0.4527260000000  0.5314720000000 1.0
C      1  0.4688590000000  0.4685730000000  0.5544410000000 1.0
C      1  0.5119350000000  0.4849250000000  0.5726600000000 1.0
C      1  0.4921320000000  0.4780870000000  0.4467300000000 1.0
C      1  0.5060570000000  0.4751780000000  0.5176170000000 1.0
C      1  0.5316020000000  0.5208030000000  0.4428580000000 1.0
C      1  0.5362190000000  0.4446160000000  0.5424820000000 1.0
C      1  0.5074250000000  0.5310590000000  0.4567240000000 1.0
C      1  0.4604220000000  0.5277240000000  0.4601010000000 1.0
C      1  0.5133700000000  0.5101800000000  0.5603780000000 1.0
C      1  0.4820120000000  0.4454750000000  0.4827500000000 1.0
C      1  0.4440360000000  0.5032860000000  0.4628020000000 1.0
C      1  0.5314230000000  0.4638230000000  0.4727320000000 1.0
C      1  0.4823340000000  0.5258750000000  0.4404550000000 1.0
C      1  0.4826290000000  0.4998310000000  0.4294400000000 1.0
C      1  0.5674260000000  0.4745900000000  0.5247020000000 1.0
C      1  0.5012440000000  0.5647830000000  0.5375840000000 1.0
C      1  0.5613010000000  0.4525470000000  0.5383280000000 1.0
C      1  0.5109110000000  0.5694840000000  0.5111630000000 1.0
C      1  0.5220520000000  0.4706110000000  0.4446440000000 1.0
C      1  0.5280930000000  0.5460220000000  0.5018800000000 1.0
C      1  0.5059240000000  0.4643210000000  0.4893130000000 1.0
C      1  0.5525270000000  0.4832440000000  0.4799950000000 1.0
C      1  0.5599730000000  0.4984050000000  0.4568900000000 1.0
C      1  0.4861550000000  0.5405140000000  0.5333330000000 1.0
C      1  0.4586510000000  0.5491360000000  0.5305030000000 1.0
C      1  0.5487420000000  0.5362670000000  0.5234590000000 1.0
C      1  0.4676870000000  0.4974460000000  0.5434540000000 1.0
C      1  0.4936950000000  0.4874840000000  0.4749410000000 1.0
END
