TITL C-950524-1808-614 -2.71914823516298e-06 125000 -607.342810317392 0 0 99 (C1) n - 1
REM
REM in /home/bkarasulu/work/CARBON/AIRSS/Generating-Clusters/EDIP-Nigel-Params/with-SteepDescent/Only-C1/SD-CG/HFTN-CG
REM
REM
REM
REM
REM
REM ./C.cell (11c1c37f851c82e70ff6c80c92926a4b)
REM
REM compiler GCC version 9.2.1 20190827 (Red Hat 9.2.1-1)
REM options -cpp -mtune=generic -march=x86-64 -g -O0 -fpre-include=/usr/include/finclude/math-vector-fortran.h
REM seed -664366944 -780815440 456596225 551986335 -22604931 2078431038 -1953087574 -1269734019 255840508 -1569659797 -180554158 -407219637 -880695417 -585995518 -574059717 -1762833875 1976215500 -1745461887 -195803320 -2132945602 663785260 -1865952717 -747950385 -1790853232 1827288286 -593069001 1566052402 -696397232 1588784029 -1084240610 1447725732 -1289827922 -226230173
REM
CELL 1.54180   50.00000   50.00000   50.00000   90.00000   90.00000   90.00000
LATT -1
SFAC C  
C      1  0.4428410000000  0.5706660000000  0.4809550000000 1.0
C      1  0.4481930000000  0.4526910000000  0.4752360000000 1.0
C      1  0.5501640000000  0.5518530000000  0.4508310000000 1.0
C      1  0.4902740000000  0.4492240000000  0.4980850000000 1.0
C      1  0.4692230000000  0.4987560000000  0.5873630000000 1.0
C      1  0.5604550000000  0.4267060000000  0.5250270000000 1.0
C      1  0.4861140000000  0.5323840000000  0.5453340000000 1.0
C      1  0.5248350000000  0.4707020000000  0.5273310000000 1.0
C      1  0.5072560000000  0.5851910000000  0.5207420000000 1.0
C      1  0.4879250000000  0.5063810000000  0.4187810000000 1.0
C      1  0.5649450000000  0.4458660000000  0.5021880000000 1.0
C      1  0.4864110000000  0.5821740000000  0.4633220000000 1.0
C      1  0.4802080000000  0.5535120000000  0.4240240000000 1.0
C      1  0.4666860000000  0.5561370000000  0.5515770000000 1.0
C      1  0.5024860000000  0.4597210000000  0.4221000000000 1.0
C      1  0.4337760000000  0.4777920000000  0.4705070000000 1.0
C      1  0.5402700000000  0.4650470000000  0.5008090000000 1.0
C      1  0.4810640000000  0.5774350000000  0.5099950000000 1.0
C      1  0.5755530000000  0.5196230000000  0.5354660000000 1.0
C      1  0.5396210000000  0.5041220000000  0.5629640000000 1.0
C      1  0.5491750000000  0.5608220000000  0.5263440000000 1.0
C      1  0.4715450000000  0.5739050000000  0.4407950000000 1.0
C      1  0.4292440000000  0.4536490000000  0.5230600000000 1.0
C      1  0.5617030000000  0.4458280000000  0.5488730000000 1.0
C      1  0.4661740000000  0.5270290000000  0.4224170000000 1.0
C      1  0.4870850000000  0.4217620000000  0.5097000000000 1.0
C      1  0.4757550000000  0.5281270000000  0.4724560000000 1.0
C      1  0.4590990000000  0.5725680000000  0.5271340000000 1.0
C      1  0.4798990000000  0.4810260000000  0.4592900000000 1.0
C      1  0.4612840000000  0.4433740000000  0.4494980000000 1.0
C      1  0.4975650000000  0.5417470000000  0.4896440000000 1.0
C      1  0.5415070000000  0.5078270000000  0.4289670000000 1.0
C      1  0.5363280000000  0.4099350000000  0.5174960000000 1.0
C      1  0.4707650000000  0.4981590000000  0.4838400000000 1.0
C      1  0.5090480000000  0.5422570000000  0.5277510000000 1.0
C      1  0.5600560000000  0.5243480000000  0.4441660000000 1.0
C      1  0.5098860000000  0.4138670000000  0.5307570000000 1.0
C      1  0.5334380000000  0.4554710000000  0.5533700000000 1.0
C      1  0.5564870000000  0.5587770000000  0.4784230000000 1.0
C      1  0.5280650000000  0.4777310000000  0.5743780000000 1.0
C      1  0.5083090000000  0.5526810000000  0.4233680000000 1.0
C      1  0.4845460000000  0.5745380000000  0.5655680000000 1.0
C      1  0.4224870000000  0.5237620000000  0.4880080000000 1.0
C      1  0.5318800000000  0.5741190000000  0.5038800000000 1.0
C      1  0.4615630000000  0.5271860000000  0.5083110000000 1.0
C      1  0.5248240000000  0.4996600000000  0.4535480000000 1.0
C      1  0.4448780000000  0.5191080000000  0.4426740000000 1.0
C      1  0.4276200000000  0.4948770000000  0.4926590000000 1.0
C      1  0.4306010000000  0.5013040000000  0.5451340000000 1.0
C      1  0.5641630000000  0.5123310000000  0.4701280000000 1.0
C      1  0.4907380000000  0.4520680000000  0.5418370000000 1.0
C      1  0.4685830000000  0.5840390000000  0.4850640000000 1.0
C      1  0.5295530000000  0.4716160000000  0.4269510000000 1.0
C      1  0.5218130000000  0.5542480000000  0.4481420000000 1.0
C      1  0.5581780000000  0.5337360000000  0.5171710000000 1.0
C      1  0.4488510000000  0.5109890000000  0.5693570000000 1.0
C      1  0.5163740000000  0.5180170000000  0.4921320000000 1.0
C      1  0.4699460000000  0.4697510000000  0.5830480000000 1.0
C      1  0.4417870000000  0.5404560000000  0.5626920000000 1.0
C      1  0.4994760000000  0.4589080000000  0.4698290000000 1.0
C      1  0.4332740000000  0.5371170000000  0.5122820000000 1.0
C      1  0.5268070000000  0.5305030000000  0.5709720000000 1.0
C      1  0.5634820000000  0.4616010000000  0.4608900000000 1.0
C      1  0.5683170000000  0.5347640000000  0.4890810000000 1.0
C      1  0.5796510000000  0.4951640000000  0.5464740000000 1.0
C      1  0.5115690000000  0.4336580000000  0.5538350000000 1.0
C      1  0.4661830000000  0.4583900000000  0.5566120000000 1.0
C      1  0.5813980000000  0.4675370000000  0.5399490000000 1.0
C      1  0.5282770000000  0.5556910000000  0.5489690000000 1.0
C      1  0.4886160000000  0.4898330000000  0.5237030000000 1.0
C      1  0.4226910000000  0.5300030000000  0.5394410000000 1.0
C      1  0.4968200000000  0.4403680000000  0.4448920000000 1.0
C      1  0.5461530000000  0.4504420000000  0.4395660000000 1.0
C      1  0.5883730000000  0.4617230000000  0.5115020000000 1.0
C      1  0.4993400000000  0.4865090000000  0.5653990000000 1.0
C      1  0.5089500000000  0.5795040000000  0.5511600000000 1.0
C      1  0.4403650000000  0.4370410000000  0.5004300000000 1.0
C      1  0.4558860000000  0.4682430000000  0.4312700000000 1.0
C      1  0.4353010000000  0.5374060000000  0.4646160000000 1.0
C      1  0.4437750000000  0.4427770000000  0.5463840000000 1.0
C      1  0.5280340000000  0.4721600000000  0.4721270000000 1.0
C      1  0.4952250000000  0.5054900000000  0.4481210000000 1.0
C      1  0.5300090000000  0.5214440000000  0.5177040000000 1.0
C      1  0.5099630000000  0.5653810000000  0.4734270000000 1.0
C      1  0.5776070000000  0.4861750000000  0.4703730000000 1.0
C      1  0.4695920000000  0.4672460000000  0.5133530000000 1.0
C      1  0.4590690000000  0.4215600000000  0.5185040000000 1.0
C      1  0.4799960000000  0.4776140000000  0.4150370000000 1.0
C      1  0.4359560000000  0.5660040000000  0.5092420000000 1.0
C      1  0.4712010000000  0.5123450000000  0.5311900000000 1.0
C      1  0.5354870000000  0.4016800000000  0.4907490000000 1.0
C      1  0.4392700000000  0.4898760000000  0.4447800000000 1.0
C      1  0.4347470000000  0.4834460000000  0.5197420000000 1.0
C      1  0.4992550000000  0.4946660000000  0.4962800000000 1.0
C      1  0.5261780000000  0.4289690000000  0.4468670000000 1.0
C      1  0.5334090000000  0.4097830000000  0.4654580000000 1.0
C      1  0.5300180000000  0.4987360000000  0.5355410000000 1.0
C      1  0.4982440000000  0.5187370000000  0.5699760000000 1.0
C      1  0.5929390000000  0.4828290000000  0.4936080000000 1.0
END
