TITL C-951336-9012-451 1.3874016547827e-06 125000 -1103.47671926912 0 0 175 (C1) n - 1
REM
REM in /home/bkarasulu/work/CARBON/AIRSS/Generating-Clusters/EDIP-Nigel-Params/with-SteepDescent/Only-C1/SD-CG/HFTN-CG
REM
REM
REM
REM
REM
REM ./C.cell (11c1c37f851c82e70ff6c80c92926a4b)
REM
REM compiler GCC version 9.2.1 20190827 (Red Hat 9.2.1-1)
REM options -cpp -mtune=generic -march=x86-64 -g -O0 -fpre-include=/usr/include/finclude/math-vector-fortran.h
REM seed -2075259486 -2103951137 1076878470 208661602 -1762139581 436303510 -519019977 -114937145 -1741157693 401550761 18398864 424650604 1674543419 -2064406269 1413445839 -441302707 -752892663 935279545 303770995 -1707139863 -1780801117 -1512489285 286835417 277091999 -621835952 758643475 -329552694 -1537149424 -2066806858 755800470 -1100588370 912113053 470624997
REM
CELL 1.54180   50.00000   50.00000   50.00000   90.00000   90.00000   90.00000
LATT -1
SFAC C  
C      1  0.5904690000000  0.4607160000000  0.5402290000000 1.0
C      1  0.4838930000000  0.5560460000000  0.4558010000000 1.0
C      1  0.5268730000000  0.3962610000000  0.4988840000000 1.0
C      1  0.4785940000000  0.5165770000000  0.4905470000000 1.0
C      1  0.5564820000000  0.4248930000000  0.5223940000000 1.0
C      1  0.4695130000000  0.4498020000000  0.5845630000000 1.0
C      1  0.4979450000000  0.5043340000000  0.4674940000000 1.0
C      1  0.5468140000000  0.5941680000000  0.4756430000000 1.0
C      1  0.4647520000000  0.5369410000000  0.5279460000000 1.0
C      1  0.3910640000000  0.4606120000000  0.5145820000000 1.0
C      1  0.6174550000000  0.5370780000000  0.4847840000000 1.0
C      1  0.4380120000000  0.4941000000000  0.4922160000000 1.0
C      1  0.5600770000000  0.4852410000000  0.4905400000000 1.0
C      1  0.4955890000000  0.6039570000000  0.4748880000000 1.0
C      1  0.5341780000000  0.4167900000000  0.5412270000000 1.0
C      1  0.5212220000000  0.5348480000000  0.6063650000000 1.0
C      1  0.4846960000000  0.4961480000000  0.5148570000000 1.0
C      1  0.5154870000000  0.5026410000000  0.5158520000000 1.0
C      1  0.5329730000000  0.4655640000000  0.4746030000000 1.0
C      1  0.4116230000000  0.5259000000000  0.5555500000000 1.0
C      1  0.4838920000000  0.5923140000000  0.5209560000000 1.0
C      1  0.4074570000000  0.4813680000000  0.4270180000000 1.0
C      1  0.5012490000000  0.5475740000000  0.5698850000000 1.0
C      1  0.6015360000000  0.4835700000000  0.5233940000000 1.0
C      1  0.5779880000000  0.4537510000000  0.4423540000000 1.0
C      1  0.4200350000000  0.4017440000000  0.4754920000000 1.0
C      1  0.4898290000000  0.3949120000000  0.5381670000000 1.0
C      1  0.5559600000000  0.4960430000000  0.4365140000000 1.0
C      1  0.4748710000000  0.5513220000000  0.5521890000000 1.0
C      1  0.4393500000000  0.4919800000000  0.5857280000000 1.0
C      1  0.5321960000000  0.5546930000000  0.4866400000000 1.0
C      1  0.5201300000000  0.5972390000000  0.4884890000000 1.0
C      1  0.5926800000000  0.5169510000000  0.4478880000000 1.0
C      1  0.4339570000000  0.4776810000000  0.4687740000000 1.0
C      1  0.6128340000000  0.5127980000000  0.4685120000000 1.0
C      1  0.5463410000000  0.5289320000000  0.5944490000000 1.0
C      1  0.4651810000000  0.5041320000000  0.5784540000000 1.0
C      1  0.5611610000000  0.5463540000000  0.5224230000000 1.0
C      1  0.4982960000000  0.4275210000000  0.4513830000000 1.0
C      1  0.5263350000000  0.5313720000000  0.4423910000000 1.0
C      1  0.5631200000000  0.5600740000000  0.4359580000000 1.0
C      1  0.5479950000000  0.5020540000000  0.5846940000000 1.0
C      1  0.6015070000000  0.5583140000000  0.4708340000000 1.0
C      1  0.4205650000000  0.5578010000000  0.4894580000000 1.0
C      1  0.4775880000000  0.5424170000000  0.4023690000000 1.0
C      1  0.4652540000000  0.5075460000000  0.5347800000000 1.0
C      1  0.4555190000000  0.4386020000000  0.5260890000000 1.0
C      1  0.4266000000000  0.4319640000000  0.4380370000000 1.0
C      1  0.5206220000000  0.4960660000000  0.5745780000000 1.0
C      1  0.5335910000000  0.4753930000000  0.4454200000000 1.0
C      1  0.5374230000000  0.5451610000000  0.4187230000000 1.0
C      1  0.5942370000000  0.4479740000000  0.4951870000000 1.0
C      1  0.3834970000000  0.4749400000000  0.4927050000000 1.0
C      1  0.4571770000000  0.5378040000000  0.5736180000000 1.0
C      1  0.4154000000000  0.4970450000000  0.5116380000000 1.0
C      1  0.5182600000000  0.5692160000000  0.4145160000000 1.0
C      1  0.4735550000000  0.5520080000000  0.5968320000000 1.0
C      1  0.4382120000000  0.5431050000000  0.4449380000000 1.0
C      1  0.4747020000000  0.5842180000000  0.4322960000000 1.0
C      1  0.5472020000000  0.5714090000000  0.5698950000000 1.0
C      1  0.3866340000000  0.4697080000000  0.5403530000000 1.0
C      1  0.5245300000000  0.4730000000000  0.5548270000000 1.0
C      1  0.4340890000000  0.3993670000000  0.5225270000000 1.0
C      1  0.4777410000000  0.5828030000000  0.5946150000000 1.0
C      1  0.4022260000000  0.5389240000000  0.4755940000000 1.0
C      1  0.4249630000000  0.4540450000000  0.5666430000000 1.0
C      1  0.5155970000000  0.5540880000000  0.4588820000000 1.0
C      1  0.5082880000000  0.5208870000000  0.5590270000000 1.0
C      1  0.4510630000000  0.5169350000000  0.4831040000000 1.0
C      1  0.5788720000000  0.5431540000000  0.4568240000000 1.0
C      1  0.5140210000000  0.5962410000000  0.5169240000000 1.0
C      1  0.5410590000000  0.4969050000000  0.4069610000000 1.0
C      1  0.4949140000000  0.4773280000000  0.4007680000000 1.0
C      1  0.4349970000000  0.5675040000000  0.5405750000000 1.0
C      1  0.4474080000000  0.4622950000000  0.5455150000000 1.0
C      1  0.5342570000000  0.4844960000000  0.5301960000000 1.0
C      1  0.4975640000000  0.4396440000000  0.4240350000000 1.0
C      1  0.5292390000000  0.5237320000000  0.3985690000000 1.0
C      1  0.4930700000000  0.5319010000000  0.6097330000000 1.0
C      1  0.4298660000000  0.4482730000000  0.4832130000000 1.0
C      1  0.4404800000000  0.3932560000000  0.4932750000000 1.0
C      1  0.4976340000000  0.4592820000000  0.5474310000000 1.0
C      1  0.5627700000000  0.4188580000000  0.4722950000000 1.0
C      1  0.4290430000000  0.5482780000000  0.5172430000000 1.0
C      1  0.4571740000000  0.4119880000000  0.5390060000000 1.0
C      1  0.4604250000000  0.4790680000000  0.4516430000000 1.0
C      1  0.5888460000000  0.5234460000000  0.5630400000000 1.0
C      1  0.4642880000000  0.4097540000000  0.4857970000000 1.0
C      1  0.4885300000000  0.5669770000000  0.4130970000000 1.0
C      1  0.5700590000000  0.4974620000000  0.5646390000000 1.0
C      1  0.5821210000000  0.4402910000000  0.4694790000000 1.0
C      1  0.5194440000000  0.4068240000000  0.4536370000000 1.0
C      1  0.5499890000000  0.4423030000000  0.4320410000000 1.0
C      1  0.4296760000000  0.5482540000000  0.5638050000000 1.0
C      1  0.4650690000000  0.5289340000000  0.4502080000000 1.0
C      1  0.5032530000000  0.5923810000000  0.5833010000000 1.0
C      1  0.4148810000000  0.4457940000000  0.5099470000000 1.0
C      1  0.4825150000000  0.5440680000000  0.5030420000000 1.0
C      1  0.5168060000000  0.3877470000000  0.4743510000000 1.0
C      1  0.4148150000000  0.5254890000000  0.4524950000000 1.0
C      1  0.5776700000000  0.5295940000000  0.5054300000000 1.0
C      1  0.4915740000000  0.4072640000000  0.5650330000000 1.0
C      1  0.4097230000000  0.4940710000000  0.4547880000000 1.0
C      1  0.5512210000000  0.4110330000000  0.4978890000000 1.0
C      1  0.4650000000000  0.5028990000000  0.4320180000000 1.0
C      1  0.5914190000000  0.5778190000000  0.4910870000000 1.0
C      1  0.5471540000000  0.4550650000000  0.5652360000000 1.0
C      1  0.5754720000000  0.4996140000000  0.5134100000000 1.0
C      1  0.6215170000000  0.4990620000000  0.5373980000000 1.0
C      1  0.4980900000000  0.5214710000000  0.3976920000000 1.0
C      1  0.6124400000000  0.4707710000000  0.4986700000000 1.0
C      1  0.5769030000000  0.5664600000000  0.5369370000000 1.0
C      1  0.5132930000000  0.4267440000000  0.5617810000000 1.0
C      1  0.5598250000000  0.5341220000000  0.4797460000000 1.0
C      1  0.4094710000000  0.5267790000000  0.5253960000000 1.0
C      1  0.4978770000000  0.4561660000000  0.5980320000000 1.0
C      1  0.4392250000000  0.5080930000000  0.3975110000000 1.0
C      1  0.4857110000000  0.4775270000000  0.4663570000000 1.0
C      1  0.4687930000000  0.4378150000000  0.4135390000000 1.0
C      1  0.4153490000000  0.4202620000000  0.5215810000000 1.0
C      1  0.4828650000000  0.5044940000000  0.6031160000000 1.0
C      1  0.5176700000000  0.5728110000000  0.5678720000000 1.0
C      1  0.4026750000000  0.4742720000000  0.5625280000000 1.0
C      1  0.5236320000000  0.4727530000000  0.3988780000000 1.0
C      1  0.4894560000000  0.4665430000000  0.5197380000000 1.0
C      1  0.5627280000000  0.5778360000000  0.4916750000000 1.0
C      1  0.4924430000000  0.5008310000000  0.4179020000000 1.0
C      1  0.4167560000000  0.4278890000000  0.4652950000000 1.0
C      1  0.5215530000000  0.5063410000000  0.4859860000000 1.0
C      1  0.5824470000000  0.4827770000000  0.4376600000000 1.0
C      1  0.5742120000000  0.4674430000000  0.5639910000000 1.0
C      1  0.5578720000000  0.5422660000000  0.5692310000000 1.0
C      1  0.5156620000000  0.4004460000000  0.5254750000000 1.0
C      1  0.5476440000000  0.5298220000000  0.5404230000000 1.0
C      1  0.6094640000000  0.5237950000000  0.5409460000000 1.0
C      1  0.4141520000000  0.4998760000000  0.4070640000000 1.0
C      1  0.4262450000000  0.4584170000000  0.4244150000000 1.0
C      1  0.4220600000000  0.4980910000000  0.5616410000000 1.0
C      1  0.3896400000000  0.5187880000000  0.4924160000000 1.0
C      1  0.4740330000000  0.5928350000000  0.4923330000000 1.0
C      1  0.5495810000000  0.5865360000000  0.4464430000000 1.0
C      1  0.5027980000000  0.4536520000000  0.4724970000000 1.0
C      1  0.5811330000000  0.4408070000000  0.5209680000000 1.0
C      1  0.4891240000000  0.4468540000000  0.4982050000000 1.0
C      1  0.4729260000000  0.4697810000000  0.5618630000000 1.0
C      1  0.4407800000000  0.4619350000000  0.5909650000000 1.0
C      1  0.5249470000000  0.4474800000000  0.4139000000000 1.0
C      1  0.4415160000000  0.5625000000000  0.4699380000000 1.0
C      1  0.6060030000000  0.5398680000000  0.5134150000000 1.0
C      1  0.5207440000000  0.5804070000000  0.4420760000000 1.0
C      1  0.4670980000000  0.5955990000000  0.5703560000000 1.0
C      1  0.4390810000000  0.4912700000000  0.5365020000000 1.0
C      1  0.4603510000000  0.4376420000000  0.4960230000000 1.0
C      1  0.4539420000000  0.4211700000000  0.4336880000000 1.0
C      1  0.5459720000000  0.4176470000000  0.4488170000000 1.0
C      1  0.5127780000000  0.5041490000000  0.4407880000000 1.0
C      1  0.4964980000000  0.5976380000000  0.4461970000000 1.0
C      1  0.4649440000000  0.5799810000000  0.5452330000000 1.0
C      1  0.5572260000000  0.5014560000000  0.5370050000000 1.0
C      1  0.5359130000000  0.5958320000000  0.5346190000000 1.0
C      1  0.4697350000000  0.5648610000000  0.4819860000000 1.0
C      1  0.4664070000000  0.4210840000000  0.5720050000000 1.0
C      1  0.4488930000000  0.4594520000000  0.4054120000000 1.0
C      1  0.5119120000000  0.5487650000000  0.5103750000000 1.0
C      1  0.4498350000000  0.5334260000000  0.4094980000000 1.0
C      1  0.6012680000000  0.5703140000000  0.5186300000000 1.0
C      1  0.4719980000000  0.4128750000000  0.4561690000000 1.0
C      1  0.5048570000000  0.4855740000000  0.5986130000000 1.0
C      1  0.4577330000000  0.4851390000000  0.3945850000000 1.0
C      1  0.5206680000000  0.4402920000000  0.5874250000000 1.0
C      1  0.5189290000000  0.5279860000000  0.5317420000000 1.0
C      1  0.5594810000000  0.5884050000000  0.5489160000000 1.0
C      1  0.3865880000000  0.4951390000000  0.4748130000000 1.0
C      1  0.6198130000000  0.4874460000000  0.4777580000000 1.0
C      1  0.5483620000000  0.5064220000000  0.4731690000000 1.0
END
