TITL C-951333-8791-350 1.95270009561069e-06 125000 -399.005544023892 0 0 66 (C1) n - 1
REM
REM in /home/bkarasulu/work/CARBON/AIRSS/Generating-Clusters/EDIP-Nigel-Params/with-SteepDescent/Only-C1/SD-CG/HFTN-CG
REM
REM
REM
REM
REM
REM ./C.cell (11c1c37f851c82e70ff6c80c92926a4b)
REM
REM compiler GCC version 9.2.1 20190827 (Red Hat 9.2.1-1)
REM options -cpp -mtune=generic -march=x86-64 -g -O0 -fpre-include=/usr/include/finclude/math-vector-fortran.h
REM seed -559743137 -104139357 953776981 954258367 1274513953 -461622674 188723731 -316255739 1552984213 -2050472896 1420825731 -450685715 143616302 -1456633671 -1074487461 17702871 838251898 323205363 1691774241 253049482 -433828074 622080714 838924580 -562290541 -421072936 1671634493 856129432 -623871094 615914217 352045710 842193163 -536748724 1788423528
REM
CELL 1.54180   50.00000   50.00000   50.00000   90.00000   90.00000   90.00000
LATT -1
SFAC C  
C      1  0.5041060000000  0.5171950000000  0.4383040000000 1.0
C      1  0.4945460000000  0.5886370000000  0.5064080000000 1.0
C      1  0.5136840000000  0.5871610000000  0.5283970000000 1.0
C      1  0.4851930000000  0.4769840000000  0.4569190000000 1.0
C      1  0.4838790000000  0.5300050000000  0.5159160000000 1.0
C      1  0.4693580000000  0.5411480000000  0.4567550000000 1.0
C      1  0.5510000000000  0.5194480000000  0.4368750000000 1.0
C      1  0.5578690000000  0.5229180000000  0.5316370000000 1.0
C      1  0.4735020000000  0.4321030000000  0.4608310000000 1.0
C      1  0.4941230000000  0.5693730000000  0.4846630000000 1.0
C      1  0.5652330000000  0.5269150000000  0.4826180000000 1.0
C      1  0.4531200000000  0.5671370000000  0.5266170000000 1.0
C      1  0.4697140000000  0.5043420000000  0.5121250000000 1.0
C      1  0.5409450000000  0.4493170000000  0.5083450000000 1.0
C      1  0.4397970000000  0.4476700000000  0.4904910000000 1.0
C      1  0.5312450000000  0.4231780000000  0.5009580000000 1.0
C      1  0.5216840000000  0.5455270000000  0.5558030000000 1.0
C      1  0.4455510000000  0.4911660000000  0.5469090000000 1.0
C      1  0.4625720000000  0.5339190000000  0.5588150000000 1.0
C      1  0.4417750000000  0.4691390000000  0.4697760000000 1.0
C      1  0.4463950000000  0.5558240000000  0.5016580000000 1.0
C      1  0.5155660000000  0.5577630000000  0.4642280000000 1.0
C      1  0.4227420000000  0.5152710000000  0.4831190000000 1.0
C      1  0.5311250000000  0.5756340000000  0.5084350000000 1.0
C      1  0.4901930000000  0.4545860000000  0.5062470000000 1.0
C      1  0.4588210000000  0.5140390000000  0.4508970000000 1.0
C      1  0.4688590000000  0.5546960000000  0.4823660000000 1.0
C      1  0.5581180000000  0.5406280000000  0.5071250000000 1.0
C      1  0.4403830000000  0.4992460000000  0.4686820000000 1.0
C      1  0.5701120000000  0.4983070000000  0.5215460000000 1.0
C      1  0.5757840000000  0.4769810000000  0.4777040000000 1.0
C      1  0.4782890000000  0.4315330000000  0.5202500000000 1.0
C      1  0.5181910000000  0.4187360000000  0.4777270000000 1.0
C      1  0.5133920000000  0.5237950000000  0.5137230000000 1.0
C      1  0.5461450000000  0.5347010000000  0.4615410000000 1.0
C      1  0.4627570000000  0.4584920000000  0.4522090000000 1.0
C      1  0.5349580000000  0.4513580000000  0.5558120000000 1.0
C      1  0.5543180000000  0.4511430000000  0.5353000000000 1.0
C      1  0.5586840000000  0.4581020000000  0.4874520000000 1.0
C      1  0.4878050000000  0.4684810000000  0.5570110000000 1.0
C      1  0.5036710000000  0.4333650000000  0.4586210000000 1.0
C      1  0.4522120000000  0.4338190000000  0.5326510000000 1.0
C      1  0.4262930000000  0.5347540000000  0.5025750000000 1.0
C      1  0.5283990000000  0.5221230000000  0.5408460000000 1.0
C      1  0.5103560000000  0.4614730000000  0.4524860000000 1.0
C      1  0.4813470000000  0.4997210000000  0.4386330000000 1.0
C      1  0.5297450000000  0.5473360000000  0.4991520000000 1.0
C      1  0.4610700000000  0.5072040000000  0.5668780000000 1.0
C      1  0.5209060000000  0.4980770000000  0.5564410000000 1.0
C      1  0.4641120000000  0.4691550000000  0.5382730000000 1.0
C      1  0.4607720000000  0.4278190000000  0.4866340000000 1.0
C      1  0.4845970000000  0.4864140000000  0.4900620000000 1.0
C      1  0.4724650000000  0.5488530000000  0.5371060000000 1.0
C      1  0.4420940000000  0.5049650000000  0.5215150000000 1.0
C      1  0.5138670000000  0.4961240000000  0.4993020000000 1.0
C      1  0.5336590000000  0.4718540000000  0.4409690000000 1.0
C      1  0.5156560000000  0.4708140000000  0.5456320000000 1.0
C      1  0.4354190000000  0.4520410000000  0.5184730000000 1.0
C      1  0.5270320000000  0.5124660000000  0.4222960000000 1.0
C      1  0.5100080000000  0.5689080000000  0.5493110000000 1.0
C      1  0.5707060000000  0.5001700000000  0.4927770000000 1.0
C      1  0.4866010000000  0.4936050000000  0.5717660000000 1.0
C      1  0.4966390000000  0.5436660000000  0.4458600000000 1.0
C      1  0.5543280000000  0.4903080000000  0.4392520000000 1.0
C      1  0.5701230000000  0.4740600000000  0.5356900000000 1.0
C      1  0.5163940000000  0.4683070000000  0.5146040000000 1.0
END
