TITL C-951343-2256-604 -4.25790767141071e-06 125000 -1143.44386885629 0 0 182 (C1) n - 1
REM
REM in /home/bkarasulu/work/CARBON/AIRSS/Generating-Clusters/EDIP-Nigel-Params/with-SteepDescent/Only-C1/SD-CG/HFTN-CG
REM
REM
REM
REM
REM
REM ./C.cell (11c1c37f851c82e70ff6c80c92926a4b)
REM
REM compiler GCC version 9.2.1 20190827 (Red Hat 9.2.1-1)
REM options -cpp -mtune=generic -march=x86-64 -g -O0 -fpre-include=/usr/include/finclude/math-vector-fortran.h
REM seed 1780762844 -1040432588 -312012314 2028896047 -2064657266 -842188827 -1838503600 768335713 -1018185667 -2114674420 1276441982 474202786 -117002207 -1607121392 266034616 663362251 -1208235505 1309868488 -39863349 -453335564 -902121710 282477632 -1543074096 -623033330 -1906062870 1675933823 1289477411 394638844 1822345351 -852620841 -186936406 1132521929 -851766377
REM
CELL 1.54180   50.00000   50.00000   50.00000   90.00000   90.00000   90.00000
LATT -1
SFAC C  
C      1  0.4932800000000  0.5273740000000  0.5348350000000 1.0
C      1  0.5790810000000  0.4966910000000  0.4315600000000 1.0
C      1  0.5151260000000  0.4327780000000  0.4115670000000 1.0
C      1  0.5852010000000  0.4536450000000  0.4558120000000 1.0
C      1  0.5876100000000  0.4764340000000  0.5113980000000 1.0
C      1  0.4913920000000  0.6036190000000  0.5012890000000 1.0
C      1  0.5225330000000  0.4432180000000  0.5038680000000 1.0
C      1  0.4427980000000  0.4342380000000  0.5655170000000 1.0
C      1  0.4510480000000  0.5042660000000  0.5430270000000 1.0
C      1  0.5684690000000  0.4422300000000  0.4345400000000 1.0
C      1  0.4532770000000  0.5872740000000  0.4237760000000 1.0
C      1  0.4879240000000  0.5197570000000  0.4799460000000 1.0
C      1  0.4768360000000  0.4005180000000  0.5300870000000 1.0
C      1  0.4734370000000  0.4405150000000  0.4888190000000 1.0
C      1  0.4262720000000  0.5216110000000  0.5521780000000 1.0
C      1  0.5420540000000  0.3946290000000  0.4864050000000 1.0
C      1  0.5995730000000  0.4794180000000  0.5595220000000 1.0
C      1  0.4149820000000  0.5627460000000  0.4856280000000 1.0
C      1  0.5402820000000  0.6001380000000  0.5625480000000 1.0
C      1  0.4755010000000  0.5159470000000  0.5553630000000 1.0
C      1  0.4763910000000  0.5773620000000  0.4080720000000 1.0
C      1  0.5355220000000  0.5284930000000  0.5128400000000 1.0
C      1  0.5288880000000  0.4643790000000  0.5741250000000 1.0
C      1  0.5496200000000  0.3930820000000  0.5159430000000 1.0
C      1  0.4523850000000  0.4519140000000  0.5073710000000 1.0
C      1  0.4193130000000  0.5049540000000  0.5877400000000 1.0
C      1  0.4225740000000  0.4599290000000  0.4233420000000 1.0
C      1  0.5383040000000  0.5275470000000  0.4104010000000 1.0
C      1  0.4174050000000  0.5435970000000  0.5323360000000 1.0
C      1  0.4447020000000  0.4806360000000  0.4953390000000 1.0
C      1  0.5481060000000  0.6092230000000  0.5142020000000 1.0
C      1  0.4783530000000  0.5760340000000  0.5545520000000 1.0
C      1  0.5753810000000  0.5612980000000  0.5129360000000 1.0
C      1  0.4402930000000  0.3900370000000  0.4765150000000 1.0
C      1  0.5503440000000  0.5048770000000  0.5500170000000 1.0
C      1  0.5166390000000  0.5773110000000  0.5297230000000 1.0
C      1  0.5272200000000  0.6057470000000  0.5363050000000 1.0
C      1  0.5153500000000  0.4025190000000  0.5570200000000 1.0
C      1  0.4350770000000  0.4267370000000  0.5386770000000 1.0
C      1  0.4408530000000  0.4111240000000  0.4949640000000 1.0
C      1  0.4462100000000  0.4621490000000  0.4069240000000 1.0
C      1  0.4140290000000  0.4406960000000  0.5233630000000 1.0
C      1  0.4957270000000  0.4827850000000  0.4084780000000 1.0
C      1  0.5662280000000  0.4493230000000  0.5489030000000 1.0
C      1  0.4185950000000  0.4988410000000  0.4444030000000 1.0
C      1  0.5714000000000  0.5235250000000  0.4389420000000 1.0
C      1  0.4766270000000  0.5530230000000  0.3906690000000 1.0
C      1  0.4269300000000  0.5174690000000  0.4229170000000 1.0
C      1  0.4200760000000  0.4329360000000  0.4954420000000 1.0
C      1  0.5262420000000  0.5723190000000  0.5025880000000 1.0
C      1  0.5830490000000  0.5414490000000  0.5324710000000 1.0
C      1  0.4137670000000  0.4798770000000  0.4960920000000 1.0
C      1  0.5917090000000  0.4829510000000  0.4557840000000 1.0
C      1  0.5615070000000  0.4650660000000  0.5226910000000 1.0
C      1  0.4639350000000  0.4436290000000  0.4431690000000 1.0
C      1  0.4028850000000  0.5050720000000  0.5612450000000 1.0
C      1  0.5246250000000  0.5717920000000  0.4126500000000 1.0
C      1  0.5216080000000  0.4979100000000  0.6105180000000 1.0
C      1  0.4658110000000  0.5395110000000  0.4670260000000 1.0
C      1  0.4341150000000  0.5382040000000  0.4538080000000 1.0
C      1  0.4413270000000  0.4848440000000  0.4585700000000 1.0
C      1  0.4660320000000  0.4895640000000  0.4433020000000 1.0
C      1  0.5981180000000  0.4465550000000  0.5055640000000 1.0
C      1  0.5037360000000  0.6002230000000  0.4424110000000 1.0
C      1  0.5523920000000  0.4435440000000  0.5030110000000 1.0
C      1  0.4847690000000  0.5096900000000  0.5091970000000 1.0
C      1  0.5279040000000  0.5738250000000  0.5733200000000 1.0
C      1  0.5068500000000  0.5593740000000  0.4843250000000 1.0
C      1  0.5131340000000  0.5117120000000  0.4650770000000 1.0
C      1  0.5364930000000  0.4416910000000  0.5556490000000 1.0
C      1  0.5976870000000  0.4938140000000  0.5356470000000 1.0
C      1  0.5299200000000  0.5577000000000  0.5482170000000 1.0
C      1  0.4589390000000  0.5636150000000  0.4881280000000 1.0
C      1  0.4075450000000  0.5108890000000  0.4918770000000 1.0
C      1  0.4306810000000  0.5929360000000  0.5227890000000 1.0
C      1  0.4870090000000  0.4640340000000  0.4783370000000 1.0
C      1  0.5005720000000  0.3936380000000  0.5114200000000 1.0
C      1  0.4639190000000  0.4389890000000  0.4133610000000 1.0
C      1  0.5703500000000  0.5906150000000  0.5250580000000 1.0
C      1  0.4869610000000  0.5337690000000  0.6092980000000 1.0
C      1  0.5717180000000  0.5695170000000  0.5992230000000 1.0
C      1  0.4136690000000  0.4541390000000  0.4746660000000 1.0
C      1  0.4651370000000  0.4833160000000  0.5917160000000 1.0
C      1  0.5256460000000  0.5600230000000  0.4595820000000 1.0
C      1  0.4381190000000  0.5517390000000  0.5793840000000 1.0
C      1  0.5905880000000  0.5443270000000  0.4428350000000 1.0
C      1  0.5193350000000  0.3757410000000  0.4754440000000 1.0
C      1  0.5260260000000  0.5490070000000  0.3962040000000 1.0
C      1  0.5940620000000  0.5592500000000  0.4887550000000 1.0
C      1  0.5282190000000  0.6001680000000  0.4889410000000 1.0
C      1  0.4561060000000  0.5343000000000  0.3896560000000 1.0
C      1  0.5262180000000  0.4517530000000  0.6008210000000 1.0
C      1  0.4728210000000  0.4225880000000  0.4628870000000 1.0
C      1  0.5024400000000  0.4161640000000  0.4604290000000 1.0
C      1  0.4102060000000  0.5184160000000  0.4640360000000 1.0
C      1  0.4377250000000  0.5658650000000  0.5337440000000 1.0
C      1  0.4978250000000  0.5752190000000  0.5789320000000 1.0
C      1  0.5757200000000  0.5695840000000  0.5718320000000 1.0
C      1  0.4267750000000  0.4560090000000  0.5767410000000 1.0
C      1  0.5370990000000  0.4435740000000  0.3980580000000 1.0
C      1  0.5025020000000  0.5147390000000  0.3727780000000 1.0
C      1  0.6077130000000  0.5094340000000  0.4795920000000 1.0
C      1  0.4611000000000  0.5230750000000  0.6079700000000 1.0
C      1  0.4370010000000  0.5887920000000  0.4484660000000 1.0
C      1  0.5141230000000  0.4936570000000  0.3875260000000 1.0
C      1  0.5206130000000  0.4333780000000  0.4409590000000 1.0
C      1  0.4958580000000  0.4659910000000  0.5369100000000 1.0
C      1  0.4814640000000  0.5532750000000  0.4446770000000 1.0
C      1  0.5487270000000  0.4973250000000  0.6011990000000 1.0
C      1  0.5518270000000  0.4848930000000  0.5750360000000 1.0
C      1  0.4602010000000  0.3958720000000  0.4583020000000 1.0
C      1  0.4455570000000  0.5983120000000  0.4772240000000 1.0
C      1  0.4489230000000  0.5698240000000  0.5609490000000 1.0
C      1  0.4849510000000  0.5786140000000  0.4827740000000 1.0
C      1  0.4593330000000  0.5552270000000  0.5163090000000 1.0
C      1  0.3984270000000  0.4820460000000  0.5465820000000 1.0
C      1  0.6095110000000  0.5358590000000  0.4874020000000 1.0
C      1  0.5456310000000  0.5619270000000  0.5940910000000 1.0
C      1  0.5828670000000  0.4357100000000  0.4795120000000 1.0
C      1  0.5766260000000  0.4677650000000  0.5700330000000 1.0
C      1  0.4832900000000  0.4666960000000  0.4496900000000 1.0
C      1  0.5231550000000  0.3912570000000  0.5306280000000 1.0
C      1  0.5038960000000  0.3872970000000  0.4532220000000 1.0
C      1  0.4801990000000  0.6009520000000  0.5354900000000 1.0
C      1  0.5002930000000  0.3687780000000  0.4958140000000 1.0
C      1  0.4495910000000  0.4073220000000  0.5224390000000 1.0
C      1  0.5116330000000  0.4701710000000  0.4920810000000 1.0
C      1  0.4522430000000  0.4761150000000  0.5555100000000 1.0
C      1  0.5108010000000  0.4172440000000  0.4909260000000 1.0
C      1  0.4774200000000  0.4362730000000  0.5989260000000 1.0
C      1  0.5089730000000  0.4701310000000  0.6132900000000 1.0
C      1  0.5152530000000  0.4436450000000  0.5327620000000 1.0
C      1  0.5587380000000  0.4562870000000  0.4108850000000 1.0
C      1  0.4861820000000  0.4089960000000  0.5565390000000 1.0
C      1  0.4630850000000  0.4874910000000  0.4129290000000 1.0
C      1  0.5142940000000  0.5089530000000  0.4344030000000 1.0
C      1  0.4135130000000  0.5381390000000  0.5036320000000 1.0
C      1  0.5437120000000  0.5030420000000  0.5036170000000 1.0
C      1  0.4337620000000  0.4566020000000  0.4504140000000 1.0
C      1  0.5575690000000  0.4842060000000  0.4158970000000 1.0
C      1  0.4875950000000  0.4987000000000  0.5760000000000 1.0
C      1  0.5487090000000  0.5520140000000  0.5011770000000 1.0
C      1  0.4843130000000  0.5558830000000  0.5309160000000 1.0
C      1  0.5310020000000  0.4915670000000  0.4785850000000 1.0
C      1  0.5522560000000  0.5470290000000  0.4715410000000 1.0
C      1  0.5253370000000  0.5290420000000  0.5409590000000 1.0
C      1  0.4634320000000  0.6172980000000  0.4941500000000 1.0
C      1  0.4475150000000  0.5120850000000  0.4042050000000 1.0
C      1  0.5028170000000  0.5898320000000  0.4144750000000 1.0
C      1  0.4894470000000  0.5601630000000  0.6007190000000 1.0
C      1  0.5682000000000  0.5922170000000  0.5552400000000 1.0
C      1  0.5041580000000  0.4776020000000  0.5627780000000 1.0
C      1  0.4340250000000  0.4788480000000  0.5933810000000 1.0
C      1  0.5433420000000  0.4870530000000  0.5269010000000 1.0
C      1  0.4782100000000  0.3761480000000  0.4500600000000 1.0
C      1  0.5009870000000  0.4849780000000  0.5147800000000 1.0
C      1  0.4799050000000  0.5837640000000  0.4520490000000 1.0
C      1  0.5822710000000  0.4958530000000  0.4836070000000 1.0
C      1  0.5279910000000  0.5913510000000  0.4579460000000 1.0
C      1  0.4664800000000  0.4577330000000  0.5361560000000 1.0
C      1  0.5594300000000  0.4144370000000  0.4708230000000 1.0
C      1  0.5647760000000  0.4192350000000  0.5168280000000 1.0
C      1  0.5906980000000  0.4281560000000  0.5276510000000 1.0
C      1  0.5784420000000  0.5597270000000  0.4636170000000 1.0
C      1  0.5568030000000  0.5168410000000  0.4644440000000 1.0
C      1  0.4208580000000  0.5644280000000  0.4560820000000 1.0
C      1  0.4558560000000  0.5028840000000  0.5130140000000 1.0
C      1  0.5099260000000  0.5452980000000  0.4369060000000 1.0
C      1  0.5043670000000  0.5155860000000  0.5945350000000 1.0
C      1  0.4374920000000  0.5282330000000  0.5942200000000 1.0
C      1  0.5790180000000  0.5158370000000  0.5438710000000 1.0
C      1  0.5018030000000  0.5412870000000  0.3820740000000 1.0
C      1  0.5405590000000  0.5014060000000  0.3994550000000 1.0
C      1  0.5492390000000  0.4233500000000  0.4449770000000 1.0
C      1  0.4546440000000  0.6122040000000  0.5231780000000 1.0
C      1  0.5348470000000  0.4168610000000  0.5709810000000 1.0
C      1  0.4235060000000  0.5892790000000  0.4946870000000 1.0
C      1  0.5090480000000  0.4704330000000  0.4335590000000 1.0
C      1  0.4072000000000  0.4690380000000  0.5236670000000 1.0
C      1  0.4803240000000  0.4628770000000  0.6075610000000 1.0
C      1  0.4687450000000  0.4244170000000  0.5752800000000 1.0
C      1  0.4896080000000  0.4396250000000  0.4029480000000 1.0
END
