TITL C-951340-9809-624 -2.2283493052676e-06 125000 -261.569045665983 0 0 44 (C1) n - 1
REM
REM in /home/bkarasulu/work/CARBON/AIRSS/Generating-Clusters/EDIP-Nigel-Params/with-SteepDescent/Only-C1/SD-CG/HFTN-CG
REM
REM
REM
REM
REM
REM ./C.cell (11c1c37f851c82e70ff6c80c92926a4b)
REM
REM compiler GCC version 9.2.1 20190827 (Red Hat 9.2.1-1)
REM options -cpp -mtune=generic -march=x86-64 -g -O0 -fpre-include=/usr/include/finclude/math-vector-fortran.h
REM seed -2110670396 489520492 713743674 -2092524722 -144948185 -1054022255 751382747 -227821942 -929737028 -2040025083 -255637615 198382842 -1215027500 -1212560710 -2029434946 721120262 1326375412 -868050297 -680102619 790091939 1991920651 -1684064540 -266746235 143499098 1841191032 -511593812 898846467 1035301594 -1555329011 434755591 1923887076 -894995873 -673900872
REM
CELL 1.54180   50.00000   50.00000   50.00000   90.00000   90.00000   90.00000
LATT -1
SFAC C  
C      1  0.4893820000000  0.4801810000000  0.4895810000000 1.0
C      1  0.5279500000000  0.4472340000000  0.4718490000000 1.0
C      1  0.4556060000000  0.4952600000000  0.5512630000000 1.0
C      1  0.5329670000000  0.5057650000000  0.5647810000000 1.0
C      1  0.4582950000000  0.5573490000000  0.4807670000000 1.0
C      1  0.5443140000000  0.4683660000000  0.4681850000000 1.0
C      1  0.4921800000000  0.4526050000000  0.5029170000000 1.0
C      1  0.4502030000000  0.5101470000000  0.4885350000000 1.0
C      1  0.5310510000000  0.5052210000000  0.4446480000000 1.0
C      1  0.4960640000000  0.4704100000000  0.5507020000000 1.0
C      1  0.5104660000000  0.5398180000000  0.5290150000000 1.0
C      1  0.4559680000000  0.4511930000000  0.5330110000000 1.0
C      1  0.4566650000000  0.5318090000000  0.4681040000000 1.0
C      1  0.5529280000000  0.4643950000000  0.5152310000000 1.0
C      1  0.5428930000000  0.5107480000000  0.4925930000000 1.0
C      1  0.5047440000000  0.5050180000000  0.5663390000000 1.0
C      1  0.4986530000000  0.5555110000000  0.5071980000000 1.0
C      1  0.4702940000000  0.5509290000000  0.5054950000000 1.0
C      1  0.4963990000000  0.5046360000000  0.5057720000000 1.0
C      1  0.5342830000000  0.4492100000000  0.5278320000000 1.0
C      1  0.4925700000000  0.5265820000000  0.5499380000000 1.0
C      1  0.5068040000000  0.4529440000000  0.5293210000000 1.0
C      1  0.5542110000000  0.5562950000000  0.5195950000000 1.0
C      1  0.4650290000000  0.5194190000000  0.5410000000000 1.0
C      1  0.4668020000000  0.4698970000000  0.5505970000000 1.0
C      1  0.4832150000000  0.4850380000000  0.4383610000000 1.0
C      1  0.4611610000000  0.4827780000000  0.4800890000000 1.0
C      1  0.5071000000000  0.4893330000000  0.4561800000000 1.0
C      1  0.5266860000000  0.5332490000000  0.4420670000000 1.0
C      1  0.5064970000000  0.4363930000000  0.4839850000000 1.0
C      1  0.5396530000000  0.5339630000000  0.5243810000000 1.0
C      1  0.5494830000000  0.4960290000000  0.4663310000000 1.0
C      1  0.4475550000000  0.4594240000000  0.4876410000000 1.0
C      1  0.4688440000000  0.5214940000000  0.5110960000000 1.0
C      1  0.5484670000000  0.5203970000000  0.5478060000000 1.0
C      1  0.4631830000000  0.4451380000000  0.5068210000000 1.0
C      1  0.4791920000000  0.5114670000000  0.4296960000000 1.0
C      1  0.5138170000000  0.5159230000000  0.4834960000000 1.0
C      1  0.5124500000000  0.5542000000000  0.4815200000000 1.0
C      1  0.5427120000000  0.4908010000000  0.5154640000000 1.0
C      1  0.4604300000000  0.4757240000000  0.4529630000000 1.0
C      1  0.4822350000000  0.5260690000000  0.4541900000000 1.0
C      1  0.5161760000000  0.4958580000000  0.5289940000000 1.0
C      1  0.5044270000000  0.5457780000000  0.4546480000000 1.0
END
