TITL C-950524-1808-459 -6.05125431660835e-08 125000 -521.082104321241 0 0 84 (C1) n - 1
REM
REM in /home/bkarasulu/work/CARBON/AIRSS/Generating-Clusters/EDIP-Nigel-Params/with-SteepDescent/Only-C1/SD-CG/HFTN-CG
REM
REM
REM
REM
REM
REM ./C.cell (11c1c37f851c82e70ff6c80c92926a4b)
REM
REM compiler GCC version 9.2.1 20190827 (Red Hat 9.2.1-1)
REM options -cpp -mtune=generic -march=x86-64 -g -O0 -fpre-include=/usr/include/finclude/math-vector-fortran.h
REM seed 400260233 -1232325220 1000229887 -1839611718 -813893966 -123271227 -385899159 254959603 -1338674762 -706221628 993751521 563858175 379447429 -629248722 -138480649 -1061929415 411358836 -258996347 -53673471 812204681 -1168554901 -1311100042 -614200781 -701941844 -192247009 97992065 -1523645547 -942470571 816971909 -421304977 406069461 129453549 -819064574
REM
CELL 1.54180   50.00000   50.00000   50.00000   90.00000   90.00000   90.00000
LATT -1
SFAC C  
C      1  0.5633610000000  0.4726850000000  0.5612830000000 1.0
C      1  0.4410350000000  0.5545030000000  0.4989040000000 1.0
C      1  0.4804910000000  0.4228950000000  0.4595620000000 1.0
C      1  0.4845230000000  0.5433490000000  0.4774060000000 1.0
C      1  0.4310690000000  0.4485750000000  0.4991720000000 1.0
C      1  0.5833200000000  0.4853650000000  0.4939270000000 1.0
C      1  0.4154130000000  0.4890370000000  0.5098860000000 1.0
C      1  0.4881440000000  0.4219520000000  0.4869060000000 1.0
C      1  0.4984810000000  0.5209010000000  0.5518900000000 1.0
C      1  0.4377850000000  0.5063640000000  0.4844790000000 1.0
C      1  0.5220780000000  0.5583890000000  0.5238420000000 1.0
C      1  0.5130610000000  0.4315930000000  0.5241610000000 1.0
C      1  0.4766700000000  0.5209350000000  0.4303100000000 1.0
C      1  0.5338650000000  0.4881660000000  0.4999820000000 1.0
C      1  0.5461650000000  0.5545590000000  0.4529860000000 1.0
C      1  0.4542890000000  0.4994460000000  0.4350310000000 1.0
C      1  0.5711460000000  0.5426390000000  0.4534080000000 1.0
C      1  0.4700080000000  0.4204480000000  0.5096570000000 1.0
C      1  0.5651430000000  0.5289380000000  0.5636620000000 1.0
C      1  0.4886890000000  0.5698120000000  0.5533470000000 1.0
C      1  0.4750000000000  0.4448920000000  0.5577320000000 1.0
C      1  0.4818920000000  0.5295800000000  0.5047420000000 1.0
C      1  0.5212730000000  0.4902330000000  0.5861160000000 1.0
C      1  0.5290820000000  0.4500000000000  0.4774870000000 1.0
C      1  0.5239460000000  0.5231710000000  0.4180530000000 1.0
C      1  0.4521800000000  0.4702340000000  0.4386080000000 1.0
C      1  0.5201060000000  0.5147320000000  0.5727400000000 1.0
C      1  0.5704520000000  0.4878030000000  0.5384180000000 1.0
C      1  0.5710970000000  0.5175550000000  0.5389220000000 1.0
C      1  0.5305200000000  0.4994670000000  0.4725540000000 1.0
C      1  0.4434880000000  0.5435950000000  0.4494800000000 1.0
C      1  0.5036680000000  0.5757490000000  0.5083310000000 1.0
C      1  0.4784620000000  0.5743260000000  0.5247780000000 1.0
C      1  0.4337890000000  0.4693760000000  0.5199970000000 1.0
C      1  0.5589380000000  0.5265240000000  0.5121870000000 1.0
C      1  0.5414860000000  0.4553050000000  0.5621760000000 1.0
C      1  0.4786270000000  0.5420220000000  0.5614320000000 1.0
C      1  0.5780850000000  0.5128410000000  0.4901340000000 1.0
C      1  0.5332380000000  0.5553670000000  0.4790560000000 1.0
C      1  0.5413850000000  0.5342010000000  0.5772090000000 1.0
C      1  0.5742910000000  0.5159640000000  0.4613270000000 1.0
C      1  0.4625580000000  0.5495370000000  0.5189800000000 1.0
C      1  0.4839710000000  0.4950870000000  0.5465330000000 1.0
C      1  0.5085870000000  0.4706170000000  0.5032920000000 1.0
C      1  0.5369300000000  0.4757080000000  0.4129360000000 1.0
C      1  0.5206040000000  0.4628360000000  0.5811100000000 1.0
C      1  0.4735530000000  0.4550230000000  0.4278650000000 1.0
C      1  0.5304870000000  0.5472240000000  0.4310720000000 1.0
C      1  0.5088980000000  0.5297870000000  0.5236010000000 1.0
C      1  0.4535080000000  0.5386930000000  0.5456850000000 1.0
C      1  0.4864420000000  0.4813760000000  0.4834950000000 1.0
C      1  0.4614030000000  0.5458010000000  0.4270260000000 1.0
C      1  0.4844200000000  0.4313080000000  0.5324220000000 1.0
C      1  0.5476170000000  0.5549740000000  0.5059970000000 1.0
C      1  0.4421810000000  0.4885240000000  0.5588100000000 1.0
C      1  0.5187130000000  0.5707740000000  0.5515340000000 1.0
C      1  0.5139550000000  0.4582480000000  0.4514800000000 1.0
C      1  0.4696840000000  0.4583370000000  0.4708700000000 1.0
C      1  0.5320740000000  0.5128820000000  0.5148230000000 1.0
C      1  0.5311680000000  0.4501330000000  0.5361590000000 1.0
C      1  0.5034840000000  0.4944710000000  0.4618380000000 1.0
C      1  0.5571750000000  0.4659660000000  0.4558710000000 1.0
C      1  0.5383340000000  0.4577550000000  0.4346980000000 1.0
C      1  0.4933560000000  0.4394930000000  0.4398810000000 1.0
C      1  0.4673140000000  0.5019500000000  0.4976000000000 1.0
C      1  0.4566380000000  0.5561870000000  0.4730320000000 1.0
C      1  0.4392670000000  0.5130250000000  0.5435080000000 1.0
C      1  0.4406870000000  0.4601210000000  0.4743280000000 1.0
C      1  0.4993190000000  0.4723430000000  0.5331730000000 1.0
C      1  0.4376380000000  0.5143940000000  0.4544100000000 1.0
C      1  0.4972270000000  0.5175830000000  0.4096670000000 1.0
C      1  0.4180540000000  0.5146900000000  0.5229480000000 1.0
C      1  0.4915880000000  0.5219520000000  0.4560100000000 1.0
C      1  0.4958560000000  0.4509870000000  0.5753910000000 1.0
C      1  0.5417520000000  0.5007050000000  0.4247660000000 1.0
C      1  0.5523750000000  0.4960910000000  0.4531460000000 1.0
C      1  0.4638440000000  0.4839200000000  0.5219550000000 1.0
C      1  0.5320530000000  0.5598150000000  0.5730420000000 1.0
C      1  0.5627410000000  0.4769970000000  0.5110870000000 1.0
C      1  0.5152890000000  0.4285360000000  0.4945990000000 1.0
C      1  0.5052800000000  0.5649190000000  0.4807770000000 1.0
C      1  0.4229660000000  0.5310080000000  0.4977040000000 1.0
C      1  0.4524410000000  0.4626020000000  0.5592430000000 1.0
C      1  0.4428250000000  0.4241310000000  0.5063530000000 1.0
END
