TITL C-950525-1983-111 -1.24058205953763e-06 125000 -835.919006718006 0 0 135 (C1) n - 1
REM
REM in /home/bkarasulu/work/CARBON/AIRSS/Generating-Clusters/EDIP-Nigel-Params/with-SteepDescent/Only-C1/SD-CG/HFTN-CG
REM
REM
REM
REM
REM
REM ./C.cell (11c1c37f851c82e70ff6c80c92926a4b)
REM
REM compiler GCC version 9.2.1 20190827 (Red Hat 9.2.1-1)
REM options -cpp -mtune=generic -march=x86-64 -g -O0 -fpre-include=/usr/include/finclude/math-vector-fortran.h
REM seed 265632118 1465240352 -527093079 788925698 716477733 799637992 -1848950220 1613483273 1388516916 65415458 834218013 -1930888278 20452067 1270604733 -1402399231 2017299678 -2075893272 192822270 679025447 -2092162359 1490578966 689442495 -2034005938 503799069 -273495027 -28861216 528920036 -569597663 208957212 3632524 1783334752 2080404083 1943161816
REM
CELL 1.54180   50.00000   50.00000   50.00000   90.00000   90.00000   90.00000
LATT -1
SFAC C  
C      1  0.5299720000000  0.4712100000000  0.4458780000000 1.0
C      1  0.4286140000000  0.5606220000000  0.4809100000000 1.0
C      1  0.5725010000000  0.5325140000000  0.5741150000000 1.0
C      1  0.4753130000000  0.4796970000000  0.4386410000000 1.0
C      1  0.4545240000000  0.4357910000000  0.5491390000000 1.0
C      1  0.4680930000000  0.4674700000000  0.4831320000000 1.0
C      1  0.5167590000000  0.4822780000000  0.5934840000000 1.0
C      1  0.4946980000000  0.5111660000000  0.4758960000000 1.0
C      1  0.5653080000000  0.5822420000000  0.5211010000000 1.0
C      1  0.5848550000000  0.4897070000000  0.5419200000000 1.0
C      1  0.4239510000000  0.4743280000000  0.5610860000000 1.0
C      1  0.4119660000000  0.5357470000000  0.5206460000000 1.0
C      1  0.5940360000000  0.5082640000000  0.5215880000000 1.0
C      1  0.4765340000000  0.5396320000000  0.5908280000000 1.0
C      1  0.5576640000000  0.4825340000000  0.5451440000000 1.0
C      1  0.4969050000000  0.5740020000000  0.4639720000000 1.0
C      1  0.3994910000000  0.4924080000000  0.4871670000000 1.0
C      1  0.4139430000000  0.5072720000000  0.5101110000000 1.0
C      1  0.5751040000000  0.5464320000000  0.5505710000000 1.0
C      1  0.4683290000000  0.5565920000000  0.5472020000000 1.0
C      1  0.5057240000000  0.5456710000000  0.5842490000000 1.0
C      1  0.4505450000000  0.5226320000000  0.4610980000000 1.0
C      1  0.4582820000000  0.5278630000000  0.5077190000000 1.0
C      1  0.4466110000000  0.4903810000000  0.4785580000000 1.0
C      1  0.5157340000000  0.4055470000000  0.4479850000000 1.0
C      1  0.4426150000000  0.5025950000000  0.5050850000000 1.0
C      1  0.4766210000000  0.5114820000000  0.5975300000000 1.0
C      1  0.4497640000000  0.5765840000000  0.4675580000000 1.0
C      1  0.4662740000000  0.5226110000000  0.4334820000000 1.0
C      1  0.4433640000000  0.4525510000000  0.5715690000000 1.0
C      1  0.5490420000000  0.4218480000000  0.5468150000000 1.0
C      1  0.4205430000000  0.4522260000000  0.4659370000000 1.0
C      1  0.5877870000000  0.5078210000000  0.4646520000000 1.0
C      1  0.5191570000000  0.4743550000000  0.5112330000000 1.0
C      1  0.5378880000000  0.5752840000000  0.5633730000000 1.0
C      1  0.5074470000000  0.5324970000000  0.5290270000000 1.0
C      1  0.4647760000000  0.4953790000000  0.5752520000000 1.0
C      1  0.4543180000000  0.4573390000000  0.5276120000000 1.0
C      1  0.5816460000000  0.5707510000000  0.5011760000000 1.0
C      1  0.5727370000000  0.4610960000000  0.4628730000000 1.0
C      1  0.5009190000000  0.4417390000000  0.4192130000000 1.0
C      1  0.4758000000000  0.5023790000000  0.5477220000000 1.0
C      1  0.5370910000000  0.5339200000000  0.4961020000000 1.0
C      1  0.4745580000000  0.4815390000000  0.5272620000000 1.0
C      1  0.5746250000000  0.5241900000000  0.4436790000000 1.0
C      1  0.5864180000000  0.5518060000000  0.4808190000000 1.0
C      1  0.4304990000000  0.5296390000000  0.5671680000000 1.0
C      1  0.5270090000000  0.5151630000000  0.5445840000000 1.0
C      1  0.5281500000000  0.4039120000000  0.4742570000000 1.0
C      1  0.5258590000000  0.5216450000000  0.5771350000000 1.0
C      1  0.5522690000000  0.5158910000000  0.5162020000000 1.0
C      1  0.5504170000000  0.4491070000000  0.4476960000000 1.0
C      1  0.4303360000000  0.4294770000000  0.4526630000000 1.0
C      1  0.5156990000000  0.5616030000000  0.5302010000000 1.0
C      1  0.5327150000000  0.5306010000000  0.4134860000000 1.0
C      1  0.4742030000000  0.5664430000000  0.4803800000000 1.0
C      1  0.5200670000000  0.6014980000000  0.5272130000000 1.0
C      1  0.5799380000000  0.4676650000000  0.5106680000000 1.0
C      1  0.4726180000000  0.5515440000000  0.4291250000000 1.0
C      1  0.5642710000000  0.4280030000000  0.4997410000000 1.0
C      1  0.4925000000000  0.5756310000000  0.5494070000000 1.0
C      1  0.5239540000000  0.5184760000000  0.4743280000000 1.0
C      1  0.4463930000000  0.4781790000000  0.4257730000000 1.0
C      1  0.5322800000000  0.4729700000000  0.3970900000000 1.0
C      1  0.4881940000000  0.5051700000000  0.4459030000000 1.0
C      1  0.4228910000000  0.4902310000000  0.4396700000000 1.0
C      1  0.5451320000000  0.5995950000000  0.5122600000000 1.0
C      1  0.5630510000000  0.4374430000000  0.5272700000000 1.0
C      1  0.5243940000000  0.4276890000000  0.4304590000000 1.0
C      1  0.4356760000000  0.5005300000000  0.5729490000000 1.0
C      1  0.5246710000000  0.4123800000000  0.5380230000000 1.0
C      1  0.4913450000000  0.4533020000000  0.5668940000000 1.0
C      1  0.4386530000000  0.4086790000000  0.4700640000000 1.0
C      1  0.4662810000000  0.5078120000000  0.3975590000000 1.0
C      1  0.5286380000000  0.4838500000000  0.5404670000000 1.0
C      1  0.4538560000000  0.5485730000000  0.5724550000000 1.0
C      1  0.4759490000000  0.5775910000000  0.5083360000000 1.0
C      1  0.5706260000000  0.5501710000000  0.4558190000000 1.0
C      1  0.4719500000000  0.5336660000000  0.4815540000000 1.0
C      1  0.4932250000000  0.4978040000000  0.4024130000000 1.0
C      1  0.5384690000000  0.4289500000000  0.4849220000000 1.0
C      1  0.5835690000000  0.4473390000000  0.4872460000000 1.0
C      1  0.4485990000000  0.5647060000000  0.4408760000000 1.0
C      1  0.5039480000000  0.5056650000000  0.6038520000000 1.0
C      1  0.4921530000000  0.4305790000000  0.5032480000000 1.0
C      1  0.4109680000000  0.5375040000000  0.5485140000000 1.0
C      1  0.5159140000000  0.4491880000000  0.4926990000000 1.0
C      1  0.4266340000000  0.5401860000000  0.4596470000000 1.0
C      1  0.5122410000000  0.5182150000000  0.3990180000000 1.0
C      1  0.4264830000000  0.4704370000000  0.5308930000000 1.0
C      1  0.4924210000000  0.6019340000000  0.5136430000000 1.0
C      1  0.5088890000000  0.6090920000000  0.4904740000000 1.0
C      1  0.4494900000000  0.4334950000000  0.4305870000000 1.0
C      1  0.5415440000000  0.4986990000000  0.4581610000000 1.0
C      1  0.5466620000000  0.4541110000000  0.5773590000000 1.0
C      1  0.5475860000000  0.4820330000000  0.4186360000000 1.0
C      1  0.5482740000000  0.5664360000000  0.4462580000000 1.0
C      1  0.4989490000000  0.4202660000000  0.5311260000000 1.0
C      1  0.4683970000000  0.4660660000000  0.5800060000000 1.0
C      1  0.5090670000000  0.4619000000000  0.4661780000000 1.0
C      1  0.4829130000000  0.4286850000000  0.5542120000000 1.0
C      1  0.4206400000000  0.4807150000000  0.4675380000000 1.0
C      1  0.5598010000000  0.4888850000000  0.5014850000000 1.0
C      1  0.5537450000000  0.5122710000000  0.4237280000000 1.0
C      1  0.4364470000000  0.5497220000000  0.5088770000000 1.0
C      1  0.5965850000000  0.5247990000000  0.4869980000000 1.0
C      1  0.4911260000000  0.4052410000000  0.4850780000000 1.0
C      1  0.4781000000000  0.5293080000000  0.5339240000000 1.0
C      1  0.4414280000000  0.4995500000000  0.4072030000000 1.0
C      1  0.5530570000000  0.5215080000000  0.5898710000000 1.0
C      1  0.5446530000000  0.4741580000000  0.6013320000000 1.0
C      1  0.4650850000000  0.3938860000000  0.4943400000000 1.0
C      1  0.4410090000000  0.4530820000000  0.4127070000000 1.0
C      1  0.5414420000000  0.5899130000000  0.4598860000000 1.0
C      1  0.4466120000000  0.4166460000000  0.4965260000000 1.0
C      1  0.4908390000000  0.4852600000000  0.5008000000000 1.0
C      1  0.4035520000000  0.4606260000000  0.5172800000000 1.0
C      1  0.4877540000000  0.4095900000000  0.4547570000000 1.0
C      1  0.5268310000000  0.5539140000000  0.4302310000000 1.0
C      1  0.4992650000000  0.5604530000000  0.4391210000000 1.0
C      1  0.5185180000000  0.4666890000000  0.5663640000000 1.0
C      1  0.5063320000000  0.4701190000000  0.4084090000000 1.0
C      1  0.5197910000000  0.5845910000000  0.4782040000000 1.0
C      1  0.5660570000000  0.4891490000000  0.4722970000000 1.0
C      1  0.5110480000000  0.5721580000000  0.5725940000000 1.0
C      1  0.5844860000000  0.5347480000000  0.5264420000000 1.0
C      1  0.4522270000000  0.5697820000000  0.5251820000000 1.0
C      1  0.4626190000000  0.4427170000000  0.5015170000000 1.0
C      1  0.5520950000000  0.4269660000000  0.5742240000000 1.0
C      1  0.4816900000000  0.4593280000000  0.4578090000000 1.0
C      1  0.5302140000000  0.5651380000000  0.5021120000000 1.0
C      1  0.3859600000000  0.4702720000000  0.4985990000000 1.0
C      1  0.5595850000000  0.4977620000000  0.6031340000000 1.0
C      1  0.4786280000000  0.4344010000000  0.4401230000000 1.0
C      1  0.5570510000000  0.5672370000000  0.5444290000000 1.0
END
