TITL C-950532-2784-149 -1.37486593545109e-07 125000 -347.509474796667 0 0 57 (C1) n - 1
REM
REM in /home/bkarasulu/work/CARBON/AIRSS/Generating-Clusters/EDIP-Nigel-Params/with-SteepDescent/Only-C1/SD-CG/HFTN-CG
REM
REM
REM
REM
REM
REM ./C.cell (11c1c37f851c82e70ff6c80c92926a4b)
REM
REM compiler GCC version 9.2.1 20190827 (Red Hat 9.2.1-1)
REM options -cpp -mtune=generic -march=x86-64 -g -O0 -fpre-include=/usr/include/finclude/math-vector-fortran.h
REM seed -1744229557 1588777211 -226392101 197338909 292342675 -903243050 -762975148 1329949676 2109746846 -1640314328 1998349697 1161761174 -246822897 -1413109447 -1660713789 -1477904718 -1289253986 1048461798 1212801982 142453252 -539919010 1007887460 -510256157 -721173268 -2126241127 -1423904832 1010681909 -1770335801 836213100 1664415912 -626701957 -1361865359 -564556626
REM
CELL 1.54180   50.00000   50.00000   50.00000   90.00000   90.00000   90.00000
LATT -1
SFAC C  
C      1  0.4842150000000  0.4970260000000  0.5324130000000 1.0
C      1  0.5286140000000  0.5157890000000  0.5355030000000 1.0
C      1  0.4487220000000  0.5433060000000  0.4532060000000 1.0
C      1  0.4766720000000  0.4550430000000  0.5108150000000 1.0
C      1  0.5449060000000  0.4464200000000  0.5046650000000 1.0
C      1  0.5290670000000  0.5497870000000  0.5027170000000 1.0
C      1  0.4704010000000  0.5263120000000  0.4930450000000 1.0
C      1  0.4430140000000  0.4782070000000  0.4831680000000 1.0
C      1  0.5506730000000  0.5414580000000  0.4853360000000 1.0
C      1  0.5388140000000  0.4962290000000  0.5546430000000 1.0
C      1  0.4666550000000  0.5554860000000  0.5182260000000 1.0
C      1  0.4487460000000  0.4657760000000  0.5073950000000 1.0
C      1  0.5616880000000  0.5127980000000  0.4805220000000 1.0
C      1  0.4819950000000  0.5159260000000  0.4291830000000 1.0
C      1  0.5180840000000  0.4704220000000  0.4452580000000 1.0
C      1  0.4685050000000  0.5295070000000  0.5641830000000 1.0
C      1  0.4722990000000  0.5436760000000  0.4377010000000 1.0
C      1  0.4629870000000  0.5115900000000  0.5183490000000 1.0
C      1  0.4309760000000  0.4670160000000  0.5287570000000 1.0
C      1  0.4886810000000  0.4696070000000  0.4460330000000 1.0
C      1  0.4997450000000  0.4767190000000  0.5146460000000 1.0
C      1  0.5430340000000  0.5451150000000  0.4576530000000 1.0
C      1  0.4812960000000  0.4479030000000  0.4620950000000 1.0
C      1  0.4935350000000  0.5725310000000  0.4741540000000 1.0
C      1  0.5122950000000  0.5185760000000  0.4292040000000 1.0
C      1  0.5144330000000  0.5337790000000  0.4552370000000 1.0
C      1  0.4957170000000  0.5562490000000  0.4515780000000 1.0
C      1  0.5033450000000  0.4213610000000  0.4978500000000 1.0
C      1  0.4945600000000  0.5118090000000  0.4757050000000 1.0
C      1  0.5013690000000  0.5180800000000  0.5468870000000 1.0
C      1  0.5554800000000  0.5004680000000  0.4455050000000 1.0
C      1  0.5023590000000  0.4206370000000  0.5267480000000 1.0
C      1  0.5624410000000  0.5278840000000  0.4447450000000 1.0
C      1  0.4715600000000  0.4821070000000  0.5556810000000 1.0
C      1  0.4734990000000  0.5033140000000  0.5772440000000 1.0
C      1  0.5566030000000  0.4700550000000  0.4889240000000 1.0
C      1  0.4493920000000  0.4973330000000  0.4638670000000 1.0
C      1  0.4897480000000  0.4583870000000  0.5583240000000 1.0
C      1  0.5089100000000  0.4895820000000  0.4897570000000 1.0
C      1  0.4573740000000  0.5339800000000  0.5367920000000 1.0
C      1  0.5301140000000  0.4940400000000  0.4319660000000 1.0
C      1  0.5082430000000  0.5701860000000  0.4980850000000 1.0
C      1  0.5515360000000  0.4778240000000  0.5354070000000 1.0
C      1  0.5623570000000  0.4898040000000  0.5099620000000 1.0
C      1  0.5326820000000  0.5443550000000  0.5307830000000 1.0
C      1  0.5300690000000  0.4596860000000  0.5266500000000 1.0
C      1  0.4918740000000  0.5688800000000  0.5226590000000 1.0
C      1  0.4468750000000  0.5248200000000  0.4741040000000 1.0
C      1  0.4444650000000  0.4744530000000  0.5506710000000 1.0
C      1  0.4780130000000  0.4974420000000  0.4531740000000 1.0
C      1  0.5261200000000  0.4346810000000  0.4862960000000 1.0
C      1  0.5082440000000  0.5554520000000  0.5425510000000 1.0
C      1  0.5264840000000  0.4709560000000  0.4744900000000 1.0
C      1  0.4804200000000  0.4364900000000  0.4876650000000 1.0
C      1  0.5002660000000  0.5000360000000  0.5861560000000 1.0
C      1  0.5162220000000  0.4837390000000  0.5694860000000 1.0
C      1  0.4836040000000  0.4399070000000  0.5361850000000 1.0
END
