TITL C-951339-9237-431 -3.15930192995047e-07 125000 -351.781719627262 0 0 59 (C1) n - 1
REM
REM in /home/bkarasulu/work/CARBON/AIRSS/Generating-Clusters/EDIP-Nigel-Params/with-SteepDescent/Only-C1/SD-CG/HFTN-CG
REM
REM
REM
REM
REM
REM ./C.cell (11c1c37f851c82e70ff6c80c92926a4b)
REM
REM compiler GCC version 9.2.1 20190827 (Red Hat 9.2.1-1)
REM options -cpp -mtune=generic -march=x86-64 -g -O0 -fpre-include=/usr/include/finclude/math-vector-fortran.h
REM seed 1293255201 -778971790 -55875117 -576181950 -1780916801 -461268236 1863224 1886044881 1878735646 -627240128 -206378083 -1139690744 -1265437225 965829756 -654019245 1420287541 1831807456 -380352126 535851561 -172117007 -503860708 -459963284 -998332612 1663627518 1316829349 147542338 833457576 1952283777 720354931 740031998 -1646315172 295963876 -1921768569
REM
CELL 1.54180   50.00000   50.00000   50.00000   90.00000   90.00000   90.00000
LATT -1
SFAC C  
C      1  0.5669120000000  0.5073400000000  0.5246140000000 1.0
C      1  0.5447350000000  0.4942890000000  0.5390960000000 1.0
C      1  0.4341180000000  0.5072550000000  0.4593180000000 1.0
C      1  0.5100520000000  0.4373020000000  0.4701580000000 1.0
C      1  0.4824010000000  0.4607280000000  0.5290960000000 1.0
C      1  0.4479150000000  0.5306220000000  0.4498870000000 1.0
C      1  0.5198370000000  0.5421890000000  0.5525710000000 1.0
C      1  0.5032640000000  0.4177860000000  0.5137980000000 1.0
C      1  0.5214350000000  0.4942670000000  0.4734930000000 1.0
C      1  0.4580530000000  0.5557190000000  0.4418460000000 1.0
C      1  0.5685650000000  0.4707000000000  0.4897290000000 1.0
C      1  0.4794960000000  0.5601180000000  0.4598900000000 1.0
C      1  0.4924130000000  0.4345650000000  0.4935560000000 1.0
C      1  0.5749900000000  0.4955420000000  0.5009240000000 1.0
C      1  0.5459330000000  0.4555460000000  0.5002330000000 1.0
C      1  0.4750050000000  0.4936080000000  0.4932170000000 1.0
C      1  0.4484020000000  0.4832830000000  0.4546290000000 1.0
C      1  0.5381760000000  0.4414350000000  0.4759220000000 1.0
C      1  0.5520070000000  0.5380370000000  0.5538930000000 1.0
C      1  0.4909930000000  0.4708590000000  0.4338960000000 1.0
C      1  0.4807580000000  0.5498370000000  0.5260170000000 1.0
C      1  0.5165410000000  0.4977160000000  0.5270070000000 1.0
C      1  0.5613790000000  0.4684720000000  0.4609090000000 1.0
C      1  0.5073180000000  0.4712760000000  0.5134840000000 1.0
C      1  0.4645860000000  0.5458140000000  0.5007600000000 1.0
C      1  0.4987030000000  0.4996010000000  0.5537830000000 1.0
C      1  0.5363360000000  0.4809000000000  0.4515910000000 1.0
C      1  0.4920570000000  0.5197200000000  0.4373370000000 1.0
C      1  0.4372200000000  0.5503550000000  0.5045710000000 1.0
C      1  0.4942720000000  0.5281280000000  0.5620750000000 1.0
C      1  0.5468630000000  0.4661490000000  0.5490720000000 1.0
C      1  0.5403320000000  0.4470550000000  0.5278240000000 1.0
C      1  0.5180880000000  0.4889820000000  0.5753930000000 1.0
C      1  0.5124930000000  0.4372770000000  0.5325800000000 1.0
C      1  0.4983270000000  0.4772000000000  0.4828790000000 1.0
C      1  0.5427890000000  0.5673130000000  0.4717610000000 1.0
C      1  0.4682270000000  0.5684330000000  0.4846570000000 1.0
C      1  0.4505360000000  0.4964340000000  0.5338290000000 1.0
C      1  0.4264930000000  0.5132540000000  0.5318250000000 1.0
C      1  0.4729560000000  0.4693310000000  0.4564780000000 1.0
C      1  0.5679430000000  0.5345960000000  0.5308030000000 1.0
C      1  0.4353580000000  0.4782340000000  0.5174240000000 1.0
C      1  0.4715510000000  0.5407330000000  0.5511560000000 1.0
C      1  0.5101140000000  0.5465060000000  0.5238670000000 1.0
C      1  0.4203630000000  0.5275180000000  0.5071900000000 1.0
C      1  0.4922840000000  0.5321260000000  0.4632240000000 1.0
C      1  0.5150710000000  0.5224190000000  0.5085350000000 1.0
C      1  0.4209600000000  0.5112750000000  0.4839060000000 1.0
C      1  0.4925300000000  0.4967490000000  0.4234440000000 1.0
C      1  0.5426230000000  0.5390910000000  0.4698550000000 1.0
C      1  0.5404220000000  0.5112630000000  0.5641370000000 1.0
C      1  0.5171320000000  0.4603510000000  0.4420650000000 1.0
C      1  0.4543170000000  0.4718740000000  0.4967720000000 1.0
C      1  0.4693160000000  0.5212830000000  0.4811040000000 1.0
C      1  0.4652490000000  0.4447520000000  0.4983240000000 1.0
C      1  0.5186960000000  0.5236230000000  0.4784260000000 1.0
C      1  0.4737000000000  0.4832990000000  0.5472930000000 1.0
C      1  0.5298140000000  0.4636780000000  0.5715290000000 1.0
C      1  0.5415800000000  0.5561950000000  0.4473440000000 1.0
END
