TITL C-951345-2650-725 6.17120183619323e-08 125000 -781.522975889612 0 0 126 (C1) n - 1
REM
REM in /home/bkarasulu/work/CARBON/AIRSS/Generating-Clusters/EDIP-Nigel-Params/with-SteepDescent/Only-C1/SD-CG/HFTN-CG
REM
REM
REM
REM
REM
REM ./C.cell (11c1c37f851c82e70ff6c80c92926a4b)
REM
REM compiler GCC version 9.2.1 20190827 (Red Hat 9.2.1-1)
REM options -cpp -mtune=generic -march=x86-64 -g -O0 -fpre-include=/usr/include/finclude/math-vector-fortran.h
REM seed -1816092454 -1960067798 872432029 147697228 110844393 1598468788 1265565159 1344023638 -1517815409 1583701711 -989261697 104742106 1347502085 -772358392 -778382967 913481495 1252439215 1303973310 -319558096 1405524258 -334850528 170149857 -1939536295 698705247 -1445447412 1004309112 -1175055221 -2121242446 -1120335325 1836769593 309695911 -1872177191 -1429770523
REM
CELL 1.54180   50.00000   50.00000   50.00000   90.00000   90.00000   90.00000
LATT -1
SFAC C  
C      1  0.5596010000000  0.4836670000000  0.4224840000000 1.0
C      1  0.5975290000000  0.5052050000000  0.5266280000000 1.0
C      1  0.5559310000000  0.5862230000000  0.4912620000000 1.0
C      1  0.4520140000000  0.5056610000000  0.4271380000000 1.0
C      1  0.5122380000000  0.5667280000000  0.5214780000000 1.0
C      1  0.4283600000000  0.5276250000000  0.4784300000000 1.0
C      1  0.4687500000000  0.4585890000000  0.4370460000000 1.0
C      1  0.4772150000000  0.4846560000000  0.4933230000000 1.0
C      1  0.5385040000000  0.4780240000000  0.5587990000000 1.0
C      1  0.4728970000000  0.5064440000000  0.5997950000000 1.0
C      1  0.5325280000000  0.5490730000000  0.4272560000000 1.0
C      1  0.5259390000000  0.5845330000000  0.4975420000000 1.0
C      1  0.4234140000000  0.5401570000000  0.4533420000000 1.0
C      1  0.4984000000000  0.5078540000000  0.6122110000000 1.0
C      1  0.5721830000000  0.4451710000000  0.5505080000000 1.0
C      1  0.5445660000000  0.4998090000000  0.4420660000000 1.0
C      1  0.4685090000000  0.4611770000000  0.5127160000000 1.0
C      1  0.5021260000000  0.3991110000000  0.5325930000000 1.0
C      1  0.4068230000000  0.4504750000000  0.5332080000000 1.0
C      1  0.4782820000000  0.4369720000000  0.5533380000000 1.0
C      1  0.4456510000000  0.5562620000000  0.5474190000000 1.0
C      1  0.4508480000000  0.4190700000000  0.4622720000000 1.0
C      1  0.4272350000000  0.4655350000000  0.4116220000000 1.0
C      1  0.4170090000000  0.5117200000000  0.5219030000000 1.0
C      1  0.5347710000000  0.5086530000000  0.5213810000000 1.0
C      1  0.5789270000000  0.5115010000000  0.5468840000000 1.0
C      1  0.4137720000000  0.4435800000000  0.4864220000000 1.0
C      1  0.4290860000000  0.4345370000000  0.5428540000000 1.0
C      1  0.5675920000000  0.4755720000000  0.5147100000000 1.0
C      1  0.5112910000000  0.4441670000000  0.4564000000000 1.0
C      1  0.4155830000000  0.4888090000000  0.5026700000000 1.0
C      1  0.4862010000000  0.5904220000000  0.4628090000000 1.0
C      1  0.4846090000000  0.4608850000000  0.5371030000000 1.0
C      1  0.5127740000000  0.4865800000000  0.5998020000000 1.0
C      1  0.4993190000000  0.5317240000000  0.4789730000000 1.0
C      1  0.5732900000000  0.4418100000000  0.4556390000000 1.0
C      1  0.5148350000000  0.5024890000000  0.4064350000000 1.0
C      1  0.4680300000000  0.5058090000000  0.4515580000000 1.0
C      1  0.4962260000000  0.4176340000000  0.4469860000000 1.0
C      1  0.4649380000000  0.5913960000000  0.4445050000000 1.0
C      1  0.4559660000000  0.4892640000000  0.4723590000000 1.0
C      1  0.4686020000000  0.4277160000000  0.4390970000000 1.0
C      1  0.5226300000000  0.5424380000000  0.5670730000000 1.0
C      1  0.5508250000000  0.4400840000000  0.4380170000000 1.0
C      1  0.5689820000000  0.5460420000000  0.5203740000000 1.0
C      1  0.5347320000000  0.4160170000000  0.4428360000000 1.0
C      1  0.5369230000000  0.5226700000000  0.5806480000000 1.0
C      1  0.4959270000000  0.4664730000000  0.5870560000000 1.0
C      1  0.5982070000000  0.4950760000000  0.5008640000000 1.0
C      1  0.4260380000000  0.4985360000000  0.4761320000000 1.0
C      1  0.5453440000000  0.5354870000000  0.4824410000000 1.0
C      1  0.4045350000000  0.4612550000000  0.5061350000000 1.0
C      1  0.4666390000000  0.5280110000000  0.5803120000000 1.0
C      1  0.5225170000000  0.5486890000000  0.4724520000000 1.0
C      1  0.5377840000000  0.4325530000000  0.5273320000000 1.0
C      1  0.4391750000000  0.4426880000000  0.4744770000000 1.0
C      1  0.4494860000000  0.4409810000000  0.5638830000000 1.0
C      1  0.4900820000000  0.5124790000000  0.3976710000000 1.0
C      1  0.5152620000000  0.4720880000000  0.4144230000000 1.0
C      1  0.5060040000000  0.5068460000000  0.5337380000000 1.0
C      1  0.5708910000000  0.5484350000000  0.4733310000000 1.0
C      1  0.4666300000000  0.5621520000000  0.5022280000000 1.0
C      1  0.4920700000000  0.5452390000000  0.5061570000000 1.0
C      1  0.4518790000000  0.4639370000000  0.4600380000000 1.0
C      1  0.5829140000000  0.5312600000000  0.4541790000000 1.0
C      1  0.4777750000000  0.5321360000000  0.4575120000000 1.0
C      1  0.4110010000000  0.4730320000000  0.4319170000000 1.0
C      1  0.4098140000000  0.4951020000000  0.4491240000000 1.0
C      1  0.5638280000000  0.4270440000000  0.4783450000000 1.0
C      1  0.5118030000000  0.6117480000000  0.4951390000000 1.0
C      1  0.5276700000000  0.4330930000000  0.5631000000000 1.0
C      1  0.5052450000000  0.4984370000000  0.4832640000000 1.0
C      1  0.4781320000000  0.5555680000000  0.5812270000000 1.0
C      1  0.5692670000000  0.5066360000000  0.4592580000000 1.0
C      1  0.5592760000000  0.5738300000000  0.4633750000000 1.0
C      1  0.5096780000000  0.5883800000000  0.5653610000000 1.0
C      1  0.5007930000000  0.4403760000000  0.5732740000000 1.0
C      1  0.4527060000000  0.4759280000000  0.4171280000000 1.0
C      1  0.4416060000000  0.4665570000000  0.5282830000000 1.0
C      1  0.4302010000000  0.5090940000000  0.5489490000000 1.0
C      1  0.4419440000000  0.5320740000000  0.5641650000000 1.0
C      1  0.4838260000000  0.6054060000000  0.4888730000000 1.0
C      1  0.5449860000000  0.5338100000000  0.5104920000000 1.0
C      1  0.5419590000000  0.4092490000000  0.4710570000000 1.0
C      1  0.5012720000000  0.4687180000000  0.4413740000000 1.0
C      1  0.4942030000000  0.4011650000000  0.4726830000000 1.0
C      1  0.5779060000000  0.4492900000000  0.5235970000000 1.0
C      1  0.5557740000000  0.4936690000000  0.5376250000000 1.0
C      1  0.4689590000000  0.4234310000000  0.5079280000000 1.0
C      1  0.5582720000000  0.5756710000000  0.5515400000000 1.0
C      1  0.4784640000000  0.5447210000000  0.4306840000000 1.0
C      1  0.5135920000000  0.5921930000000  0.4512220000000 1.0
C      1  0.5433900000000  0.4617250000000  0.4191670000000 1.0
C      1  0.4675240000000  0.5701670000000  0.4282110000000 1.0
C      1  0.5119580000000  0.4440820000000  0.4875380000000 1.0
C      1  0.4506310000000  0.5441530000000  0.5208970000000 1.0
C      1  0.5339980000000  0.5580350000000  0.5444040000000 1.0
C      1  0.5105540000000  0.4749200000000  0.5374690000000 1.0
C      1  0.5171300000000  0.4887590000000  0.4571410000000 1.0
C      1  0.5287280000000  0.4894930000000  0.4998180000000 1.0
C      1  0.4717610000000  0.5897860000000  0.5116380000000 1.0
C      1  0.5236060000000  0.4076920000000  0.5173870000000 1.0
C      1  0.5176200000000  0.4136270000000  0.4886680000000 1.0
C      1  0.5321770000000  0.5206140000000  0.4237600000000 1.0
C      1  0.5313880000000  0.5666990000000  0.4508870000000 1.0
C      1  0.5717470000000  0.5724660000000  0.5107450000000 1.0
C      1  0.5774040000000  0.4895670000000  0.4818280000000 1.0
C      1  0.4675740000000  0.4064110000000  0.4839510000000 1.0
C      1  0.4902810000000  0.5847240000000  0.5373480000000 1.0
C      1  0.4238520000000  0.5174900000000  0.4355250000000 1.0
C      1  0.4454000000000  0.4848880000000  0.5508110000000 1.0
C      1  0.5263810000000  0.4600430000000  0.5103050000000 1.0
C      1  0.5068270000000  0.5625570000000  0.5809290000000 1.0
C      1  0.5693990000000  0.4275140000000  0.5070120000000 1.0
C      1  0.4686990000000  0.5248810000000  0.4107870000000 1.0
C      1  0.4696020000000  0.5705800000000  0.5574340000000 1.0
C      1  0.5494810000000  0.4514650000000  0.5652160000000 1.0
C      1  0.5737500000000  0.5401980000000  0.5477970000000 1.0
C      1  0.5349500000000  0.4949880000000  0.5833250000000 1.0
C      1  0.5249800000000  0.6116940000000  0.4692790000000 1.0
C      1  0.4259030000000  0.5352390000000  0.5068420000000 1.0
C      1  0.4465620000000  0.4690260000000  0.5748390000000 1.0
C      1  0.5375470000000  0.5938750000000  0.5592700000000 1.0
C      1  0.4833870000000  0.5232740000000  0.5239520000000 1.0
C      1  0.4789030000000  0.4141460000000  0.5335580000000 1.0
C      1  0.4691160000000  0.4771440000000  0.5930030000000 1.0
END
