TITL C-951342-2639-616 2.14555493574967e-06 125000 -805.292367911937 0 0 132 (C1) n - 1
REM
REM in /home/bkarasulu/work/CARBON/AIRSS/Generating-Clusters/EDIP-Nigel-Params/with-SteepDescent/Only-C1/SD-CG/HFTN-CG
REM
REM
REM
REM
REM
REM ./C.cell (11c1c37f851c82e70ff6c80c92926a4b)
REM
REM compiler GCC version 9.2.1 20190827 (Red Hat 9.2.1-1)
REM options -cpp -mtune=generic -march=x86-64 -g -O0 -fpre-include=/usr/include/finclude/math-vector-fortran.h
REM seed -1854639011 -185364234 -493120486 1246281682 -61948865 2096527500 -944040671 -1160270551 -1095247532 1400814244 -1683100941 617976798 -803984581 -593677442 1303081029 1125931016 -47323325 389720600 411246294 -41585385 -21327328 -588583984 1813726144 -1851359778 864686361 -2075218620 647204392 -29966521 216008707 1488417466 -1388229467 390330888 1504420091
REM
CELL 1.54180   50.00000   50.00000   50.00000   90.00000   90.00000   90.00000
LATT -1
SFAC C  
C      1  0.5656520000000  0.4871050000000  0.5648350000000 1.0
C      1  0.5145130000000  0.4978700000000  0.4565080000000 1.0
C      1  0.5941850000000  0.4941570000000  0.4496700000000 1.0
C      1  0.5438910000000  0.4438500000000  0.4276040000000 1.0
C      1  0.5283500000000  0.4896270000000  0.4211490000000 1.0
C      1  0.4251630000000  0.4670030000000  0.5510960000000 1.0
C      1  0.5977050000000  0.5036990000000  0.4762820000000 1.0
C      1  0.4013110000000  0.4809030000000  0.5133640000000 1.0
C      1  0.5113390000000  0.4273760000000  0.5431470000000 1.0
C      1  0.4609710000000  0.4553040000000  0.4061350000000 1.0
C      1  0.4447140000000  0.4914250000000  0.5549910000000 1.0
C      1  0.4589360000000  0.4991530000000  0.5031130000000 1.0
C      1  0.4814970000000  0.5182600000000  0.4233150000000 1.0
C      1  0.5677230000000  0.4406830000000  0.5096520000000 1.0
C      1  0.4734260000000  0.4557910000000  0.5117340000000 1.0
C      1  0.4499400000000  0.4715290000000  0.5054260000000 1.0
C      1  0.5611400000000  0.4761750000000  0.5905620000000 1.0
C      1  0.5041250000000  0.4712250000000  0.4232870000000 1.0
C      1  0.4268500000000  0.4294930000000  0.4827260000000 1.0
C      1  0.4625400000000  0.5774340000000  0.5202440000000 1.0
C      1  0.5119580000000  0.5464840000000  0.6018260000000 1.0
C      1  0.4837890000000  0.5370500000000  0.4947780000000 1.0
C      1  0.5077660000000  0.5515970000000  0.5017310000000 1.0
C      1  0.4872730000000  0.4901390000000  0.6014500000000 1.0
C      1  0.4186440000000  0.5026580000000  0.4478750000000 1.0
C      1  0.5860070000000  0.4557820000000  0.4880540000000 1.0
C      1  0.5337370000000  0.5087180000000  0.5069670000000 1.0
C      1  0.5294630000000  0.5101790000000  0.5359450000000 1.0
C      1  0.5822250000000  0.5354660000000  0.5136880000000 1.0
C      1  0.4531320000000  0.4182870000000  0.4729120000000 1.0
C      1  0.5327450000000  0.5598250000000  0.5578610000000 1.0
C      1  0.4515270000000  0.5243960000000  0.5818720000000 1.0
C      1  0.4811200000000  0.5653710000000  0.4319790000000 1.0
C      1  0.4116000000000  0.5242160000000  0.4926180000000 1.0
C      1  0.5107590000000  0.4578970000000  0.5478900000000 1.0
C      1  0.5554100000000  0.4871360000000  0.5032640000000 1.0
C      1  0.5534630000000  0.4726270000000  0.4242880000000 1.0
C      1  0.4970410000000  0.4338470000000  0.4587070000000 1.0
C      1  0.4841520000000  0.5270920000000  0.4670590000000 1.0
C      1  0.4954150000000  0.4637810000000  0.4909270000000 1.0
C      1  0.4038740000000  0.5020670000000  0.5342400000000 1.0
C      1  0.5784470000000  0.5533420000000  0.4426530000000 1.0
C      1  0.5566330000000  0.5249370000000  0.4296770000000 1.0
C      1  0.4677060000000  0.4375700000000  0.4560290000000 1.0
C      1  0.5531930000000  0.5735140000000  0.4799580000000 1.0
C      1  0.4425530000000  0.5449190000000  0.4185360000000 1.0
C      1  0.5810850000000  0.4893480000000  0.5200570000000 1.0
C      1  0.4422970000000  0.5084080000000  0.5283650000000 1.0
C      1  0.5789580000000  0.5550540000000  0.4714040000000 1.0
C      1  0.4438350000000  0.4672530000000  0.4253290000000 1.0
C      1  0.4548290000000  0.5227560000000  0.4347940000000 1.0
C      1  0.5472060000000  0.5362760000000  0.5720770000000 1.0
C      1  0.5187910000000  0.5419680000000  0.4150340000000 1.0
C      1  0.4212320000000  0.5284090000000  0.4641960000000 1.0
C      1  0.4585610000000  0.5501420000000  0.5057000000000 1.0
C      1  0.4686590000000  0.4730270000000  0.5560260000000 1.0
C      1  0.4712460000000  0.4091420000000  0.4948800000000 1.0
C      1  0.5634670000000  0.5550690000000  0.5187470000000 1.0
C      1  0.5355800000000  0.4170120000000  0.5551480000000 1.0
C      1  0.5046110000000  0.5543110000000  0.5316730000000 1.0
C      1  0.4711030000000  0.4480380000000  0.5732980000000 1.0
C      1  0.4877670000000  0.4996390000000  0.5179990000000 1.0
C      1  0.5665060000000  0.4847550000000  0.4493260000000 1.0
C      1  0.4868990000000  0.4720050000000  0.5339380000000 1.0
C      1  0.5153700000000  0.4656860000000  0.5782010000000 1.0
C      1  0.4872040000000  0.4768940000000  0.4630550000000 1.0
C      1  0.4231110000000  0.5490010000000  0.5399030000000 1.0
C      1  0.5620970000000  0.4660040000000  0.4718940000000 1.0
C      1  0.4906250000000  0.5439420000000  0.4145760000000 1.0
C      1  0.5478250000000  0.5095400000000  0.4555660000000 1.0
C      1  0.5391600000000  0.5376740000000  0.4673320000000 1.0
C      1  0.4484550000000  0.5369680000000  0.5315960000000 1.0
C      1  0.5098870000000  0.5035220000000  0.5841310000000 1.0
C      1  0.5513920000000  0.4413390000000  0.5585340000000 1.0
C      1  0.4664530000000  0.5000210000000  0.4688130000000 1.0
C      1  0.4676980000000  0.4990050000000  0.4053920000000 1.0
C      1  0.5347180000000  0.5183240000000  0.4103650000000 1.0
C      1  0.5084890000000  0.5972130000000  0.5087140000000 1.0
C      1  0.5302570000000  0.5251010000000  0.5950250000000 1.0
C      1  0.5194980000000  0.4210590000000  0.5055060000000 1.0
C      1  0.5222570000000  0.4499160000000  0.4957240000000 1.0
C      1  0.5380010000000  0.4630160000000  0.5403370000000 1.0
C      1  0.4628620000000  0.5023590000000  0.5933200000000 1.0
C      1  0.4903800000000  0.4597820000000  0.5951320000000 1.0
C      1  0.4600580000000  0.4277110000000  0.5176950000000 1.0
C      1  0.4064740000000  0.4877900000000  0.5606810000000 1.0
C      1  0.5548660000000  0.5139240000000  0.5525930000000 1.0
C      1  0.4834210000000  0.5896560000000  0.5586520000000 1.0
C      1  0.4229130000000  0.5616860000000  0.4282950000000 1.0
C      1  0.5017760000000  0.5222220000000  0.5388390000000 1.0
C      1  0.5857150000000  0.5296110000000  0.4856680000000 1.0
C      1  0.5531380000000  0.5628740000000  0.4338760000000 1.0
C      1  0.4523260000000  0.4638460000000  0.4533950000000 1.0
C      1  0.4327210000000  0.5550870000000  0.4546880000000 1.0
C      1  0.4533310000000  0.5876790000000  0.4957110000000 1.0
C      1  0.5991980000000  0.4818630000000  0.4969410000000 1.0
C      1  0.4926730000000  0.5211670000000  0.5667210000000 1.0
C      1  0.4650480000000  0.5593250000000  0.4567220000000 1.0
C      1  0.5358070000000  0.5378120000000  0.4972940000000 1.0
C      1  0.5504150000000  0.4155840000000  0.4983520000000 1.0
C      1  0.4992930000000  0.5492480000000  0.5753450000000 1.0
C      1  0.5376970000000  0.4469820000000  0.4702640000000 1.0
C      1  0.4295660000000  0.4328760000000  0.5124180000000 1.0
C      1  0.4627220000000  0.4209690000000  0.5466440000000 1.0
C      1  0.5444930000000  0.4611370000000  0.5129110000000 1.0
C      1  0.5770690000000  0.4422880000000  0.5396860000000 1.0
C      1  0.4246180000000  0.4623890000000  0.5204890000000 1.0
C      1  0.4325580000000  0.4942140000000  0.4217790000000 1.0
C      1  0.4896260000000  0.5821830000000  0.5312170000000 1.0
C      1  0.5106650000000  0.5719660000000  0.4558200000000 1.0
C      1  0.5815980000000  0.4716310000000  0.5443720000000 1.0
C      1  0.5008860000000  0.5778550000000  0.4850430000000 1.0
C      1  0.4140530000000  0.4814430000000  0.4669850000000 1.0
C      1  0.5433580000000  0.4551980000000  0.5856420000000 1.0
C      1  0.5395560000000  0.5792660000000  0.4536260000000 1.0
C      1  0.4753730000000  0.5665250000000  0.5728170000000 1.0
C      1  0.4873140000000  0.4221760000000  0.5603170000000 1.0
C      1  0.5797140000000  0.5153560000000  0.5332480000000 1.0
C      1  0.5600300000000  0.4267460000000  0.4459890000000 1.0
C      1  0.5371250000000  0.5884970000000  0.5084410000000 1.0
C      1  0.4820320000000  0.4736320000000  0.4042150000000 1.0
C      1  0.5450360000000  0.5717270000000  0.5323110000000 1.0
C      1  0.4503690000000  0.5496160000000  0.5679520000000 1.0
C      1  0.4043600000000  0.4958430000000  0.4894250000000 1.0
C      1  0.4175270000000  0.4526070000000  0.4665750000000 1.0
C      1  0.4989410000000  0.4139660000000  0.4833880000000 1.0
C      1  0.5514610000000  0.4114300000000  0.4690160000000 1.0
C      1  0.4055810000000  0.5314710000000  0.5225370000000 1.0
C      1  0.4721520000000  0.5806720000000  0.4761950000000 1.0
C      1  0.5120200000000  0.5409070000000  0.4529290000000 1.0
C      1  0.5132750000000  0.4449450000000  0.4343750000000 1.0
C      1  0.5080770000000  0.5004650000000  0.4931730000000 1.0
END
