TITL C-950521-2237-748 -2.0577938531072e-06 125000 -481.865378216053 0 0 79 (C1) n - 1
REM
REM in /home/bkarasulu/work/CARBON/AIRSS/Generating-Clusters/EDIP-Nigel-Params/with-SteepDescent/Only-C1/SD-CG/HFTN-CG
REM
REM
REM
REM
REM
REM ./C.cell (11c1c37f851c82e70ff6c80c92926a4b)
REM
REM compiler GCC version 9.2.1 20190827 (Red Hat 9.2.1-1)
REM options -cpp -mtune=generic -march=x86-64 -g -O0 -fpre-include=/usr/include/finclude/math-vector-fortran.h
REM seed -131608988 -1907744862 -1124177317 543106225 -136280606 976394893 -918737123 20807752 -1548906908 -219379525 -1409946442 -1971614661 1246891609 395370336 -490897443 1678784805 1398087194 -1340951456 -2145610531 423270796 602666774 1754142799 -809609485 1802838718 1876902260 472952809 -756456773 -171062879 -287495553 1580803104 -392717480 -1073202247 1256338042
REM
CELL 1.54180   50.00000   50.00000   50.00000   90.00000   90.00000   90.00000
LATT -1
SFAC C  
C      1  0.5227800000000  0.4493520000000  0.4751730000000 1.0
C      1  0.5047320000000  0.5303310000000  0.4975920000000 1.0
C      1  0.5559140000000  0.4768380000000  0.4967520000000 1.0
C      1  0.4563530000000  0.4319650000000  0.4956480000000 1.0
C      1  0.4849340000000  0.4751580000000  0.5725150000000 1.0
C      1  0.5350260000000  0.5713300000000  0.5330900000000 1.0
C      1  0.3976330000000  0.4850890000000  0.5226320000000 1.0
C      1  0.5353870000000  0.4327430000000  0.5297020000000 1.0
C      1  0.4865640000000  0.4835860000000  0.5210670000000 1.0
C      1  0.4300010000000  0.4454310000000  0.4441450000000 1.0
C      1  0.4616920000000  0.4667690000000  0.5589380000000 1.0
C      1  0.4482100000000  0.4533600000000  0.5128520000000 1.0
C      1  0.4844510000000  0.5186930000000  0.5827980000000 1.0
C      1  0.5293250000000  0.5953670000000  0.5193810000000 1.0
C      1  0.4111990000000  0.4637950000000  0.4533080000000 1.0
C      1  0.4397670000000  0.4841410000000  0.5541300000000 1.0
C      1  0.4772270000000  0.5511310000000  0.4533910000000 1.0
C      1  0.4288900000000  0.5020380000000  0.5066740000000 1.0
C      1  0.4226160000000  0.4451700000000  0.5243520000000 1.0
C      1  0.4964300000000  0.5666470000000  0.5008360000000 1.0
C      1  0.5350980000000  0.4644040000000  0.5318600000000 1.0
C      1  0.4540800000000  0.5438200000000  0.5548280000000 1.0
C      1  0.5204080000000  0.4424200000000  0.4231840000000 1.0
C      1  0.5932500000000  0.5400450000000  0.4974100000000 1.0
C      1  0.5220960000000  0.5247350000000  0.4338760000000 1.0
C      1  0.5188440000000  0.5519230000000  0.5717380000000 1.0
C      1  0.5571890000000  0.4402450000000  0.5102950000000 1.0
C      1  0.5658200000000  0.4609580000000  0.4720510000000 1.0
C      1  0.5250890000000  0.5054480000000  0.5594240000000 1.0
C      1  0.4562190000000  0.4408120000000  0.4404790000000 1.0
C      1  0.5890130000000  0.5132490000000  0.4914710000000 1.0
C      1  0.5107240000000  0.5264530000000  0.5300750000000 1.0
C      1  0.5045630000000  0.4345460000000  0.4936670000000 1.0
C      1  0.5150970000000  0.4780310000000  0.5147890000000 1.0
C      1  0.4706560000000  0.4594110000000  0.5326560000000 1.0
C      1  0.4625140000000  0.5621150000000  0.5371380000000 1.0
C      1  0.5029180000000  0.4959450000000  0.5788130000000 1.0
C      1  0.4021210000000  0.4581870000000  0.5101670000000 1.0
C      1  0.4049060000000  0.4987480000000  0.4864820000000 1.0
C      1  0.5076090000000  0.4478400000000  0.4482530000000 1.0
C      1  0.5133410000000  0.4217050000000  0.5168380000000 1.0
C      1  0.4805570000000  0.4377020000000  0.4537550000000 1.0
C      1  0.5166540000000  0.5870760000000  0.4958650000000 1.0
C      1  0.5508380000000  0.4363960000000  0.4800970000000 1.0
C      1  0.5339820000000  0.4593820000000  0.4059210000000 1.0
C      1  0.4139830000000  0.5094660000000  0.4597110000000 1.0
C      1  0.5396710000000  0.5302430000000  0.5687880000000 1.0
C      1  0.4742920000000  0.4906930000000  0.4955310000000 1.0
C      1  0.4668200000000  0.5186660000000  0.5579720000000 1.0
C      1  0.4842020000000  0.5119710000000  0.5331570000000 1.0
C      1  0.4651540000000  0.5281020000000  0.4650850000000 1.0
C      1  0.4112890000000  0.4889040000000  0.4406240000000 1.0
C      1  0.4795510000000  0.4295780000000  0.4811440000000 1.0
C      1  0.5591540000000  0.5667590000000  0.4761490000000 1.0
C      1  0.5727560000000  0.5588450000000  0.5017150000000 1.0
C      1  0.5550450000000  0.5455120000000  0.4589780000000 1.0
C      1  0.4074310000000  0.4689560000000  0.4824350000000 1.0
C      1  0.4773000000000  0.5189700000000  0.4897810000000 1.0
C      1  0.5847480000000  0.5062790000000  0.4648280000000 1.0
C      1  0.5556070000000  0.5531200000000  0.5251460000000 1.0
C      1  0.5624000000000  0.5016720000000  0.4482730000000 1.0
C      1  0.4976390000000  0.5431680000000  0.5874110000000 1.0
C      1  0.5267120000000  0.4826230000000  0.4884770000000 1.0
C      1  0.5661920000000  0.5043980000000  0.5373190000000 1.0
C      1  0.5464430000000  0.4857610000000  0.5505100000000 1.0
C      1  0.4879730000000  0.5694910000000  0.5291920000000 1.0
C      1  0.5362980000000  0.5825070000000  0.4771400000000 1.0
C      1  0.5117180000000  0.5555750000000  0.5425470000000 1.0
C      1  0.5250010000000  0.5128240000000  0.4807890000000 1.0
C      1  0.4475890000000  0.4800320000000  0.4972600000000 1.0
C      1  0.5548200000000  0.4588850000000  0.4241140000000 1.0
C      1  0.5606040000000  0.5325820000000  0.5462990000000 1.0
C      1  0.4215160000000  0.4978990000000  0.5371190000000 1.0
C      1  0.4382050000000  0.5231910000000  0.4603590000000 1.0
C      1  0.4850680000000  0.5564770000000  0.4274760000000 1.0
C      1  0.5405180000000  0.5212670000000  0.4553320000000 1.0
C      1  0.5703950000000  0.4997520000000  0.5085290000000 1.0
C      1  0.4967640000000  0.5315900000000  0.4260680000000 1.0
C      1  0.5544260000000  0.4737110000000  0.4486330000000 1.0
END
