TITL C-950526-5686-375 -8.70808602945713e-06 125000 -135.142653709656 0 0 24 (C1) n - 1
REM
REM in /home/bkarasulu/work/CARBON/AIRSS/Generating-Clusters/EDIP-Nigel-Params/with-SteepDescent/Only-C1/SD-CG/HFTN-CG
REM
REM
REM
REM
REM
REM ./C.cell (11c1c37f851c82e70ff6c80c92926a4b)
REM
REM compiler GCC version 9.2.1 20190827 (Red Hat 9.2.1-1)
REM options -cpp -mtune=generic -march=x86-64 -g -O0 -fpre-include=/usr/include/finclude/math-vector-fortran.h
REM seed -84370685 -1547700302 -1318922316 1837632527 1870284528 -868890744 839652164 -1038188890 -1931808501 492714872 1681986774 692260012 1410006142 838131374 -928069502 2120112584 1440828089 -1920154560 1986420983 1124724777 742886495 402521231 1449157201 1262086086 367440732 2050787628 -1142213366 1036289894 211251782 -5909891 94065205 1096143 1510487774
REM
CELL 1.54180   50.00000   50.00000   50.00000   90.00000   90.00000   90.00000
LATT -1
SFAC C  
C      1  0.5468390000000  0.5130070000000  0.4931460000000 1.0
C      1  0.5218540000000  0.5391620000000  0.4627650000000 1.0
C      1  0.5251540000000  0.5271820000000  0.5088380000000 1.0
C      1  0.5363360000000  0.4684300000000  0.5276710000000 1.0
C      1  0.5369960000000  0.5149240000000  0.4643490000000 1.0
C      1  0.4863540000000  0.5168260000000  0.4898090000000 1.0
C      1  0.5307560000000  0.4685750000000  0.4509890000000 1.0
C      1  0.5081900000000  0.5106850000000  0.5276380000000 1.0
C      1  0.5602810000000  0.4822640000000  0.5298550000000 1.0
C      1  0.4944750000000  0.4912190000000  0.4750240000000 1.0
C      1  0.4475480000000  0.5185140000000  0.5073290000000 1.0
C      1  0.4587290000000  0.5255550000000  0.4819250000000 1.0
C      1  0.4639700000000  0.5041530000000  0.5454400000000 1.0
C      1  0.4850470000000  0.4646960000000  0.5252890000000 1.0
C      1  0.5075890000000  0.5389940000000  0.4872520000000 1.0
C      1  0.4548170000000  0.5498950000000  0.4722840000000 1.0
C      1  0.4810820000000  0.4490820000000  0.5017080000000 1.0
C      1  0.5105310000000  0.4811180000000  0.5273910000000 1.0
C      1  0.5581620000000  0.4881190000000  0.5028700000000 1.0
C      1  0.5192730000000  0.4912210000000  0.4593520000000 1.0
C      1  0.4431530000000  0.4913200000000  0.5148270000000 1.0
C      1  0.4804570000000  0.5206820000000  0.5284160000000 1.0
C      1  0.4828950000000  0.4665610000000  0.4810490000000 1.0
C      1  0.4595130000000  0.4778140000000  0.5347840000000 1.0
END
