TITL C-951344-124-116 -9.19170487707977e-07 125000 -553.826434337064 0 0 91 (C1) n - 1
REM
REM in /home/bkarasulu/work/CARBON/AIRSS/Generating-Clusters/EDIP-Nigel-Params/with-SteepDescent/Only-C1/SD-CG/HFTN-CG
REM
REM
REM
REM
REM
REM ./C.cell (11c1c37f851c82e70ff6c80c92926a4b)
REM
REM compiler GCC version 9.2.1 20190827 (Red Hat 9.2.1-1)
REM options -cpp -mtune=generic -march=x86-64 -g -O0 -fpre-include=/usr/include/finclude/math-vector-fortran.h
REM seed 856845429 79677612 -186522532 1739493311 -866357006 1321436164 86854377 -1644158270 465230235 -1858983429 -1093209973 -1827929945 536743784 525809776 -1734887844 282374127 -2014028053 -610494889 -2090283495 -1268155569 -701830160 1414766613 -2031029855 -1736363716 1548769779 -107312777 71993341 1826816911 20155259 1311246225 -1563292792 1668079761 1339646733
REM
CELL 1.54180   50.00000   50.00000   50.00000   90.00000   90.00000   90.00000
LATT -1
SFAC C  
C      1  0.4454370000000  0.4637700000000  0.4695210000000 1.0
C      1  0.4906790000000  0.4269820000000  0.4547950000000 1.0
C      1  0.4125130000000  0.4949510000000  0.4888290000000 1.0
C      1  0.5088990000000  0.4764440000000  0.4797980000000 1.0
C      1  0.4221810000000  0.5010120000000  0.5371550000000 1.0
C      1  0.4715750000000  0.4687220000000  0.4341110000000 1.0
C      1  0.4924170000000  0.5712980000000  0.5688720000000 1.0
C      1  0.5380830000000  0.5665680000000  0.4535430000000 1.0
C      1  0.4957270000000  0.4288880000000  0.5551080000000 1.0
C      1  0.5352730000000  0.4797170000000  0.5199510000000 1.0
C      1  0.5334890000000  0.5258690000000  0.4196850000000 1.0
C      1  0.5305780000000  0.5182620000000  0.4914530000000 1.0
C      1  0.5508170000000  0.5612110000000  0.4987400000000 1.0
C      1  0.4800810000000  0.4273420000000  0.4828180000000 1.0
C      1  0.5060680000000  0.4813080000000  0.5638720000000 1.0
C      1  0.5362140000000  0.4460460000000  0.5755470000000 1.0
C      1  0.4815990000000  0.5400510000000  0.4911420000000 1.0
C      1  0.4654430000000  0.5744280000000  0.4993560000000 1.0
C      1  0.5153320000000  0.5803740000000  0.5536640000000 1.0
C      1  0.4794650000000  0.5319380000000  0.5336400000000 1.0
C      1  0.5491300000000  0.4352100000000  0.5259360000000 1.0
C      1  0.5015840000000  0.4432790000000  0.5193700000000 1.0
C      1  0.4439740000000  0.4158280000000  0.4898190000000 1.0
C      1  0.5918720000000  0.4865690000000  0.4880800000000 1.0
C      1  0.5161630000000  0.4403990000000  0.4553730000000 1.0
C      1  0.4769460000000  0.4953280000000  0.5709910000000 1.0
C      1  0.4792020000000  0.4248810000000  0.5308720000000 1.0
C      1  0.4695080000000  0.5242610000000  0.5758700000000 1.0
C      1  0.4228640000000  0.4843400000000  0.4638540000000 1.0
C      1  0.5593670000000  0.4545200000000  0.4762540000000 1.0
C      1  0.4912960000000  0.4970740000000  0.4907710000000 1.0
C      1  0.5676360000000  0.4664470000000  0.4501470000000 1.0
C      1  0.4338290000000  0.4760480000000  0.5414510000000 1.0
C      1  0.5082190000000  0.5364860000000  0.5079920000000 1.0
C      1  0.5467470000000  0.5164730000000  0.5642670000000 1.0
C      1  0.4485770000000  0.5004950000000  0.5014100000000 1.0
C      1  0.4332800000000  0.5492570000000  0.5296730000000 1.0
C      1  0.5784910000000  0.5210080000000  0.4786780000000 1.0
C      1  0.4114710000000  0.5226170000000  0.4961930000000 1.0
C      1  0.5579700000000  0.5307880000000  0.4983180000000 1.0
C      1  0.4400260000000  0.5598520000000  0.5028960000000 1.0
C      1  0.4793840000000  0.5840270000000  0.5243590000000 1.0
C      1  0.5424500000000  0.5381630000000  0.4456830000000 1.0
C      1  0.4571150000000  0.5478110000000  0.5489280000000 1.0
C      1  0.4934330000000  0.5412610000000  0.5751460000000 1.0
C      1  0.5696230000000  0.4758750000000  0.5512980000000 1.0
C      1  0.4329500000000  0.5382030000000  0.4846830000000 1.0
C      1  0.4689190000000  0.5749570000000  0.5510360000000 1.0
C      1  0.5512190000000  0.4701840000000  0.5752770000000 1.0
C      1  0.5113090000000  0.4781620000000  0.4493520000000 1.0
C      1  0.4805790000000  0.5181010000000  0.4379790000000 1.0
C      1  0.4395660000000  0.4336210000000  0.4666380000000 1.0
C      1  0.5337930000000  0.4396070000000  0.4791370000000 1.0
C      1  0.4679080000000  0.5431830000000  0.4478730000000 1.0
C      1  0.4651560000000  0.5042740000000  0.5297660000000 1.0
C      1  0.4374330000000  0.4585220000000  0.5194500000000 1.0
C      1  0.5682020000000  0.5203800000000  0.5235750000000 1.0
C      1  0.5759650000000  0.5097550000000  0.4511550000000 1.0
C      1  0.4567090000000  0.4791140000000  0.5584060000000 1.0
C      1  0.4395200000000  0.5344810000000  0.4561170000000 1.0
C      1  0.4834400000000  0.5607940000000  0.4679380000000 1.0
C      1  0.5693310000000  0.5065580000000  0.5484560000000 1.0
C      1  0.5088580000000  0.5097230000000  0.4428270000000 1.0
C      1  0.5919780000000  0.4842110000000  0.4584980000000 1.0
C      1  0.4686220000000  0.5124600000000  0.4797230000000 1.0
C      1  0.4651050000000  0.4407290000000  0.4446610000000 1.0
C      1  0.5094070000000  0.5838950000000  0.5257060000000 1.0
C      1  0.5224020000000  0.5264160000000  0.4637150000000 1.0
C      1  0.4863680000000  0.4535360000000  0.4954260000000 1.0
C      1  0.4680890000000  0.4098780000000  0.5068900000000 1.0
C      1  0.4627280000000  0.4959580000000  0.4448130000000 1.0
C      1  0.5322220000000  0.4933420000000  0.5770600000000 1.0
C      1  0.5400280000000  0.4975980000000  0.4148420000000 1.0
C      1  0.5062140000000  0.5297250000000  0.5514870000000 1.0
C      1  0.5521650000000  0.4917200000000  0.4412650000000 1.0
C      1  0.5099870000000  0.4831400000000  0.5342480000000 1.0
C      1  0.4882850000000  0.4913620000000  0.5184080000000 1.0
C      1  0.4943900000000  0.4685740000000  0.4156110000000 1.0
C      1  0.4548990000000  0.4691620000000  0.4987190000000 1.0
C      1  0.5758000000000  0.4645390000000  0.4988620000000 1.0
C      1  0.5332240000000  0.5377160000000  0.5513000000000 1.0
C      1  0.5210760000000  0.5641140000000  0.5052430000000 1.0
C      1  0.5108890000000  0.5689070000000  0.4621240000000 1.0
C      1  0.5591920000000  0.4626780000000  0.5248520000000 1.0
C      1  0.5342900000000  0.4874360000000  0.4922340000000 1.0
C      1  0.5562540000000  0.5740830000000  0.4741100000000 1.0
C      1  0.5091000000000  0.4507380000000  0.5693370000000 1.0
C      1  0.4344140000000  0.5053440000000  0.4456530000000 1.0
C      1  0.5273530000000  0.4315040000000  0.5077880000000 1.0
C      1  0.5173590000000  0.4825120000000  0.4070540000000 1.0
C      1  0.4152790000000  0.5256230000000  0.5254790000000 1.0
END
