TITL C-951347-9520-641 0.0281048677410467 125000 -183.170644794014 0 0 31 (C1) n - 1
REM
REM in /home/bkarasulu/work/CARBON/AIRSS/Generating-Clusters/EDIP-Nigel-Params/with-SteepDescent/Only-C1/SD-CG/HFTN-CG
REM
REM
REM
REM
REM
REM ./C.cell (11c1c37f851c82e70ff6c80c92926a4b)
REM
REM compiler GCC version 9.2.1 20190827 (Red Hat 9.2.1-1)
REM options -cpp -mtune=generic -march=x86-64 -g -O0 -fpre-include=/usr/include/finclude/math-vector-fortran.h
REM seed -367162469 -108604697 -1538823953 1986252714 1843481217 280680725 -385440812 1618229108 1913677723 -1346576155 1225329081 547885837 -283736209 -445468480 370350437 -61739633 208954549 1093661972 442885680 1478058386 1685936 1714213970 628432040 -228980836 124976087 -1696797581 -1425531425 1502260862 -1229217454 -80959015 -328392120 1178882201 1830213138
REM
CELL 1.54180   50.00000   50.00000   50.00000   90.00000   90.00000   90.00000
LATT -1
SFAC C  
C      1  0.5262230000000  0.5102900000000  0.5553610000000 1.0
C      1  0.5408180000000  0.4526400000000  0.5690090000000 1.0
C      1  0.4983290000000  0.5199630000000  0.4723320000000 1.0
C      1  0.5381680000000  0.4773030000000  0.4888420000000 1.0
C      1  0.4692900000000  0.5360330000000  0.5262810000000 1.0
C      1  0.5040510000000  0.4676030000000  0.4569430000000 1.0
C      1  0.4548640000000  0.4641810000000  0.4535040000000 1.0
C      1  0.4948450000000  0.5442120000000  0.4872550000000 1.0
C      1  0.5224970000000  0.5315340000000  0.5708510000000 1.0
C      1  0.5486640000000  0.4425810000000  0.5452550000000 1.0
C      1  0.5351790000000  0.4912490000000  0.5375320000000 1.0
C      1  0.4678560000000  0.5591800000000  0.5435820000000 1.0
C      1  0.4326590000000  0.4484620000000  0.4498670000000 1.0
C      1  0.5095540000000  0.5551100000000  0.5704270000000 1.0
C      1  0.5280590000000  0.4508210000000  0.4902370000000 1.0
C      1  0.5326890000000  0.4978450000000  0.5095360000000 1.0
C      1  0.5376550000000  0.5262390000000  0.5015210000000 1.0
C      1  0.5152440000000  0.5456720000000  0.5093010000000 1.0
C      1  0.4741050000000  0.5072440000000  0.4652960000000 1.0
C      1  0.4768690000000  0.4788220000000  0.4612310000000 1.0
C      1  0.4541380000000  0.5199920000000  0.4806770000000 1.0
C      1  0.4997590000000  0.5380970000000  0.5341420000000 1.0
C      1  0.5449000000000  0.5289240000000  0.4739130000000 1.0
C      1  0.4908550000000  0.5694500000000  0.5560830000000 1.0
C      1  0.4131030000000  0.4553680000000  0.4305430000000 1.0
C      1  0.4289500000000  0.4341000000000  0.4257110000000 1.0
C      1  0.5300190000000  0.4640310000000  0.5453340000000 1.0
C      1  0.4669910000000  0.5398960000000  0.4970850000000 1.0
C      1  0.5242310000000  0.5146760000000  0.4607240000000 1.0
C      1  0.5106170000000  0.4432870000000  0.4703230000000 1.0
C      1  0.5288190000000  0.4851950000000  0.4613020000000 1.0
END
