TITL C-950529-3362-456 5.76154800940563e-07 125000 -761.532935527863 0 0 122 (C1) n - 1
REM
REM in /home/bkarasulu/work/CARBON/AIRSS/Generating-Clusters/EDIP-Nigel-Params/with-SteepDescent/Only-C1/SD-CG/HFTN-CG
REM
REM
REM
REM
REM
REM ./C.cell (11c1c37f851c82e70ff6c80c92926a4b)
REM
REM compiler GCC version 9.2.1 20190827 (Red Hat 9.2.1-1)
REM options -cpp -mtune=generic -march=x86-64 -g -O0 -fpre-include=/usr/include/finclude/math-vector-fortran.h
REM seed 561381603 -126383605 -975876349 908718037 798030517 -515251029 732834852 677327254 156190573 -19227417 -997549675 -806352097 -685294382 868581453 1933932262 -977088454 995811586 1491666666 -1983466000 866695584 2132693901 1416466897 -1151383950 -559643292 214881771 1041138671 -428890799 -1762330310 -1912242214 -480146499 -1740234305 -1354566264 211936522
REM
CELL 1.54180   50.00000   50.00000   50.00000   90.00000   90.00000   90.00000
LATT -1
SFAC C  
C      1  0.5054750000000  0.5993950000000  0.5038810000000 1.0
C      1  0.4349650000000  0.4183160000000  0.5166020000000 1.0
C      1  0.5758030000000  0.5088560000000  0.5128510000000 1.0
C      1  0.5022870000000  0.5429520000000  0.6005200000000 1.0
C      1  0.4357560000000  0.5410220000000  0.5655550000000 1.0
C      1  0.4728260000000  0.4358590000000  0.4408700000000 1.0
C      1  0.4492170000000  0.5228310000000  0.4127140000000 1.0
C      1  0.4800260000000  0.6040480000000  0.4918310000000 1.0
C      1  0.4687040000000  0.4686890000000  0.4701850000000 1.0
C      1  0.5147220000000  0.5349670000000  0.4308330000000 1.0
C      1  0.4291330000000  0.5259030000000  0.5003720000000 1.0
C      1  0.5362290000000  0.4079230000000  0.5155520000000 1.0
C      1  0.5254930000000  0.4041910000000  0.4881840000000 1.0
C      1  0.5137110000000  0.5232430000000  0.5825210000000 1.0
C      1  0.4270160000000  0.4546850000000  0.4585980000000 1.0
C      1  0.5799420000000  0.5376840000000  0.5141770000000 1.0
C      1  0.5543900000000  0.4855250000000  0.5670770000000 1.0
C      1  0.5110040000000  0.4948310000000  0.5904090000000 1.0
C      1  0.5085760000000  0.5549760000000  0.4785150000000 1.0
C      1  0.5202520000000  0.4169220000000  0.5388350000000 1.0
C      1  0.5337610000000  0.4746560000000  0.4200380000000 1.0
C      1  0.4835110000000  0.4857640000000  0.5878830000000 1.0
C      1  0.4708810000000  0.5024720000000  0.5166040000000 1.0
C      1  0.4938970000000  0.5628070000000  0.5569980000000 1.0
C      1  0.5456200000000  0.4611200000000  0.5298630000000 1.0
C      1  0.5148840000000  0.5195630000000  0.4934980000000 1.0
C      1  0.5052880000000  0.6024070000000  0.5334690000000 1.0
C      1  0.5080180000000  0.4492390000000  0.4954630000000 1.0
C      1  0.4578990000000  0.4967770000000  0.4672370000000 1.0
C      1  0.4472320000000  0.4258620000000  0.4930710000000 1.0
C      1  0.4687510000000  0.5538350000000  0.5158960000000 1.0
C      1  0.5801190000000  0.4503420000000  0.4732190000000 1.0
C      1  0.4609830000000  0.5324900000000  0.5786010000000 1.0
C      1  0.5781930000000  0.4980820000000  0.4619070000000 1.0
C      1  0.4959510000000  0.4728580000000  0.4809640000000 1.0
C      1  0.4758140000000  0.4119250000000  0.4563110000000 1.0
C      1  0.5165070000000  0.4212540000000  0.4273410000000 1.0
C      1  0.4364260000000  0.5753730000000  0.4879740000000 1.0
C      1  0.4819850000000  0.5530300000000  0.5836580000000 1.0
C      1  0.5498320000000  0.4559340000000  0.4356420000000 1.0
C      1  0.4667050000000  0.4082820000000  0.4826680000000 1.0
C      1  0.5040920000000  0.4693160000000  0.4251000000000 1.0
C      1  0.4892240000000  0.4284210000000  0.5378350000000 1.0
C      1  0.5384850000000  0.4558780000000  0.4976540000000 1.0
C      1  0.5193330000000  0.5808220000000  0.5497390000000 1.0
C      1  0.4476020000000  0.5495540000000  0.4265130000000 1.0
C      1  0.4768150000000  0.6015640000000  0.5378950000000 1.0
C      1  0.4106940000000  0.5228400000000  0.5241230000000 1.0
C      1  0.5161400000000  0.4823790000000  0.4599990000000 1.0
C      1  0.5468160000000  0.5711310000000  0.5072090000000 1.0
C      1  0.5104050000000  0.5122370000000  0.4620110000000 1.0
C      1  0.5381710000000  0.5719040000000  0.4358510000000 1.0
C      1  0.4548350000000  0.4172930000000  0.5358850000000 1.0
C      1  0.4389080000000  0.5408570000000  0.4541200000000 1.0
C      1  0.4948520000000  0.4524300000000  0.5213880000000 1.0
C      1  0.5697560000000  0.5488920000000  0.4671170000000 1.0
C      1  0.5305590000000  0.4754200000000  0.5799580000000 1.0
C      1  0.4762130000000  0.5138150000000  0.4231150000000 1.0
C      1  0.5830930000000  0.5214020000000  0.5557860000000 1.0
C      1  0.5375090000000  0.5123210000000  0.5184910000000 1.0
C      1  0.5644010000000  0.4706000000000  0.4580550000000 1.0
C      1  0.4339900000000  0.4993470000000  0.4229180000000 1.0
C      1  0.5393670000000  0.5306830000000  0.5693600000000 1.0
C      1  0.4605190000000  0.5048430000000  0.5923710000000 1.0
C      1  0.5618290000000  0.5128260000000  0.5739910000000 1.0
C      1  0.4503060000000  0.4354240000000  0.5584260000000 1.0
C      1  0.4780960000000  0.4424960000000  0.5638590000000 1.0
C      1  0.4914950000000  0.5372700000000  0.4142250000000 1.0
C      1  0.4808060000000  0.4724980000000  0.5607570000000 1.0
C      1  0.5759110000000  0.5464260000000  0.5414580000000 1.0
C      1  0.4307640000000  0.5034280000000  0.4523670000000 1.0
C      1  0.5461800000000  0.4996400000000  0.4165960000000 1.0
C      1  0.5865600000000  0.4506070000000  0.5203910000000 1.0
C      1  0.4138600000000  0.4810930000000  0.4634340000000 1.0
C      1  0.4724470000000  0.5734490000000  0.5393780000000 1.0
C      1  0.4801380000000  0.5289940000000  0.5259760000000 1.0
C      1  0.5306010000000  0.4866270000000  0.5368870000000 1.0
C      1  0.4591030000000  0.4869690000000  0.5417550000000 1.0
C      1  0.5573050000000  0.5238830000000  0.4255700000000 1.0
C      1  0.4123290000000  0.4969510000000  0.5400380000000 1.0
C      1  0.5361190000000  0.4389950000000  0.5505570000000 1.0
C      1  0.5222170000000  0.5775380000000  0.4930980000000 1.0
C      1  0.4476490000000  0.4517890000000  0.4352800000000 1.0
C      1  0.4786140000000  0.5584330000000  0.4854770000000 1.0
C      1  0.4666700000000  0.5402780000000  0.4654050000000 1.0
C      1  0.5699170000000  0.4253680000000  0.5143360000000 1.0
C      1  0.4391300000000  0.5536840000000  0.5101330000000 1.0
C      1  0.4764470000000  0.5594890000000  0.4263680000000 1.0
C      1  0.5318250000000  0.5353510000000  0.5401570000000 1.0
C      1  0.4524910000000  0.4760020000000  0.4178860000000 1.0
C      1  0.5394940000000  0.5465700000000  0.4178030000000 1.0
C      1  0.4203650000000  0.4710180000000  0.5272180000000 1.0
C      1  0.5415330000000  0.4769140000000  0.4758170000000 1.0
C      1  0.5254400000000  0.4483430000000  0.5751590000000 1.0
C      1  0.5597510000000  0.5706960000000  0.4531750000000 1.0
C      1  0.4363330000000  0.5039980000000  0.5556280000000 1.0
C      1  0.5626140000000  0.5499250000000  0.4952230000000 1.0
C      1  0.4233830000000  0.5616290000000  0.4672040000000 1.0
C      1  0.4335260000000  0.4604730000000  0.5547530000000 1.0
C      1  0.4209330000000  0.5467250000000  0.5407010000000 1.0
C      1  0.4646090000000  0.5841650000000  0.4796710000000 1.0
C      1  0.5093410000000  0.5610750000000  0.4469300000000 1.0
C      1  0.4962420000000  0.4406500000000  0.4246790000000 1.0
C      1  0.5808070000000  0.4698790000000  0.5431580000000 1.0
C      1  0.5443500000000  0.4166570000000  0.4688510000000 1.0
C      1  0.4449620000000  0.4539500000000  0.4824290000000 1.0
C      1  0.5589340000000  0.4348390000000  0.4878030000000 1.0
C      1  0.5017900000000  0.4759080000000  0.5385110000000 1.0
C      1  0.4374360000000  0.4883600000000  0.5809930000000 1.0
C      1  0.5882510000000  0.4983260000000  0.5370780000000 1.0
C      1  0.4793060000000  0.5155520000000  0.4548720000000 1.0
C      1  0.5935410000000  0.4650200000000  0.4947100000000 1.0
C      1  0.4294300000000  0.4766270000000  0.4980940000000 1.0
C      1  0.5428680000000  0.5647830000000  0.5361700000000 1.0
C      1  0.4815790000000  0.4857260000000  0.4133850000000 1.0
C      1  0.5009160000000  0.5350200000000  0.5473150000000 1.0
C      1  0.5024590000000  0.4218090000000  0.4826350000000 1.0
C      1  0.5345620000000  0.4323520000000  0.4454430000000 1.0
C      1  0.4951910000000  0.4961360000000  0.5001310000000 1.0
C      1  0.4473250000000  0.5024670000000  0.4965990000000 1.0
C      1  0.5886480000000  0.4947040000000  0.4897070000000 1.0
C      1  0.5657100000000  0.5233570000000  0.4534700000000 1.0
END
