TITL C-950524-1808-569 -3.66989814919594e-06 125000 -1063.67231833139 0 0 171 (C1) n - 1
REM
REM in /home/bkarasulu/work/CARBON/AIRSS/Generating-Clusters/EDIP-Nigel-Params/with-SteepDescent/Only-C1/SD-CG/HFTN-CG
REM
REM
REM
REM
REM
REM ./C.cell (11c1c37f851c82e70ff6c80c92926a4b)
REM
REM compiler GCC version 9.2.1 20190827 (Red Hat 9.2.1-1)
REM options -cpp -mtune=generic -march=x86-64 -g -O0 -fpre-include=/usr/include/finclude/math-vector-fortran.h
REM seed 1909333725 1731325475 -1556368547 425333747 280240625 -2110409689 -980050238 -927124084 -667944279 -1872149844 1008379868 -1361959263 -615371835 1805510884 -636236527 -1977018252 -1433127674 85403165 371831212 54747235 1876618305 37452842 1349155737 -1020876848 -1341245901 172633146 -401678872 1289919328 1444431232 -1317186066 391386300 1367392927 -1603739137
REM
CELL 1.54180   50.00000   50.00000   50.00000   90.00000   90.00000   90.00000
LATT -1
SFAC C  
C      1  0.5443160000000  0.5793100000000  0.4477200000000 1.0
C      1  0.4871510000000  0.4515800000000  0.4213320000000 1.0
C      1  0.4270740000000  0.5361950000000  0.4551430000000 1.0
C      1  0.5163770000000  0.5784890000000  0.5639650000000 1.0
C      1  0.4977250000000  0.5910190000000  0.5448410000000 1.0
C      1  0.4806700000000  0.4017910000000  0.4251370000000 1.0
C      1  0.4478440000000  0.4641700000000  0.4353170000000 1.0
C      1  0.4707970000000  0.3832380000000  0.4978020000000 1.0
C      1  0.5701770000000  0.4282620000000  0.4562570000000 1.0
C      1  0.4839770000000  0.5046210000000  0.5610780000000 1.0
C      1  0.5370290000000  0.5334090000000  0.4836140000000 1.0
C      1  0.5024800000000  0.4562120000000  0.4468160000000 1.0
C      1  0.6045670000000  0.4902940000000  0.4771010000000 1.0
C      1  0.5148570000000  0.4175900000000  0.5583930000000 1.0
C      1  0.4881790000000  0.5657950000000  0.4750290000000 1.0
C      1  0.5048110000000  0.6076390000000  0.4504330000000 1.0
C      1  0.4946890000000  0.4225370000000  0.4127580000000 1.0
C      1  0.4588880000000  0.4924600000000  0.4478300000000 1.0
C      1  0.5257950000000  0.5292830000000  0.4560370000000 1.0
C      1  0.4214990000000  0.5106510000000  0.4147960000000 1.0
C      1  0.4237970000000  0.5343070000000  0.5293440000000 1.0
C      1  0.4122140000000  0.4259380000000  0.4901170000000 1.0
C      1  0.4557530000000  0.6142880000000  0.4918740000000 1.0
C      1  0.5262340000000  0.5951960000000  0.4663820000000 1.0
C      1  0.5281870000000  0.4615580000000  0.5396170000000 1.0
C      1  0.5566060000000  0.5123230000000  0.4185920000000 1.0
C      1  0.5358800000000  0.6085950000000  0.5076720000000 1.0
C      1  0.4433790000000  0.5682970000000  0.4991280000000 1.0
C      1  0.4550830000000  0.4423940000000  0.5820670000000 1.0
C      1  0.5216190000000  0.5138120000000  0.3917330000000 1.0
C      1  0.4673040000000  0.4267280000000  0.5041180000000 1.0
C      1  0.5000280000000  0.3887820000000  0.5027030000000 1.0
C      1  0.3942430000000  0.4501730000000  0.4894590000000 1.0
C      1  0.4191420000000  0.5380520000000  0.4253590000000 1.0
C      1  0.4612000000000  0.5231590000000  0.4847030000000 1.0
C      1  0.5920580000000  0.4542180000000  0.5380510000000 1.0
C      1  0.5722180000000  0.5753090000000  0.4905020000000 1.0
C      1  0.5451420000000  0.5723860000000  0.5601140000000 1.0
C      1  0.4738250000000  0.4214730000000  0.5863070000000 1.0
C      1  0.4090210000000  0.5112270000000  0.5654910000000 1.0
C      1  0.5391610000000  0.4266900000000  0.4986010000000 1.0
C      1  0.5395630000000  0.6168320000000  0.4808110000000 1.0
C      1  0.4532840000000  0.5214160000000  0.4567400000000 1.0
C      1  0.5394510000000  0.4333440000000  0.5481630000000 1.0
C      1  0.4530760000000  0.5704580000000  0.4394320000000 1.0
C      1  0.5125540000000  0.5008340000000  0.4570830000000 1.0
C      1  0.4468980000000  0.4925590000000  0.5872500000000 1.0
C      1  0.5011540000000  0.4282530000000  0.5837870000000 1.0
C      1  0.4327870000000  0.4929120000000  0.5128180000000 1.0
C      1  0.4999060000000  0.5365170000000  0.5122630000000 1.0
C      1  0.4696700000000  0.5673150000000  0.5832390000000 1.0
C      1  0.4079490000000  0.4452920000000  0.5355780000000 1.0
C      1  0.5533520000000  0.5118570000000  0.4925020000000 1.0
C      1  0.5143690000000  0.5057760000000  0.5512720000000 1.0
C      1  0.4989860000000  0.4555850000000  0.5388610000000 1.0
C      1  0.4818750000000  0.5390030000000  0.5592440000000 1.0
C      1  0.4839640000000  0.3865970000000  0.4485170000000 1.0
C      1  0.5283000000000  0.4759380000000  0.4487750000000 1.0
C      1  0.5339790000000  0.4420550000000  0.4058220000000 1.0
C      1  0.4857820000000  0.6200600000000  0.4678980000000 1.0
C      1  0.6058220000000  0.5377020000000  0.4926030000000 1.0
C      1  0.5569210000000  0.5570750000000  0.5826120000000 1.0
C      1  0.4735740000000  0.4980510000000  0.4903710000000 1.0
C      1  0.5067180000000  0.5073710000000  0.5205570000000 1.0
C      1  0.5063150000000  0.6042040000000  0.5165310000000 1.0
C      1  0.4971630000000  0.4262810000000  0.5364200000000 1.0
C      1  0.5906920000000  0.5579770000000  0.5050960000000 1.0
C      1  0.5165640000000  0.3761740000000  0.4840360000000 1.0
C      1  0.4907450000000  0.4820870000000  0.4106250000000 1.0
C      1  0.5267930000000  0.5506110000000  0.5062110000000 1.0
C      1  0.4802240000000  0.4921290000000  0.5175220000000 1.0
C      1  0.5828440000000  0.5516320000000  0.4464990000000 1.0
C      1  0.4520170000000  0.4602970000000  0.4073210000000 1.0
C      1  0.4851740000000  0.5404640000000  0.4871980000000 1.0
C      1  0.4340850000000  0.5656720000000  0.4620730000000 1.0
C      1  0.5385270000000  0.4767430000000  0.5144810000000 1.0
C      1  0.4606710000000  0.5678140000000  0.5222550000000 1.0
C      1  0.5876980000000  0.5014410000000  0.5279730000000 1.0
C      1  0.5528480000000  0.5070690000000  0.5889000000000 1.0
C      1  0.5800360000000  0.4699460000000  0.5597400000000 1.0
C      1  0.6071080000000  0.5185710000000  0.4720070000000 1.0
C      1  0.4144890000000  0.4681740000000  0.4746010000000 1.0
C      1  0.4533640000000  0.4533690000000  0.5534910000000 1.0
C      1  0.3889760000000  0.4583830000000  0.5174090000000 1.0
C      1  0.6160420000000  0.4757530000000  0.4980110000000 1.0
C      1  0.5272860000000  0.4100830000000  0.4494640000000 1.0
C      1  0.4549010000000  0.4015150000000  0.5152480000000 1.0
C      1  0.5654210000000  0.4854270000000  0.6040310000000 1.0
C      1  0.5846000000000  0.5059880000000  0.4278630000000 1.0
C      1  0.5473000000000  0.4826400000000  0.4234160000000 1.0
C      1  0.5543060000000  0.4205020000000  0.5254690000000 1.0
C      1  0.4845550000000  0.6111030000000  0.4954010000000 1.0
C      1  0.5163740000000  0.4873490000000  0.4916170000000 1.0
C      1  0.5124020000000  0.5771970000000  0.4887310000000 1.0
C      1  0.4391100000000  0.4701180000000  0.4935530000000 1.0
C      1  0.5585820000000  0.5094590000000  0.5212720000000 1.0
C      1  0.4645480000000  0.3934220000000  0.4697870000000 1.0
C      1  0.5144190000000  0.4867360000000  0.3926040000000 1.0
C      1  0.4334750000000  0.5558860000000  0.5598770000000 1.0
C      1  0.5753450000000  0.4705460000000  0.4287020000000 1.0
C      1  0.4503910000000  0.5091910000000  0.4073280000000 1.0
C      1  0.4624590000000  0.5360080000000  0.4049060000000 1.0
C      1  0.5467960000000  0.4560050000000  0.4948140000000 1.0
C      1  0.5052850000000  0.4184620000000  0.5077020000000 1.0
C      1  0.4639060000000  0.4849530000000  0.3973460000000 1.0
C      1  0.4827000000000  0.5662900000000  0.4453040000000 1.0
C      1  0.4256980000000  0.4646240000000  0.5507620000000 1.0
C      1  0.4636600000000  0.4769440000000  0.4747530000000 1.0
C      1  0.5160040000000  0.5399290000000  0.4009930000000 1.0
C      1  0.5890670000000  0.5242650000000  0.4504070000000 1.0
C      1  0.4225970000000  0.4868740000000  0.5716470000000 1.0
C      1  0.4082900000000  0.4960170000000  0.4351050000000 1.0
C      1  0.5880960000000  0.4975700000000  0.5566530000000 1.0
C      1  0.5474990000000  0.5381470000000  0.5319840000000 1.0
C      1  0.4367250000000  0.5935040000000  0.4880230000000 1.0
C      1  0.5670300000000  0.4943640000000  0.4745820000000 1.0
C      1  0.5369750000000  0.5611230000000  0.4245680000000 1.0
C      1  0.4322990000000  0.4279990000000  0.4674290000000 1.0
C      1  0.4549150000000  0.4935700000000  0.5361860000000 1.0
C      1  0.5803730000000  0.4302060000000  0.5294390000000 1.0
C      1  0.4325550000000  0.5208930000000  0.4997240000000 1.0
C      1  0.5084880000000  0.5493160000000  0.5706440000000 1.0
C      1  0.4881990000000  0.5469830000000  0.3975760000000 1.0
C      1  0.4925410000000  0.4953190000000  0.6176360000000 1.0
C      1  0.4829740000000  0.4697260000000  0.5611370000000 1.0
C      1  0.5108630000000  0.3884850000000  0.4594930000000 1.0
C      1  0.4953410000000  0.5888220000000  0.4322470000000 1.0
C      1  0.5488500000000  0.4154780000000  0.4690830000000 1.0
C      1  0.4471670000000  0.4470100000000  0.5155790000000 1.0
C      1  0.4874140000000  0.5184550000000  0.6028110000000 1.0
C      1  0.4583140000000  0.4673520000000  0.5986240000000 1.0
C      1  0.4947990000000  0.5375320000000  0.4349630000000 1.0
C      1  0.5027480000000  0.4591900000000  0.4921430000000 1.0
C      1  0.5719520000000  0.5177830000000  0.5694310000000 1.0
C      1  0.5486930000000  0.4519280000000  0.5942340000000 1.0
C      1  0.5308330000000  0.4820650000000  0.5597020000000 1.0
C      1  0.4621070000000  0.4240560000000  0.4736530000000 1.0
C      1  0.5276030000000  0.4706740000000  0.5864400000000 1.0
C      1  0.4872690000000  0.4642290000000  0.5154220000000 1.0
C      1  0.5626920000000  0.5786000000000  0.5374950000000 1.0
C      1  0.5529370000000  0.4694500000000  0.4687830000000 1.0
C      1  0.4248440000000  0.4259140000000  0.5174170000000 1.0
C      1  0.5230660000000  0.4206360000000  0.4204970000000 1.0
C      1  0.4046630000000  0.4916110000000  0.5230190000000 1.0
C      1  0.4840740000000  0.4534810000000  0.4704400000000 1.0
C      1  0.5659490000000  0.5678520000000  0.4626180000000 1.0
C      1  0.5738490000000  0.4555380000000  0.4538930000000 1.0
C      1  0.4115010000000  0.5208620000000  0.4765920000000 1.0
C      1  0.5756540000000  0.4621450000000  0.5879830000000 1.0
C      1  0.5088110000000  0.5393320000000  0.5989910000000 1.0
C      1  0.4445150000000  0.5193990000000  0.5518880000000 1.0
C      1  0.4875150000000  0.5008270000000  0.4365720000000 1.0
C      1  0.4428400000000  0.5548070000000  0.4158720000000 1.0
C      1  0.5309320000000  0.5304980000000  0.5591370000000 1.0
C      1  0.5369480000000  0.4692530000000  0.3995990000000 1.0
C      1  0.4013420000000  0.5163600000000  0.5385090000000 1.0
C      1  0.5805360000000  0.5564840000000  0.5321850000000 1.0
C      1  0.4854770000000  0.4692070000000  0.6100570000000 1.0
C      1  0.4482540000000  0.5480410000000  0.5851430000000 1.0
C      1  0.5488940000000  0.5361150000000  0.4363770000000 1.0
C      1  0.4795250000000  0.5466420000000  0.5308400000000 1.0
C      1  0.4592000000000  0.5203760000000  0.5925950000000 1.0
C      1  0.5001480000000  0.4588540000000  0.5858520000000 1.0
C      1  0.4257650000000  0.4518580000000  0.4510790000000 1.0
C      1  0.5406650000000  0.5345470000000  0.5972630000000 1.0
C      1  0.5531830000000  0.5856100000000  0.5111250000000 1.0
C      1  0.5958180000000  0.4750350000000  0.5175840000000 1.0
C      1  0.4714580000000  0.5863910000000  0.5611860000000 1.0
C      1  0.4047110000000  0.4948610000000  0.4632330000000 1.0
C      1  0.5812170000000  0.5445130000000  0.5747900000000 1.0
C      1  0.4476120000000  0.5785480000000  0.5459460000000 1.0
END
