TITL C-950524-1808-259 -4.17780567366787e-06 125000 -440.460583979307 0 0 72 (C1) n - 1
REM
REM in /home/bkarasulu/work/CARBON/AIRSS/Generating-Clusters/EDIP-Nigel-Params/with-SteepDescent/Only-C1/SD-CG/HFTN-CG
REM
REM
REM
REM
REM
REM ./C.cell (11c1c37f851c82e70ff6c80c92926a4b)
REM
REM compiler GCC version 9.2.1 20190827 (Red Hat 9.2.1-1)
REM options -cpp -mtune=generic -march=x86-64 -g -O0 -fpre-include=/usr/include/finclude/math-vector-fortran.h
REM seed 688874523 656292170 -411432498 331775114 514883286 1817112254 1079558272 -1583346325 91812095 1060503582 347361307 568545070 -959944472 -693696675 -1939779308 1280077521 -1773808033 -1784763544 -362006945 -1208984648 -452315074 -77935127 -1129492674 -915776747 -1221090314 514803651 1922465656 -2131291750 519425014 -1222415343 -62289118 -288223427 -890985445
REM
CELL 1.54180   50.00000   50.00000   50.00000   90.00000   90.00000   90.00000
LATT -1
SFAC C  
C      1  0.5268420000000  0.4732440000000  0.5553940000000 1.0
C      1  0.4622330000000  0.5813700000000  0.5228500000000 1.0
C      1  0.4824800000000  0.5144570000000  0.4228180000000 1.0
C      1  0.5035130000000  0.5022340000000  0.4678120000000 1.0
C      1  0.4499440000000  0.4359790000000  0.4992730000000 1.0
C      1  0.4918390000000  0.4371530000000  0.4540670000000 1.0
C      1  0.5068680000000  0.5053110000000  0.4381670000000 1.0
C      1  0.4837510000000  0.4571020000000  0.5299300000000 1.0
C      1  0.5517840000000  0.4554580000000  0.5016490000000 1.0
C      1  0.4556740000000  0.5029470000000  0.4696000000000 1.0
C      1  0.4487620000000  0.5471800000000  0.5350410000000 1.0
C      1  0.5376440000000  0.5674730000000  0.4616970000000 1.0
C      1  0.5075510000000  0.4382260000000  0.5263300000000 1.0
C      1  0.5526780000000  0.5578460000000  0.4842470000000 1.0
C      1  0.4367940000000  0.5286200000000  0.5556980000000 1.0
C      1  0.4806110000000  0.5076380000000  0.5577170000000 1.0
C      1  0.5769380000000  0.4857620000000  0.4806720000000 1.0
C      1  0.5392060000000  0.4333240000000  0.4866350000000 1.0
C      1  0.4566690000000  0.5165850000000  0.5710390000000 1.0
C      1  0.5567920000000  0.4513550000000  0.5308070000000 1.0
C      1  0.5308420000000  0.4458820000000  0.5446020000000 1.0
C      1  0.4660130000000  0.4437600000000  0.4448220000000 1.0
C      1  0.5304950000000  0.4777620000000  0.5015180000000 1.0
C      1  0.4767690000000  0.5380250000000  0.4410130000000 1.0
C      1  0.4573970000000  0.5273230000000  0.5144220000000 1.0
C      1  0.4978420000000  0.5807710000000  0.4905770000000 1.0
C      1  0.4739590000000  0.5645020000000  0.5433650000000 1.0
C      1  0.5712340000000  0.5092550000000  0.4981480000000 1.0
C      1  0.5303360000000  0.5204480000000  0.5335070000000 1.0
C      1  0.5028120000000  0.5580060000000  0.5352340000000 1.0
C      1  0.5095830000000  0.5662960000000  0.4681250000000 1.0
C      1  0.4692760000000  0.5732730000000  0.4956520000000 1.0
C      1  0.5054030000000  0.5306470000000  0.5218440000000 1.0
C      1  0.4331320000000  0.5094120000000  0.5104160000000 1.0
C      1  0.5785160000000  0.4600640000000  0.4908730000000 1.0
C      1  0.5314640000000  0.5222670000000  0.4330600000000 1.0
C      1  0.4789770000000  0.4639830000000  0.5582240000000 1.0
C      1  0.5045910000000  0.5151190000000  0.5741590000000 1.0
C      1  0.4987290000000  0.5590190000000  0.4421220000000 1.0
C      1  0.5194050000000  0.5576970000000  0.5595400000000 1.0
C      1  0.5651540000000  0.4874970000000  0.4533980000000 1.0
C      1  0.4881770000000  0.4837800000000  0.5126210000000 1.0
C      1  0.4855590000000  0.4821350000000  0.4816790000000 1.0
C      1  0.5082700000000  0.4590010000000  0.4681520000000 1.0
C      1  0.4528130000000  0.4736420000000  0.5609430000000 1.0
C      1  0.4474830000000  0.4611590000000  0.4568670000000 1.0
C      1  0.5412300000000  0.5698690000000  0.5071520000000 1.0
C      1  0.4650570000000  0.4163120000000  0.4869120000000 1.0
C      1  0.5125800000000  0.4274110000000  0.4980140000000 1.0
C      1  0.5540300000000  0.5160230000000  0.4538960000000 1.0
C      1  0.5299750000000  0.4945400000000  0.4765940000000 1.0
C      1  0.4468660000000  0.4613730000000  0.4862990000000 1.0
C      1  0.4597940000000  0.4422860000000  0.5241170000000 1.0
C      1  0.5676570000000  0.4772910000000  0.5382020000000 1.0
C      1  0.4913920000000  0.4194590000000  0.4777710000000 1.0
C      1  0.5406530000000  0.4403350000000  0.4585180000000 1.0
C      1  0.4476790000000  0.4882980000000  0.4467220000000 1.0
C      1  0.5258950000000  0.5302100000000  0.5614030000000 1.0
C      1  0.5650210000000  0.5042390000000  0.5271080000000 1.0
C      1  0.4619980000000  0.5306600000000  0.4659300000000 1.0
C      1  0.4356980000000  0.4804890000000  0.5058230000000 1.0
C      1  0.4617390000000  0.4950160000000  0.4233680000000 1.0
C      1  0.5150170000000  0.5775260000000  0.5150470000000 1.0
C      1  0.4319010000000  0.4797010000000  0.5432790000000 1.0
C      1  0.5280580000000  0.4900240000000  0.5297590000000 1.0
C      1  0.5412720000000  0.4684830000000  0.4496000000000 1.0
C      1  0.5564620000000  0.5288240000000  0.4815770000000 1.0
C      1  0.5018540000000  0.4778710000000  0.5711860000000 1.0
C      1  0.5243830000000  0.5505310000000  0.4295750000000 1.0
C      1  0.4228570000000  0.5077320000000  0.5385970000000 1.0
C      1  0.4654820000000  0.5438810000000  0.4910970000000 1.0
C      1  0.4826420000000  0.5116270000000  0.5261230000000 1.0
END
