TITL C-950534-5965-22 -2.79466122124767e-06 125000 -905.087776863655 0 0 145 (C1) n - 1
REM
REM in /home/bkarasulu/work/CARBON/AIRSS/Generating-Clusters/EDIP-Nigel-Params/with-SteepDescent/Only-C1/SD-CG/HFTN-CG
REM
REM
REM
REM
REM
REM ./C.cell (11c1c37f851c82e70ff6c80c92926a4b)
REM
REM compiler GCC version 9.2.1 20190827 (Red Hat 9.2.1-1)
REM options -cpp -mtune=generic -march=x86-64 -g -O0 -fpre-include=/usr/include/finclude/math-vector-fortran.h
REM seed -612099458 1549489993 905853818 2081412048 -444987631 1000837796 1145822840 -1928956544 -1620630783 -2018018878 1185191027 1121775563 -1774826668 -610297576 444967872 -1902523684 -1522566522 1210850874 -231938552 -1998857203 -1465350688 806697262 -1037315365 -500301860 -686325994 -260649587 636673395 -128656033 830217971 722896092 1382128090 1155216195 -1435446085
REM
CELL 1.54180   50.00000   50.00000   50.00000   90.00000   90.00000   90.00000
LATT -1
SFAC C  
C      1  0.4506550000000  0.5675720000000  0.5694270000000 1.0
C      1  0.5700740000000  0.4284240000000  0.4533800000000 1.0
C      1  0.4412140000000  0.5497720000000  0.4442570000000 1.0
C      1  0.4545600000000  0.5725850000000  0.4850210000000 1.0
C      1  0.5240280000000  0.4969050000000  0.4968360000000 1.0
C      1  0.5122130000000  0.5643700000000  0.5211810000000 1.0
C      1  0.5686600000000  0.5437140000000  0.5601700000000 1.0
C      1  0.5026150000000  0.5598720000000  0.5935720000000 1.0
C      1  0.5227300000000  0.4898330000000  0.4215290000000 1.0
C      1  0.4823580000000  0.4510410000000  0.5604320000000 1.0
C      1  0.5267310000000  0.5311360000000  0.5523770000000 1.0
C      1  0.4131620000000  0.5449510000000  0.4823460000000 1.0
C      1  0.5519850000000  0.5732460000000  0.4854530000000 1.0
C      1  0.5021620000000  0.5797370000000  0.5712690000000 1.0
C      1  0.6050740000000  0.5077890000000  0.4827980000000 1.0
C      1  0.5286880000000  0.3955050000000  0.5223810000000 1.0
C      1  0.5255760000000  0.5832880000000  0.4747320000000 1.0
C      1  0.4341390000000  0.4437390000000  0.5333680000000 1.0
C      1  0.4429500000000  0.4926010000000  0.5685180000000 1.0
C      1  0.4154420000000  0.5463250000000  0.5111780000000 1.0
C      1  0.4795410000000  0.4223750000000  0.5493480000000 1.0
C      1  0.5927380000000  0.5242080000000  0.4615900000000 1.0
C      1  0.4986930000000  0.5484150000000  0.4735200000000 1.0
C      1  0.4705510000000  0.4403410000000  0.4800420000000 1.0
C      1  0.4905800000000  0.5012630000000  0.5585670000000 1.0
C      1  0.6009840000000  0.4520740000000  0.4807140000000 1.0
C      1  0.4724790000000  0.5383290000000  0.5182680000000 1.0
C      1  0.6036990000000  0.4984990000000  0.5285940000000 1.0
C      1  0.4823650000000  0.5391250000000  0.5939570000000 1.0
C      1  0.5299950000000  0.5784560000000  0.5587880000000 1.0
C      1  0.5166640000000  0.4761290000000  0.5966310000000 1.0
C      1  0.4823410000000  0.5191690000000  0.4367730000000 1.0
C      1  0.4517260000000  0.5185180000000  0.5289170000000 1.0
C      1  0.4773250000000  0.4971860000000  0.4753180000000 1.0
C      1  0.4476340000000  0.4754600000000  0.5067910000000 1.0
C      1  0.5456220000000  0.4830210000000  0.5084540000000 1.0
C      1  0.5704990000000  0.5036800000000  0.4206850000000 1.0
C      1  0.5044390000000  0.4668100000000  0.4380080000000 1.0
C      1  0.5322800000000  0.4282160000000  0.4852580000000 1.0
C      1  0.5603140000000  0.4989880000000  0.5270720000000 1.0
C      1  0.4979910000000  0.3924770000000  0.4806310000000 1.0
C      1  0.4658560000000  0.5596960000000  0.4295310000000 1.0
C      1  0.4634570000000  0.4957040000000  0.5461410000000 1.0
C      1  0.5765700000000  0.5027860000000  0.4494900000000 1.0
C      1  0.4166990000000  0.5174900000000  0.4693030000000 1.0
C      1  0.4658230000000  0.5200610000000  0.3951990000000 1.0
C      1  0.4522320000000  0.4581880000000  0.4184080000000 1.0
C      1  0.5130020000000  0.4850270000000  0.5439850000000 1.0
C      1  0.5830280000000  0.4305610000000  0.4794460000000 1.0
C      1  0.5446990000000  0.4723470000000  0.4638180000000 1.0
C      1  0.5304490000000  0.5237270000000  0.6080260000000 1.0
C      1  0.4758670000000  0.4234470000000  0.5038140000000 1.0
C      1  0.4466130000000  0.4529910000000  0.5863310000000 1.0
C      1  0.4307590000000  0.5644230000000  0.4679590000000 1.0
C      1  0.4602120000000  0.4806590000000  0.4591110000000 1.0
C      1  0.4682400000000  0.4273500000000  0.4540490000000 1.0
C      1  0.4684800000000  0.4700030000000  0.5289080000000 1.0
C      1  0.5574000000000  0.5293070000000  0.4180170000000 1.0
C      1  0.5203440000000  0.5451710000000  0.4969910000000 1.0
C      1  0.5201350000000  0.5530720000000  0.4051310000000 1.0
C      1  0.4499130000000  0.4612510000000  0.4797560000000 1.0
C      1  0.4042670000000  0.4782080000000  0.5006400000000 1.0
C      1  0.4590530000000  0.4809840000000  0.5920120000000 1.0
C      1  0.5345440000000  0.4543320000000  0.5810280000000 1.0
C      1  0.5407800000000  0.5517320000000  0.5681480000000 1.0
C      1  0.5154880000000  0.4640840000000  0.4658870000000 1.0
C      1  0.5959980000000  0.4795590000000  0.4819300000000 1.0
C      1  0.4782710000000  0.4461470000000  0.4303720000000 1.0
C      1  0.5603070000000  0.4671120000000  0.4895730000000 1.0
C      1  0.4563200000000  0.5421050000000  0.5820130000000 1.0
C      1  0.4881140000000  0.5151160000000  0.5146040000000 1.0
C      1  0.4262610000000  0.5694430000000  0.5249670000000 1.0
C      1  0.5492760000000  0.5038470000000  0.4614420000000 1.0
C      1  0.5683920000000  0.5483150000000  0.5296870000000 1.0
C      1  0.4156170000000  0.5353080000000  0.5573930000000 1.0
C      1  0.5241430000000  0.4008470000000  0.4939680000000 1.0
C      1  0.5593690000000  0.4377110000000  0.4975700000000 1.0
C      1  0.4312920000000  0.4570850000000  0.5601570000000 1.0
C      1  0.4352910000000  0.5216860000000  0.5755130000000 1.0
C      1  0.5900900000000  0.4751860000000  0.5345180000000 1.0
C      1  0.5298640000000  0.5139320000000  0.4405010000000 1.0
C      1  0.4515440000000  0.4875970000000  0.4106910000000 1.0
C      1  0.4492190000000  0.5824850000000  0.5127570000000 1.0
C      1  0.5047120000000  0.5246310000000  0.4545010000000 1.0
C      1  0.4040550000000  0.4977730000000  0.5221280000000 1.0
C      1  0.5414190000000  0.4236510000000  0.4567760000000 1.0
C      1  0.4713580000000  0.5929870000000  0.5291670000000 1.0
C      1  0.4170050000000  0.4709790000000  0.4528370000000 1.0
C      1  0.5389910000000  0.5889140000000  0.5330540000000 1.0
C      1  0.5016520000000  0.4806500000000  0.4872540000000 1.0
C      1  0.5548150000000  0.5713800000000  0.5159380000000 1.0
C      1  0.5517370000000  0.5292600000000  0.4856380000000 1.0
C      1  0.5660330000000  0.5507190000000  0.4672500000000 1.0
C      1  0.4738180000000  0.5833230000000  0.5577760000000 1.0
C      1  0.4292670000000  0.4507520000000  0.4367650000000 1.0
C      1  0.5083170000000  0.4246370000000  0.5365860000000 1.0
C      1  0.5106370000000  0.5015510000000  0.3958540000000 1.0
C      1  0.4969850000000  0.4667250000000  0.5147500000000 1.0
C      1  0.5567990000000  0.4607620000000  0.4388030000000 1.0
C      1  0.4705810000000  0.4372430000000  0.5840010000000 1.0
C      1  0.5383870000000  0.5034070000000  0.5490640000000 1.0
C      1  0.4859130000000  0.5753810000000  0.4477320000000 1.0
C      1  0.5123800000000  0.4597490000000  0.5609780000000 1.0
C      1  0.5052620000000  0.4086510000000  0.4304440000000 1.0
C      1  0.5548400000000  0.5500140000000  0.4381530000000 1.0
C      1  0.5319860000000  0.5643100000000  0.4281630000000 1.0
C      1  0.4231700000000  0.4334730000000  0.4810810000000 1.0
C      1  0.5172960000000  0.5289170000000  0.3927060000000 1.0
C      1  0.4584490000000  0.4270130000000  0.5286100000000 1.0
C      1  0.4524270000000  0.5006520000000  0.4378200000000 1.0
C      1  0.5701810000000  0.5243760000000  0.5121070000000 1.0
C      1  0.4696090000000  0.5458360000000  0.4880590000000 1.0
C      1  0.5752400000000  0.5180200000000  0.5717740000000 1.0
C      1  0.5683720000000  0.4587430000000  0.5437970000000 1.0
C      1  0.5614180000000  0.4342520000000  0.5280330000000 1.0
C      1  0.5000020000000  0.5903500000000  0.4883630000000 1.0
C      1  0.5159920000000  0.5781270000000  0.4475380000000 1.0
C      1  0.5033590000000  0.4366310000000  0.5098760000000 1.0
C      1  0.4544150000000  0.5187370000000  0.4802780000000 1.0
C      1  0.5153670000000  0.5195540000000  0.5111460000000 1.0
C      1  0.4915410000000  0.4266880000000  0.4125140000000 1.0
C      1  0.5302590000000  0.5491540000000  0.5968380000000 1.0
C      1  0.4365090000000  0.4277660000000  0.4542930000000 1.0
C      1  0.5544030000000  0.4968130000000  0.5742000000000 1.0
C      1  0.5228480000000  0.4327970000000  0.4355750000000 1.0
C      1  0.4889140000000  0.5534100000000  0.5385970000000 1.0
C      1  0.4963170000000  0.5985510000000  0.5155610000000 1.0
C      1  0.5993380000000  0.5181880000000  0.5092370000000 1.0
C      1  0.5515470000000  0.4798390000000  0.4168110000000 1.0
C      1  0.4770070000000  0.3945860000000  0.4988880000000 1.0
C      1  0.4080450000000  0.4886180000000  0.4732230000000 1.0
C      1  0.5364830000000  0.4987920000000  0.5978800000000 1.0
C      1  0.4173620000000  0.4502930000000  0.5065800000000 1.0
C      1  0.4082010000000  0.5254160000000  0.5298940000000 1.0
C      1  0.5447070000000  0.4132890000000  0.5387150000000 1.0
C      1  0.5599040000000  0.4664710000000  0.5710850000000 1.0
C      1  0.4315880000000  0.5215910000000  0.4441220000000 1.0
C      1  0.4983600000000  0.5320350000000  0.5597390000000 1.0
C      1  0.4384840000000  0.5051980000000  0.5053000000000 1.0
C      1  0.4883770000000  0.4871880000000  0.5855410000000 1.0
C      1  0.4757470000000  0.5885890000000  0.4718790000000 1.0
C      1  0.4797930000000  0.5378620000000  0.4140260000000 1.0
C      1  0.4257250000000  0.5636750000000  0.5539960000000 1.0
C      1  0.4872390000000  0.4027940000000  0.4534480000000 1.0
C      1  0.4823040000000  0.4970400000000  0.3903220000000 1.0
END
