TITL C-950533-5798-383 1.41039118205424e-06 125000 -1256.21589252645 0 0 198 (C1) n - 1
REM
REM in /home/bkarasulu/work/CARBON/AIRSS/Generating-Clusters/EDIP-Nigel-Params/with-SteepDescent/Only-C1/SD-CG/HFTN-CG
REM
REM
REM
REM
REM
REM ./C.cell (11c1c37f851c82e70ff6c80c92926a4b)
REM
REM compiler GCC version 9.2.1 20190827 (Red Hat 9.2.1-1)
REM options -cpp -mtune=generic -march=x86-64 -g -O0 -fpre-include=/usr/include/finclude/math-vector-fortran.h
REM seed -1153216444 1320403862 707440533 1648506892 -498322537 724470740 1415673050 786125582 2078842217 -1217849316 302455940 1112902169 957487319 300256607 -1879852465 353998436 359743706 -631588692 62159671 454075012 1981948521 1532377917 -829952556 901164337 -1053693287 -772256519 1989972620 562904892 -1748961274 -1951772448 -139980289 803295284 1007735326
REM
CELL 1.54180   50.00000   50.00000   50.00000   90.00000   90.00000   90.00000
LATT -1
SFAC C  
C      1  0.4126370000000  0.5322580000000  0.5700530000000 1.0
C      1  0.5396170000000  0.3989280000000  0.4948920000000 1.0
C      1  0.4756920000000  0.4924270000000  0.5860580000000 1.0
C      1  0.5644120000000  0.4971840000000  0.4381220000000 1.0
C      1  0.4827280000000  0.6023510000000  0.4438780000000 1.0
C      1  0.4985710000000  0.4754180000000  0.5018280000000 1.0
C      1  0.5575620000000  0.4780990000000  0.4806080000000 1.0
C      1  0.4328620000000  0.5322990000000  0.4599230000000 1.0
C      1  0.5334740000000  0.5082530000000  0.5645220000000 1.0
C      1  0.4724200000000  0.5260210000000  0.5847490000000 1.0
C      1  0.4744160000000  0.4661710000000  0.4502550000000 1.0
C      1  0.4998890000000  0.4845560000000  0.6014540000000 1.0
C      1  0.4412850000000  0.4110310000000  0.5192530000000 1.0
C      1  0.5005970000000  0.5353240000000  0.5434780000000 1.0
C      1  0.4745620000000  0.5466950000000  0.4481780000000 1.0
C      1  0.5251470000000  0.4662550000000  0.5639490000000 1.0
C      1  0.4377710000000  0.4664630000000  0.4882090000000 1.0
C      1  0.5165080000000  0.4972300000000  0.5177190000000 1.0
C      1  0.5667250000000  0.4083030000000  0.5047140000000 1.0
C      1  0.5156320000000  0.4126990000000  0.5851960000000 1.0
C      1  0.4155290000000  0.4472640000000  0.4265630000000 1.0
C      1  0.6193510000000  0.4387330000000  0.5011100000000 1.0
C      1  0.5078330000000  0.5690730000000  0.4133500000000 1.0
C      1  0.4873600000000  0.4023570000000  0.5065230000000 1.0
C      1  0.4562940000000  0.4969280000000  0.5178910000000 1.0
C      1  0.4856660000000  0.3972880000000  0.4580610000000 1.0
C      1  0.5932970000000  0.5558800000000  0.5053390000000 1.0
C      1  0.4718980000000  0.4283230000000  0.5757100000000 1.0
C      1  0.5466200000000  0.4918980000000  0.5214910000000 1.0
C      1  0.4713090000000  0.5187810000000  0.3997070000000 1.0
C      1  0.5369820000000  0.5948960000000  0.4753540000000 1.0
C      1  0.4427260000000  0.4841430000000  0.4640740000000 1.0
C      1  0.4291110000000  0.4385050000000  0.5588760000000 1.0
C      1  0.4965090000000  0.4402030000000  0.5351410000000 1.0
C      1  0.4781630000000  0.4747310000000  0.4214390000000 1.0
C      1  0.5696410000000  0.5228280000000  0.5858430000000 1.0
C      1  0.3826810000000  0.5350820000000  0.5320640000000 1.0
C      1  0.3952470000000  0.5486700000000  0.5114940000000 1.0
C      1  0.4347810000000  0.5971230000000  0.5449080000000 1.0
C      1  0.3934710000000  0.5491580000000  0.4387280000000 1.0
C      1  0.4290770000000  0.5165410000000  0.5879240000000 1.0
C      1  0.4885320000000  0.5042990000000  0.4191250000000 1.0
C      1  0.4147380000000  0.5770620000000  0.4556470000000 1.0
C      1  0.5552750000000  0.5703260000000  0.5955960000000 1.0
C      1  0.5539480000000  0.4758510000000  0.5696690000000 1.0
C      1  0.6120410000000  0.5081370000000  0.5089200000000 1.0
C      1  0.4500360000000  0.5849710000000  0.5221770000000 1.0
C      1  0.4883360000000  0.5991010000000  0.4929870000000 1.0
C      1  0.6061450000000  0.5339530000000  0.5202430000000 1.0
C      1  0.3824540000000  0.4881840000000  0.4966360000000 1.0
C      1  0.5190040000000  0.6045140000000  0.4956450000000 1.0
C      1  0.4705820000000  0.5389490000000  0.5479870000000 1.0
C      1  0.5012760000000  0.5791760000000  0.5841040000000 1.0
C      1  0.4580610000000  0.4389060000000  0.4555300000000 1.0
C      1  0.4853620000000  0.5544750000000  0.4030960000000 1.0
C      1  0.5263650000000  0.4457640000000  0.5433690000000 1.0
C      1  0.6059810000000  0.5238000000000  0.4322060000000 1.0
C      1  0.4709890000000  0.4116420000000  0.4142980000000 1.0
C      1  0.5377190000000  0.5296590000000  0.4002660000000 1.0
C      1  0.5042760000000  0.5829060000000  0.4403100000000 1.0
C      1  0.5706010000000  0.4479000000000  0.4159200000000 1.0
C      1  0.4294290000000  0.4829760000000  0.5115780000000 1.0
C      1  0.5388860000000  0.4526720000000  0.6038410000000 1.0
C      1  0.6005740000000  0.4644420000000  0.4636920000000 1.0
C      1  0.5366690000000  0.4057370000000  0.4657560000000 1.0
C      1  0.4131010000000  0.5785920000000  0.5457840000000 1.0
C      1  0.4515730000000  0.5645210000000  0.5772330000000 1.0
C      1  0.5013150000000  0.4667390000000  0.4646600000000 1.0
C      1  0.5819670000000  0.5123980000000  0.5587160000000 1.0
C      1  0.3999840000000  0.4755640000000  0.5189750000000 1.0
C      1  0.5803030000000  0.5376080000000  0.4250060000000 1.0
C      1  0.4315520000000  0.4879960000000  0.4344140000000 1.0
C      1  0.5049990000000  0.3978930000000  0.5616000000000 1.0
C      1  0.5500550000000  0.5394300000000  0.5298460000000 1.0
C      1  0.5398730000000  0.4273210000000  0.5754500000000 1.0
C      1  0.3892540000000  0.4917750000000  0.4435690000000 1.0
C      1  0.4934210000000  0.5611890000000  0.4879860000000 1.0
C      1  0.5804030000000  0.4954810000000  0.3982280000000 1.0
C      1  0.5213760000000  0.5522250000000  0.5296580000000 1.0
C      1  0.5322940000000  0.4956630000000  0.4345550000000 1.0
C      1  0.5796680000000  0.4634950000000  0.5579060000000 1.0
C      1  0.4722580000000  0.3911500000000  0.4832800000000 1.0
C      1  0.5678940000000  0.5242190000000  0.4001160000000 1.0
C      1  0.5202930000000  0.5051720000000  0.4072020000000 1.0
C      1  0.5319880000000  0.5923270000000  0.4473920000000 1.0
C      1  0.5001350000000  0.5317060000000  0.5964940000000 1.0
C      1  0.5988990000000  0.4973890000000  0.4210360000000 1.0
C      1  0.4768160000000  0.4633860000000  0.5435720000000 1.0
C      1  0.5182740000000  0.5842690000000  0.5403330000000 1.0
C      1  0.5748780000000  0.5714990000000  0.4602110000000 1.0
C      1  0.4413150000000  0.5819280000000  0.4706670000000 1.0
C      1  0.4019230000000  0.4439670000000  0.5180410000000 1.0
C      1  0.5591730000000  0.5028530000000  0.4968800000000 1.0
C      1  0.4824320000000  0.4917900000000  0.5561280000000 1.0
C      1  0.4652580000000  0.4115730000000  0.4427440000000 1.0
C      1  0.5604210000000  0.5956420000000  0.5236750000000 1.0
C      1  0.5198870000000  0.4867520000000  0.3854510000000 1.0
C      1  0.4265970000000  0.4877380000000  0.5877480000000 1.0
C      1  0.4177590000000  0.4214660000000  0.4742270000000 1.0
C      1  0.4078580000000  0.5496100000000  0.4630810000000 1.0
C      1  0.3993810000000  0.4317430000000  0.4927650000000 1.0
C      1  0.5050140000000  0.4398130000000  0.4764750000000 1.0
C      1  0.3994220000000  0.5226950000000  0.4285070000000 1.0
C      1  0.6112660000000  0.4849590000000  0.5271640000000 1.0
C      1  0.5996040000000  0.4414940000000  0.4815960000000 1.0
C      1  0.4549620000000  0.4510790000000  0.5679930000000 1.0
C      1  0.5420540000000  0.5518450000000  0.4824280000000 1.0
C      1  0.4054060000000  0.4476780000000  0.5702210000000 1.0
C      1  0.5621700000000  0.4719900000000  0.4017110000000 1.0
C      1  0.5109350000000  0.5172630000000  0.4959430000000 1.0
C      1  0.5247840000000  0.5889520000000  0.5693330000000 1.0
C      1  0.3981200000000  0.4710440000000  0.4253220000000 1.0
C      1  0.4982270000000  0.4079540000000  0.4084660000000 1.0
C      1  0.5480840000000  0.4523690000000  0.3850310000000 1.0
C      1  0.5608270000000  0.4226750000000  0.4587340000000 1.0
C      1  0.5818600000000  0.5593470000000  0.5534190000000 1.0
C      1  0.4684810000000  0.6007780000000  0.4683150000000 1.0
C      1  0.4521770000000  0.4731130000000  0.5893710000000 1.0
C      1  0.4874880000000  0.4330120000000  0.4997210000000 1.0
C      1  0.4894420000000  0.5178140000000  0.4486930000000 1.0
C      1  0.5327240000000  0.6019940000000  0.5220090000000 1.0
C      1  0.5350830000000  0.5612870000000  0.6128190000000 1.0
C      1  0.5552760000000  0.5763500000000  0.4376230000000 1.0
C      1  0.4955920000000  0.4333740000000  0.5929240000000 1.0
C      1  0.5164670000000  0.5466360000000  0.4992550000000 1.0
C      1  0.4371610000000  0.4506510000000  0.4056030000000 1.0
C      1  0.5330640000000  0.5537710000000  0.4178030000000 1.0
C      1  0.4532760000000  0.5528750000000  0.4690030000000 1.0
C      1  0.6179750000000  0.5075230000000  0.4801570000000 1.0
C      1  0.4612850000000  0.5097940000000  0.5448790000000 1.0
C      1  0.5162760000000  0.5085980000000  0.6048070000000 1.0
C      1  0.4769290000000  0.5779680000000  0.5670750000000 1.0
C      1  0.4436240000000  0.4109970000000  0.4896840000000 1.0
C      1  0.4259300000000  0.5573290000000  0.5624630000000 1.0
C      1  0.4721940000000  0.4716270000000  0.5154440000000 1.0
C      1  0.5085580000000  0.5584210000000  0.6036570000000 1.0
C      1  0.5969090000000  0.4866160000000  0.5530010000000 1.0
C      1  0.4071640000000  0.4754630000000  0.5695540000000 1.0
C      1  0.5114460000000  0.4249040000000  0.4265650000000 1.0
C      1  0.4576460000000  0.5549830000000  0.5239110000000 1.0
C      1  0.3780430000000  0.4795710000000  0.4683290000000 1.0
C      1  0.5098610000000  0.4170900000000  0.4566660000000 1.0
C      1  0.5213940000000  0.4690730000000  0.4417590000000 1.0
C      1  0.5209050000000  0.4595310000000  0.3902870000000 1.0
C      1  0.4425010000000  0.5295910000000  0.6093280000000 1.0
C      1  0.5545640000000  0.5126040000000  0.5436280000000 1.0
C      1  0.5758410000000  0.4488930000000  0.5327240000000 1.0
C      1  0.5491610000000  0.5943810000000  0.5826880000000 1.0
C      1  0.5570860000000  0.4753990000000  0.6001490000000 1.0
C      1  0.5653690000000  0.5508500000000  0.5772290000000 1.0
C      1  0.5079290000000  0.5070320000000  0.5463310000000 1.0
C      1  0.4586540000000  0.4376550000000  0.4875380000000 1.0
C      1  0.4666490000000  0.5456790000000  0.4965490000000 1.0
C      1  0.5171290000000  0.3944420000000  0.5134200000000 1.0
C      1  0.4308400000000  0.5862310000000  0.4992810000000 1.0
C      1  0.5492680000000  0.4097080000000  0.5520100000000 1.0
C      1  0.5623040000000  0.5847120000000  0.4819440000000 1.0
C      1  0.5719160000000  0.4722890000000  0.4560310000000 1.0
C      1  0.4547370000000  0.4294350000000  0.4007350000000 1.0
C      1  0.6072540000000  0.5286140000000  0.4626070000000 1.0
C      1  0.4971230000000  0.5606930000000  0.4583580000000 1.0
C      1  0.5712530000000  0.4313190000000  0.4854310000000 1.0
C      1  0.4635910000000  0.5555430000000  0.4216620000000 1.0
C      1  0.4878290000000  0.5052180000000  0.4800260000000 1.0
C      1  0.6210480000000  0.4828930000000  0.4678450000000 1.0
C      1  0.5910250000000  0.5508400000000  0.4749360000000 1.0
C      1  0.3972950000000  0.5188190000000  0.5492120000000 1.0
C      1  0.5707250000000  0.4183020000000  0.5331400000000 1.0
C      1  0.6167000000000  0.4589620000000  0.5187090000000 1.0
C      1  0.5477250000000  0.5053440000000  0.6006730000000 1.0
C      1  0.4840690000000  0.4161950000000  0.5510080000000 1.0
C      1  0.4677410000000  0.4018720000000  0.5299760000000 1.0
C      1  0.5780680000000  0.5733240000000  0.5267640000000 1.0
C      1  0.5652540000000  0.5259530000000  0.4491620000000 1.0
C      1  0.3915980000000  0.5386540000000  0.4853290000000 1.0
C      1  0.4392030000000  0.5098330000000  0.4774840000000 1.0
C      1  0.5525540000000  0.4536400000000  0.4947710000000 1.0
C      1  0.4518340000000  0.5550240000000  0.6040270000000 1.0
C      1  0.4266380000000  0.4335470000000  0.5308270000000 1.0
C      1  0.4473640000000  0.5328760000000  0.4108110000000 1.0
C      1  0.4068140000000  0.5747610000000  0.5161630000000 1.0
C      1  0.4629930000000  0.5148970000000  0.4939890000000 1.0
C      1  0.4275620000000  0.4412550000000  0.4535650000000 1.0
C      1  0.4292600000000  0.5190910000000  0.4315830000000 1.0
C      1  0.5262290000000  0.3937730000000  0.5417380000000 1.0
C      1  0.4894770000000  0.5900720000000  0.5423390000000 1.0
C      1  0.5102930000000  0.4535530000000  0.4184700000000 1.0
C      1  0.3952060000000  0.5104640000000  0.4831700000000 1.0
C      1  0.5598960000000  0.4475790000000  0.4424930000000 1.0
C      1  0.5127830000000  0.4594470000000  0.5909890000000 1.0
C      1  0.5389930000000  0.5393770000000  0.4533770000000 1.0
C      1  0.5606930000000  0.5345770000000  0.5006650000000 1.0
C      1  0.4749370000000  0.5999160000000  0.5191640000000 1.0
C      1  0.5975850000000  0.5352270000000  0.5479370000000 1.0
C      1  0.5492580000000  0.4593530000000  0.5236340000000 1.0
C      1  0.4495400000000  0.4760220000000  0.4132380000000 1.0
C      1  0.3953800000000  0.4896290000000  0.5470100000000 1.0
C      1  0.5202520000000  0.5164980000000  0.4525590000000 1.0
END
