TITL C-950521-2237-248 -1.03935830111002e-07 125000 -307.640244777034 0 0 50 (C1) n - 1
REM
REM in /home/bkarasulu/work/CARBON/AIRSS/Generating-Clusters/EDIP-Nigel-Params/with-SteepDescent/Only-C1/SD-CG/HFTN-CG
REM
REM
REM
REM
REM
REM ./C.cell (11c1c37f851c82e70ff6c80c92926a4b)
REM
REM compiler GCC version 9.2.1 20190827 (Red Hat 9.2.1-1)
REM options -cpp -mtune=generic -march=x86-64 -g -O0 -fpre-include=/usr/include/finclude/math-vector-fortran.h
REM seed 1457531231 1534589865 233872614 -49486921 1488580427 828081224 1756376826 -593982362 -673223020 1282360147 -1929277557 803609574 70884764 1126272529 1760281436 -873492582 1763715036 -1346475053 -23877715 1374932265 -1118984466 -789081734 -2119794483 1536192450 731557222 -232554333 1444040559 -25064990 -322849567 -2077103427 -1213208543 -200139064 -1297867690
REM
CELL 1.54180   50.00000   50.00000   50.00000   90.00000   90.00000   90.00000
LATT -1
SFAC C  
C      1  0.5300640000000  0.4614560000000  0.5373640000000 1.0
C      1  0.5442010000000  0.5564960000000  0.4977090000000 1.0
C      1  0.5140770000000  0.5206270000000  0.4792800000000 1.0
C      1  0.4966620000000  0.5635560000000  0.5094180000000 1.0
C      1  0.5276860000000  0.5567920000000  0.4729840000000 1.0
C      1  0.5255980000000  0.5003530000000  0.4419680000000 1.0
C      1  0.5175460000000  0.4564910000000  0.5102850000000 1.0
C      1  0.5469060000000  0.4661710000000  0.4727330000000 1.0
C      1  0.4828930000000  0.5390080000000  0.5200500000000 1.0
C      1  0.5201030000000  0.5092080000000  0.5638550000000 1.0
C      1  0.4867160000000  0.5328920000000  0.4716010000000 1.0
C      1  0.5067880000000  0.4605920000000  0.5565560000000 1.0
C      1  0.4468310000000  0.5077680000000  0.4583180000000 1.0
C      1  0.4759170000000  0.4374520000000  0.4907510000000 1.0
C      1  0.5642620000000  0.4871410000000  0.4825590000000 1.0
C      1  0.5378400000000  0.5229550000000  0.4588950000000 1.0
C      1  0.4980190000000  0.5613360000000  0.4797410000000 1.0
C      1  0.4915500000000  0.4372450000000  0.4672290000000 1.0
C      1  0.4805340000000  0.4842210000000  0.4837350000000 1.0
C      1  0.5479140000000  0.4852430000000  0.5391780000000 1.0
C      1  0.5258550000000  0.4739780000000  0.4545190000000 1.0
C      1  0.5472940000000  0.5016410000000  0.5133320000000 1.0
C      1  0.4476080000000  0.5155750000000  0.5069160000000 1.0
C      1  0.4640860000000  0.4712760000000  0.5383680000000 1.0
C      1  0.5623690000000  0.5155660000000  0.4750610000000 1.0
C      1  0.4822680000000  0.5286260000000  0.4417500000000 1.0
C      1  0.4457870000000  0.4718900000000  0.5151350000000 1.0
C      1  0.4942700000000  0.4370190000000  0.5146810000000 1.0
C      1  0.4545930000000  0.5246880000000  0.4370940000000 1.0
C      1  0.4613970000000  0.5193840000000  0.5589570000000 1.0
C      1  0.4299340000000  0.4948500000000  0.5132570000000 1.0
C      1  0.4811780000000  0.4776970000000  0.4404820000000 1.0
C      1  0.5464510000000  0.4984390000000  0.5640110000000 1.0
C      1  0.5182400000000  0.5070460000000  0.5066260000000 1.0
C      1  0.4650640000000  0.5121070000000  0.4823880000000 1.0
C      1  0.4544410000000  0.4787480000000  0.4550640000000 1.0
C      1  0.4832170000000  0.4486490000000  0.5408150000000 1.0
C      1  0.5040710000000  0.4824020000000  0.5024820000000 1.0
C      1  0.5258490000000  0.5405270000000  0.5414450000000 1.0
C      1  0.5004240000000  0.4596100000000  0.4524670000000 1.0
C      1  0.4588940000000  0.4625450000000  0.4891180000000 1.0
C      1  0.4622170000000  0.5424030000000  0.5430890000000 1.0
C      1  0.5624320000000  0.5332410000000  0.4990740000000 1.0
C      1  0.5378640000000  0.4472270000000  0.4913300000000 1.0
C      1  0.5250100000000  0.5609690000000  0.5205190000000 1.0
C      1  0.5060310000000  0.5219120000000  0.5300960000000 1.0
C      1  0.4965760000000  0.5034400000000  0.4335490000000 1.0
C      1  0.4717510000000  0.4933620000000  0.5567660000000 1.0
C      1  0.4988490000000  0.4879430000000  0.5665000000000 1.0
C      1  0.4438730000000  0.5402400000000  0.5209010000000 1.0
END
