TITL C-950526-5686-496 -4.61634816444702e-06 125000 -1141.16051999363 0 0 183 (C1) n - 1
REM
REM in /home/bkarasulu/work/CARBON/AIRSS/Generating-Clusters/EDIP-Nigel-Params/with-SteepDescent/Only-C1/SD-CG/HFTN-CG
REM
REM
REM
REM
REM
REM ./C.cell (11c1c37f851c82e70ff6c80c92926a4b)
REM
REM compiler GCC version 9.2.1 20190827 (Red Hat 9.2.1-1)
REM options -cpp -mtune=generic -march=x86-64 -g -O0 -fpre-include=/usr/include/finclude/math-vector-fortran.h
REM seed -813314257 558305507 1548629304 627211779 -1891561490 -1145317096 -410616035 1298556378 621401383 -1602330974 45937678 -1561088126 913628292 -624910368 -2049724484 -1905857515 1840457568 -1130827601 -390598453 -1279696975 281440321 252850360 680777252 -524346430 494540761 212233340 2083438478 -900320653 -16245927 1050899085 346356426 -31760916 1845431029
REM
CELL 1.54180   50.00000   50.00000   50.00000   90.00000   90.00000   90.00000
LATT -1
SFAC C  
C      1  0.5240740000000  0.4140770000000  0.5021420000000 1.0
C      1  0.4956140000000  0.4612000000000  0.4330950000000 1.0
C      1  0.4256390000000  0.4292260000000  0.5403020000000 1.0
C      1  0.5667340000000  0.4739510000000  0.4305520000000 1.0
C      1  0.4795340000000  0.4843680000000  0.4677890000000 1.0
C      1  0.5459240000000  0.5094280000000  0.4467120000000 1.0
C      1  0.6110040000000  0.5029010000000  0.5179440000000 1.0
C      1  0.5625560000000  0.5976710000000  0.5296180000000 1.0
C      1  0.4894230000000  0.4266790000000  0.4125370000000 1.0
C      1  0.5828510000000  0.5644070000000  0.4657570000000 1.0
C      1  0.4976140000000  0.5242480000000  0.3920910000000 1.0
C      1  0.4082270000000  0.4479570000000  0.5038770000000 1.0
C      1  0.5779220000000  0.5057690000000  0.4887480000000 1.0
C      1  0.4951360000000  0.5708940000000  0.4127710000000 1.0
C      1  0.5468470000000  0.4825030000000  0.5860640000000 1.0
C      1  0.3888680000000  0.5441080000000  0.5093050000000 1.0
C      1  0.5104670000000  0.4693630000000  0.5542540000000 1.0
C      1  0.4715540000000  0.4372920000000  0.5286210000000 1.0
C      1  0.4564060000000  0.4909740000000  0.3996670000000 1.0
C      1  0.4819580000000  0.6012980000000  0.5519640000000 1.0
C      1  0.5710990000000  0.5781850000000  0.5483490000000 1.0
C      1  0.3986050000000  0.5119910000000  0.5445710000000 1.0
C      1  0.5732810000000  0.5182860000000  0.5894350000000 1.0
C      1  0.5302590000000  0.5724110000000  0.5135780000000 1.0
C      1  0.4856000000000  0.5034750000000  0.4439350000000 1.0
C      1  0.5286150000000  0.5034580000000  0.5120140000000 1.0
C      1  0.4859700000000  0.5490440000000  0.3976200000000 1.0
C      1  0.5695490000000  0.5212220000000  0.4190200000000 1.0
C      1  0.4793820000000  0.4323700000000  0.4814650000000 1.0
C      1  0.5126500000000  0.4489390000000  0.5873020000000 1.0
C      1  0.5643000000000  0.4732710000000  0.5229780000000 1.0
C      1  0.5071080000000  0.5881840000000  0.5175710000000 1.0
C      1  0.5017870000000  0.4084040000000  0.5551440000000 1.0
C      1  0.4091790000000  0.4545870000000  0.4567530000000 1.0
C      1  0.5003010000000  0.5262320000000  0.4524770000000 1.0
C      1  0.5023290000000  0.5008940000000  0.6036080000000 1.0
C      1  0.5289200000000  0.3989940000000  0.5525530000000 1.0
C      1  0.5592330000000  0.4370700000000  0.4734700000000 1.0
C      1  0.4758450000000  0.5456370000000  0.4953880000000 1.0
C      1  0.3929890000000  0.5160370000000  0.4997360000000 1.0
C      1  0.5337640000000  0.5440070000000  0.4797580000000 1.0
C      1  0.4946740000000  0.4720180000000  0.5955580000000 1.0
C      1  0.4314130000000  0.4084110000000  0.4763990000000 1.0
C      1  0.4860460000000  0.5495580000000  0.4653450000000 1.0
C      1  0.4622850000000  0.4395600000000  0.4139050000000 1.0
C      1  0.4429210000000  0.4287290000000  0.4323830000000 1.0
C      1  0.5176030000000  0.4595570000000  0.4546740000000 1.0
C      1  0.3935410000000  0.4948750000000  0.5207370000000 1.0
C      1  0.5155900000000  0.5541030000000  0.5938110000000 1.0
C      1  0.4518080000000  0.4621230000000  0.3984390000000 1.0
C      1  0.4189180000000  0.4848290000000  0.4577770000000 1.0
C      1  0.4399640000000  0.5219410000000  0.4154200000000 1.0
C      1  0.4383670000000  0.5382910000000  0.5858750000000 1.0
C      1  0.5473510000000  0.5664600000000  0.4268150000000 1.0
C      1  0.4859610000000  0.4851770000000  0.5448890000000 1.0
C      1  0.5098540000000  0.6040790000000  0.5419800000000 1.0
C      1  0.5642470000000  0.4795370000000  0.4934760000000 1.0
C      1  0.5066690000000  0.5311740000000  0.5411420000000 1.0
C      1  0.4744550000000  0.5561920000000  0.5705390000000 1.0
C      1  0.4619390000000  0.5915430000000  0.5215230000000 1.0
C      1  0.5640030000000  0.4943280000000  0.4103120000000 1.0
C      1  0.4120580000000  0.4704000000000  0.5721750000000 1.0
C      1  0.5135270000000  0.5930600000000  0.4703650000000 1.0
C      1  0.4979370000000  0.4230460000000  0.5802050000000 1.0
C      1  0.5556470000000  0.5851380000000  0.5023270000000 1.0
C      1  0.5309450000000  0.4600860000000  0.4066850000000 1.0
C      1  0.4088190000000  0.4991050000000  0.5687590000000 1.0
C      1  0.4645040000000  0.4623060000000  0.4520930000000 1.0
C      1  0.5340370000000  0.4823360000000  0.4894140000000 1.0
C      1  0.5883650000000  0.5378080000000  0.4553050000000 1.0
C      1  0.5008200000000  0.4539560000000  0.4797660000000 1.0
C      1  0.6250880000000  0.4755900000000  0.4800250000000 1.0
C      1  0.5761440000000  0.4896860000000  0.5836670000000 1.0
C      1  0.4211990000000  0.5164640000000  0.4936260000000 1.0
C      1  0.5589830000000  0.4321730000000  0.5780810000000 1.0
C      1  0.4595080000000  0.5196840000000  0.5892780000000 1.0
C      1  0.4828800000000  0.5678830000000  0.5199040000000 1.0
C      1  0.6125850000000  0.5295840000000  0.5010080000000 1.0
C      1  0.4055880000000  0.5410660000000  0.4580790000000 1.0
C      1  0.5294990000000  0.5463740000000  0.5271760000000 1.0
C      1  0.6120130000000  0.5247790000000  0.4698210000000 1.0
C      1  0.4496100000000  0.5244560000000  0.4603850000000 1.0
C      1  0.4870270000000  0.5832210000000  0.5738750000000 1.0
C      1  0.6029480000000  0.4718840000000  0.5185290000000 1.0
C      1  0.5421170000000  0.4529620000000  0.5913130000000 1.0
C      1  0.5156680000000  0.5780580000000  0.5775110000000 1.0
C      1  0.5884230000000  0.4855130000000  0.5579770000000 1.0
C      1  0.5747510000000  0.4371000000000  0.5532940000000 1.0
C      1  0.6009310000000  0.5084430000000  0.5443990000000 1.0
C      1  0.5247050000000  0.5301360000000  0.4359630000000 1.0
C      1  0.6012650000000  0.5576220000000  0.5123150000000 1.0
C      1  0.5599310000000  0.5242390000000  0.5616780000000 1.0
C      1  0.5250380000000  0.5210280000000  0.4047140000000 1.0
C      1  0.4584190000000  0.5134810000000  0.4373840000000 1.0
C      1  0.5194990000000  0.3961870000000  0.4773410000000 1.0
C      1  0.4029280000000  0.5411810000000  0.5368300000000 1.0
C      1  0.5018580000000  0.6061230000000  0.4951340000000 1.0
C      1  0.5768490000000  0.5629480000000  0.4951190000000 1.0
C      1  0.4747060000000  0.5843360000000  0.4291030000000 1.0
C      1  0.5682480000000  0.4176110000000  0.5320620000000 1.0
C      1  0.4872190000000  0.5281330000000  0.5953110000000 1.0
C      1  0.5042930000000  0.4669270000000  0.5075730000000 1.0
C      1  0.4589060000000  0.5654160000000  0.4465920000000 1.0
C      1  0.4971620000000  0.5073120000000  0.5245240000000 1.0
C      1  0.4172440000000  0.5844040000000  0.4910940000000 1.0
C      1  0.4013270000000  0.4294100000000  0.5244700000000 1.0
C      1  0.4177840000000  0.4426190000000  0.4323730000000 1.0
C      1  0.6063610000000  0.4579520000000  0.4921730000000 1.0
C      1  0.4531250000000  0.4493550000000  0.4793220000000 1.0
C      1  0.4493620000000  0.4071330000000  0.4523800000000 1.0
C      1  0.5311890000000  0.4903420000000  0.5600130000000 1.0
C      1  0.5304160000000  0.5302490000000  0.5857190000000 1.0
C      1  0.4618860000000  0.4940650000000  0.4903430000000 1.0
C      1  0.5422090000000  0.4039750000000  0.5267790000000 1.0
C      1  0.6072360000000  0.4935180000000  0.4658020000000 1.0
C      1  0.5450220000000  0.5950860000000  0.4727640000000 1.0
C      1  0.4132100000000  0.5117160000000  0.4199110000000 1.0
C      1  0.4723210000000  0.5169730000000  0.5081470000000 1.0
C      1  0.4510720000000  0.5252140000000  0.5316680000000 1.0
C      1  0.4238610000000  0.4393310000000  0.4790550000000 1.0
C      1  0.4325190000000  0.5508100000000  0.5378370000000 1.0
C      1  0.4120370000000  0.5579680000000  0.4355090000000 1.0
C      1  0.4693160000000  0.4680370000000  0.5251190000000 1.0
C      1  0.5110170000000  0.5631080000000  0.4747230000000 1.0
C      1  0.5189120000000  0.5678090000000  0.4285200000000 1.0
C      1  0.4369560000000  0.5874910000000  0.4675870000000 1.0
C      1  0.4903340000000  0.3868080000000  0.4800550000000 1.0
C      1  0.4971450000000  0.4129660000000  0.4385540000000 1.0
C      1  0.4394760000000  0.4754140000000  0.5328940000000 1.0
C      1  0.3968240000000  0.5631000000000  0.4867900000000 1.0
C      1  0.4451980000000  0.4283870000000  0.5176890000000 1.0
C      1  0.4700560000000  0.4300230000000  0.5805950000000 1.0
C      1  0.4622670000000  0.6026840000000  0.4701610000000 1.0
C      1  0.4576900000000  0.4147800000000  0.5572250000000 1.0
C      1  0.5465590000000  0.4480100000000  0.5222820000000 1.0
C      1  0.5402380000000  0.5299400000000  0.5059060000000 1.0
C      1  0.4411070000000  0.5013970000000  0.5484400000000 1.0
C      1  0.4433840000000  0.5578900000000  0.5663220000000 1.0
C      1  0.4779860000000  0.3960050000000  0.5427440000000 1.0
C      1  0.4417700000000  0.4730930000000  0.4342590000000 1.0
C      1  0.4035360000000  0.5104940000000  0.4462380000000 1.0
C      1  0.5183310000000  0.4542870000000  0.5303040000000 1.0
C      1  0.4598930000000  0.4961870000000  0.5712440000000 1.0
C      1  0.5447380000000  0.4081950000000  0.5739970000000 1.0
C      1  0.4373770000000  0.5729610000000  0.5138510000000 1.0
C      1  0.4846950000000  0.6015920000000  0.4504370000000 1.0
C      1  0.5009020000000  0.4890210000000  0.4204750000000 1.0
C      1  0.4467210000000  0.4750860000000  0.5873450000000 1.0
C      1  0.5957590000000  0.4583900000000  0.5487480000000 1.0
C      1  0.5598720000000  0.5775240000000  0.4527210000000 1.0
C      1  0.4381220000000  0.5516030000000  0.4271360000000 1.0
C      1  0.4485490000000  0.5538530000000  0.4936370000000 1.0
C      1  0.5636630000000  0.5238660000000  0.4669490000000 1.0
C      1  0.4313490000000  0.4904500000000  0.4871140000000 1.0
C      1  0.5913580000000  0.5577510000000  0.5413410000000 1.0
C      1  0.5240240000000  0.4101510000000  0.4498660000000 1.0
C      1  0.5805540000000  0.5294250000000  0.5401270000000 1.0
C      1  0.4763070000000  0.3943480000000  0.5086780000000 1.0
C      1  0.4721900000000  0.6078660000000  0.4970000000000 1.0
C      1  0.5694480000000  0.5274880000000  0.5103760000000 1.0
C      1  0.4310430000000  0.5367830000000  0.4765330000000 1.0
C      1  0.4902590000000  0.4221440000000  0.5089970000000 1.0
C      1  0.5099100000000  0.4422770000000  0.3993480000000 1.0
C      1  0.5867170000000  0.4740140000000  0.4515060000000 1.0
C      1  0.5489840000000  0.4970660000000  0.5358520000000 1.0
C      1  0.5287580000000  0.4877810000000  0.4609380000000 1.0
C      1  0.4688890000000  0.4579850000000  0.5916410000000 1.0
C      1  0.5397570000000  0.4369610000000  0.4500150000000 1.0
C      1  0.5360900000000  0.4905600000000  0.4006000000000 1.0
C      1  0.5556770000000  0.5441700000000  0.4090470000000 1.0
C      1  0.5510510000000  0.4500030000000  0.4251190000000 1.0
C      1  0.5164920000000  0.5161800000000  0.5647800000000 1.0
C      1  0.5394880000000  0.4388300000000  0.4945770000000 1.0
C      1  0.4849670000000  0.4973160000000  0.3968190000000 1.0
C      1  0.5343620000000  0.5047010000000  0.6062430000000 1.0
C      1  0.4813630000000  0.5469980000000  0.5429260000000 1.0
C      1  0.4466190000000  0.4027500000000  0.5027580000000 1.0
C      1  0.5602800000000  0.5181830000000  0.6151970000000 1.0
C      1  0.4784190000000  0.4083060000000  0.4613900000000 1.0
C      1  0.5344130000000  0.5896680000000  0.5544510000000 1.0
C      1  0.4173610000000  0.4758760000000  0.5114050000000 1.0
C      1  0.5797080000000  0.4590120000000  0.4767440000000 1.0
C      1  0.4282200000000  0.4564990000000  0.5520820000000 1.0
END
