TITL C-951343-2256-510 2.68212042301585e-06 125000 -1253.68858971923 0 0 198 (C1) n - 1
REM
REM in /home/bkarasulu/work/CARBON/AIRSS/Generating-Clusters/EDIP-Nigel-Params/with-SteepDescent/Only-C1/SD-CG/HFTN-CG
REM
REM
REM
REM
REM
REM ./C.cell (11c1c37f851c82e70ff6c80c92926a4b)
REM
REM compiler GCC version 9.2.1 20190827 (Red Hat 9.2.1-1)
REM options -cpp -mtune=generic -march=x86-64 -g -O0 -fpre-include=/usr/include/finclude/math-vector-fortran.h
REM seed 1938336855 -565422255 1261323506 1477267190 -1544411711 2139528675 1935928690 -424819373 -1311056968 976788292 -1483024136 103694094 -1613408476 -150944064 -1563495161 -1359636943 -414309885 -1499095624 -1478297111 -72008111 1539767467 1579871894 635176634 1074414729 1675481699 -1024888546 -2006576491 -2034920208 -1723802423 -597504351 -1540732920 -794504250 -16686158
REM
CELL 1.54180   50.00000   50.00000   50.00000   90.00000   90.00000   90.00000
LATT -1
SFAC C  
C      1  0.5564870000000  0.5976050000000  0.5103670000000 1.0
C      1  0.4957870000000  0.4907010000000  0.5163600000000 1.0
C      1  0.4026390000000  0.4848880000000  0.5519540000000 1.0
C      1  0.4819850000000  0.5361080000000  0.5455830000000 1.0
C      1  0.5154460000000  0.5119190000000  0.4282390000000 1.0
C      1  0.3885350000000  0.5366360000000  0.4673150000000 1.0
C      1  0.5134560000000  0.4027410000000  0.4865820000000 1.0
C      1  0.5498310000000  0.4556410000000  0.4295490000000 1.0
C      1  0.5323980000000  0.5921950000000  0.4309450000000 1.0
C      1  0.5030640000000  0.5526530000000  0.4909840000000 1.0
C      1  0.4568290000000  0.4357110000000  0.5703430000000 1.0
C      1  0.4083620000000  0.4431600000000  0.4823620000000 1.0
C      1  0.6174870000000  0.5032440000000  0.5141860000000 1.0
C      1  0.5374990000000  0.5877780000000  0.5699860000000 1.0
C      1  0.5381190000000  0.5345900000000  0.6040470000000 1.0
C      1  0.4808060000000  0.5517330000000  0.5944800000000 1.0
C      1  0.4824250000000  0.6034350000000  0.5042370000000 1.0
C      1  0.5163760000000  0.4623010000000  0.6039480000000 1.0
C      1  0.6108810000000  0.5042910000000  0.4547390000000 1.0
C      1  0.4986620000000  0.4008810000000  0.5507550000000 1.0
C      1  0.4672510000000  0.5791260000000  0.4311850000000 1.0
C      1  0.5852950000000  0.5162410000000  0.4127590000000 1.0
C      1  0.3870550000000  0.5101700000000  0.4814240000000 1.0
C      1  0.4503840000000  0.3829070000000  0.5074610000000 1.0
C      1  0.6063860000000  0.5328990000000  0.5088430000000 1.0
C      1  0.5784980000000  0.4302920000000  0.4849380000000 1.0
C      1  0.4881660000000  0.4820130000000  0.4878630000000 1.0
C      1  0.5104700000000  0.4666610000000  0.4758250000000 1.0
C      1  0.4312800000000  0.5806780000000  0.5714420000000 1.0
C      1  0.5582100000000  0.4002540000000  0.5209050000000 1.0
C      1  0.4716200000000  0.3862870000000  0.4896410000000 1.0
C      1  0.5956370000000  0.5626800000000  0.4675090000000 1.0
C      1  0.5074490000000  0.4929060000000  0.5651570000000 1.0
C      1  0.5352730000000  0.5209450000000  0.4077010000000 1.0
C      1  0.5947840000000  0.5402600000000  0.5353510000000 1.0
C      1  0.3802430000000  0.5308310000000  0.5263560000000 1.0
C      1  0.5202600000000  0.4437340000000  0.4226600000000 1.0
C      1  0.5882510000000  0.5386970000000  0.4846920000000 1.0
C      1  0.5637790000000  0.4301640000000  0.4386240000000 1.0
C      1  0.4212960000000  0.5332290000000  0.4961440000000 1.0
C      1  0.4209890000000  0.4161840000000  0.4818890000000 1.0
C      1  0.4352100000000  0.4717120000000  0.4119470000000 1.0
C      1  0.4123010000000  0.5073170000000  0.5686440000000 1.0
C      1  0.5329540000000  0.4614020000000  0.4923400000000 1.0
C      1  0.3937780000000  0.4842910000000  0.5235930000000 1.0
C      1  0.4232160000000  0.5439680000000  0.4314170000000 1.0
C      1  0.5188790000000  0.5834740000000  0.5904990000000 1.0
C      1  0.5443150000000  0.5204010000000  0.4974560000000 1.0
C      1  0.4376670000000  0.5962700000000  0.4615610000000 1.0
C      1  0.4685370000000  0.5288160000000  0.4297940000000 1.0
C      1  0.5759840000000  0.4125860000000  0.5381560000000 1.0
C      1  0.6046940000000  0.4995460000000  0.4251950000000 1.0
C      1  0.4822230000000  0.4348350000000  0.5833480000000 1.0
C      1  0.4897170000000  0.5852680000000  0.5504700000000 1.0
C      1  0.4843560000000  0.5979350000000  0.4470400000000 1.0
C      1  0.4420350000000  0.4252070000000  0.4333930000000 1.0
C      1  0.4294620000000  0.5824940000000  0.5435480000000 1.0
C      1  0.4771300000000  0.5623130000000  0.5365190000000 1.0
C      1  0.5728800000000  0.5843440000000  0.4621950000000 1.0
C      1  0.6087350000000  0.4714910000000  0.5550040000000 1.0
C      1  0.5230770000000  0.4700040000000  0.5757520000000 1.0
C      1  0.5610410000000  0.5429770000000  0.4419590000000 1.0
C      1  0.5039470000000  0.5545760000000  0.4243810000000 1.0
C      1  0.4322260000000  0.5528830000000  0.5762990000000 1.0
C      1  0.6067820000000  0.4490010000000  0.5384630000000 1.0
C      1  0.4732730000000  0.5393590000000  0.4961900000000 1.0
C      1  0.4985790000000  0.3779850000000  0.4920390000000 1.0
C      1  0.4583890000000  0.5600510000000  0.5136490000000 1.0
C      1  0.5983890000000  0.4695510000000  0.5809510000000 1.0
C      1  0.4317220000000  0.4218320000000  0.5306850000000 1.0
C      1  0.4403500000000  0.5260790000000  0.4137860000000 1.0
C      1  0.4924950000000  0.5774760000000  0.5824380000000 1.0
C      1  0.4371600000000  0.4558820000000  0.5763970000000 1.0
C      1  0.5340670000000  0.6084120000000  0.5249920000000 1.0
C      1  0.4687670000000  0.4139800000000  0.4800180000000 1.0
C      1  0.6061630000000  0.4804850000000  0.4974300000000 1.0
C      1  0.5062680000000  0.5851210000000  0.4994320000000 1.0
C      1  0.4709570000000  0.4303450000000  0.4264220000000 1.0
C      1  0.4656530000000  0.6060910000000  0.4692590000000 1.0
C      1  0.4878910000000  0.4543650000000  0.6040140000000 1.0
C      1  0.4439740000000  0.4774350000000  0.5950240000000 1.0
C      1  0.5240400000000  0.4694190000000  0.5190380000000 1.0
C      1  0.5020780000000  0.4141670000000  0.5765060000000 1.0
C      1  0.5146270000000  0.5189610000000  0.5776980000000 1.0
C      1  0.4047770000000  0.4905810000000  0.4640100000000 1.0
C      1  0.4691570000000  0.5036320000000  0.4460120000000 1.0
C      1  0.4697840000000  0.5400140000000  0.3926640000000 1.0
C      1  0.4271860000000  0.5703500000000  0.4729930000000 1.0
C      1  0.5076570000000  0.4790510000000  0.3928210000000 1.0
C      1  0.4723530000000  0.4794670000000  0.6053670000000 1.0
C      1  0.5878450000000  0.5553070000000  0.4407950000000 1.0
C      1  0.4391080000000  0.5490000000000  0.4567630000000 1.0
C      1  0.5828490000000  0.5145390000000  0.5445650000000 1.0
C      1  0.4745450000000  0.4072160000000  0.5349670000000 1.0
C      1  0.6144930000000  0.4777180000000  0.4683680000000 1.0
C      1  0.5850680000000  0.4362940000000  0.4577740000000 1.0
C      1  0.4917470000000  0.4079000000000  0.4374090000000 1.0
C      1  0.4562470000000  0.5103970000000  0.5683480000000 1.0
C      1  0.5519420000000  0.5960880000000  0.4820070000000 1.0
C      1  0.5181140000000  0.5246820000000  0.3841070000000 1.0
C      1  0.5176250000000  0.4173100000000  0.5144330000000 1.0
C      1  0.5603160000000  0.5685920000000  0.5161350000000 1.0
C      1  0.4478050000000  0.5269650000000  0.4770340000000 1.0
C      1  0.5302770000000  0.4224930000000  0.5809930000000 1.0
C      1  0.5191800000000  0.4142990000000  0.4281770000000 1.0
C      1  0.4818960000000  0.5640330000000  0.4068610000000 1.0
C      1  0.4067870000000  0.5704950000000  0.5309570000000 1.0
C      1  0.5515560000000  0.4751350000000  0.4544910000000 1.0
C      1  0.4756690000000  0.4436610000000  0.3996210000000 1.0
C      1  0.4784220000000  0.4801490000000  0.4293890000000 1.0
C      1  0.5403720000000  0.3998510000000  0.4739550000000 1.0
C      1  0.5594420000000  0.5463090000000  0.4916070000000 1.0
C      1  0.4616980000000  0.4625300000000  0.4913610000000 1.0
C      1  0.4953970000000  0.4183320000000  0.4659990000000 1.0
C      1  0.4484850000000  0.4874610000000  0.5269520000000 1.0
C      1  0.5185340000000  0.4885500000000  0.6195310000000 1.0
C      1  0.5609960000000  0.4641550000000  0.4815250000000 1.0
C      1  0.5637060000000  0.5009550000000  0.5201770000000 1.0
C      1  0.3878690000000  0.5092410000000  0.5105110000000 1.0
C      1  0.5227660000000  0.5886160000000  0.5436940000000 1.0
C      1  0.4908940000000  0.5019010000000  0.6174090000000 1.0
C      1  0.5594640000000  0.4574290000000  0.5533790000000 1.0
C      1  0.5416170000000  0.5050030000000  0.6086820000000 1.0
C      1  0.5941360000000  0.4632240000000  0.4520100000000 1.0
C      1  0.5377650000000  0.5069830000000  0.4699080000000 1.0
C      1  0.4444210000000  0.5147980000000  0.5388320000000 1.0
C      1  0.4538760000000  0.5887230000000  0.5021910000000 1.0
C      1  0.5226950000000  0.5977680000000  0.4778390000000 1.0
C      1  0.4297190000000  0.4991710000000  0.4817200000000 1.0
C      1  0.5622100000000  0.5120330000000  0.4503650000000 1.0
C      1  0.5065470000000  0.4856820000000  0.4219260000000 1.0
C      1  0.4131050000000  0.5357260000000  0.5616240000000 1.0
C      1  0.4751220000000  0.4547750000000  0.4449850000000 1.0
C      1  0.5017550000000  0.4472010000000  0.4561720000000 1.0
C      1  0.4275100000000  0.4988220000000  0.4198110000000 1.0
C      1  0.4040000000000  0.5021250000000  0.4364250000000 1.0
C      1  0.4780920000000  0.5190330000000  0.5199810000000 1.0
C      1  0.4401960000000  0.5911180000000  0.4329000000000 1.0
C      1  0.4121360000000  0.4420310000000  0.5343850000000 1.0
C      1  0.4323570000000  0.4052990000000  0.5073930000000 1.0
C      1  0.5049380000000  0.4495740000000  0.3963540000000 1.0
C      1  0.5086290000000  0.5368280000000  0.5559810000000 1.0
C      1  0.4217230000000  0.4598690000000  0.4604940000000 1.0
C      1  0.5309460000000  0.3978230000000  0.5308290000000 1.0
C      1  0.5598740000000  0.5663270000000  0.5652650000000 1.0
C      1  0.5358150000000  0.4387140000000  0.6059910000000 1.0
C      1  0.4664220000000  0.4337270000000  0.5066480000000 1.0
C      1  0.5808240000000  0.4393570000000  0.5420660000000 1.0
C      1  0.5579760000000  0.5414010000000  0.5820290000000 1.0
C      1  0.4329150000000  0.5433910000000  0.5229520000000 1.0
C      1  0.5456620000000  0.5563720000000  0.4646420000000 1.0
C      1  0.3982190000000  0.5307530000000  0.4392400000000 1.0
C      1  0.5938740000000  0.4719920000000  0.4239880000000 1.0
C      1  0.4835970000000  0.4923310000000  0.3805440000000 1.0
C      1  0.6086010000000  0.4985990000000  0.5432250000000 1.0
C      1  0.5469910000000  0.5470730000000  0.4161540000000 1.0
C      1  0.4644610000000  0.4718810000000  0.4030730000000 1.0
C      1  0.4998340000000  0.5288600000000  0.6035450000000 1.0
C      1  0.5701570000000  0.5170480000000  0.5721620000000 1.0
C      1  0.5124670000000  0.4431900000000  0.5319270000000 1.0
C      1  0.4524370000000  0.4577210000000  0.4648140000000 1.0
C      1  0.5425820000000  0.4107380000000  0.4464580000000 1.0
C      1  0.5777450000000  0.4887860000000  0.4933040000000 1.0
C      1  0.4516210000000  0.4163610000000  0.5501850000000 1.0
C      1  0.5697060000000  0.4677390000000  0.5818760000000 1.0
C      1  0.3944490000000  0.5479500000000  0.5431630000000 1.0
C      1  0.5665770000000  0.4728560000000  0.4107080000000 1.0
C      1  0.5796810000000  0.5652450000000  0.5389850000000 1.0
C      1  0.5582650000000  0.4948880000000  0.5863280000000 1.0
C      1  0.4660570000000  0.5540670000000  0.4469470000000 1.0
C      1  0.5852580000000  0.5114950000000  0.4699660000000 1.0
C      1  0.4749740000000  0.4766620000000  0.5354280000000 1.0
C      1  0.4431670000000  0.4143700000000  0.4620010000000 1.0
C      1  0.5275220000000  0.5684450000000  0.4166770000000 1.0
C      1  0.5367790000000  0.5632720000000  0.5336140000000 1.0
C      1  0.5127810000000  0.5919290000000  0.4513720000000 1.0
C      1  0.5128710000000  0.5184980000000  0.4573070000000 1.0
C      1  0.5278100000000  0.5363380000000  0.5354810000000 1.0
C      1  0.4451160000000  0.6021590000000  0.5282300000000 1.0
C      1  0.5187790000000  0.5310030000000  0.5084810000000 1.0
C      1  0.4592210000000  0.5401420000000  0.5773920000000 1.0
C      1  0.4002230000000  0.5608960000000  0.4804080000000 1.0
C      1  0.4898420000000  0.5211650000000  0.3800290000000 1.0
C      1  0.5303640000000  0.4448430000000  0.5594100000000 1.0
C      1  0.4809050000000  0.4454320000000  0.5344470000000 1.0
C      1  0.5144590000000  0.5490150000000  0.4610760000000 1.0
C      1  0.4864630000000  0.5067530000000  0.4693220000000 1.0
C      1  0.5614810000000  0.4496330000000  0.6030320000000 1.0
C      1  0.5487750000000  0.4786830000000  0.5333210000000 1.0
C      1  0.4244270000000  0.4498430000000  0.4310200000000 1.0
C      1  0.5610380000000  0.5025160000000  0.4073180000000 1.0
C      1  0.4141710000000  0.4587930000000  0.5582650000000 1.0
C      1  0.5617290000000  0.4078440000000  0.4923330000000 1.0
C      1  0.4745710000000  0.6082570000000  0.5361390000000 1.0
C      1  0.4378100000000  0.4776650000000  0.5021740000000 1.0
C      1  0.4274670000000  0.5005590000000  0.5922800000000 1.0
C      1  0.4787790000000  0.4883320000000  0.5625220000000 1.0
C      1  0.4052430000000  0.4583090000000  0.5104990000000 1.0
END
