TITL C-951347-9520-327 1.04016428284755e-06 125000 -703.550120235707 0 0 112 (C1) n - 1
REM
REM in /home/bkarasulu/work/CARBON/AIRSS/Generating-Clusters/EDIP-Nigel-Params/with-SteepDescent/Only-C1/SD-CG/HFTN-CG
REM
REM
REM
REM
REM
REM ./C.cell (11c1c37f851c82e70ff6c80c92926a4b)
REM
REM compiler GCC version 9.2.1 20190827 (Red Hat 9.2.1-1)
REM options -cpp -mtune=generic -march=x86-64 -g -O0 -fpre-include=/usr/include/finclude/math-vector-fortran.h
REM seed -2133732963 723175347 -2013950015 -634055035 872558573 -716245303 -345597293 -1967469153 1615034442 -1751599968 -7826396 981948911 -1211024263 1910591015 868185415 -143843045 1600150707 941342163 340875004 -508354331 1214511743 979387737 -1033711309 1845323309 -992817023 -17706528 -438003534 216552637 -344618542 30712074 1251577808 455239811 -290295648
REM
CELL 1.54180   50.00000   50.00000   50.00000   90.00000   90.00000   90.00000
LATT -1
SFAC C  
C      1  0.4510720000000  0.4452720000000  0.4535580000000 1.0
C      1  0.4360830000000  0.4384160000000  0.5001530000000 1.0
C      1  0.5726930000000  0.4749390000000  0.5379090000000 1.0
C      1  0.4714180000000  0.5243240000000  0.4189970000000 1.0
C      1  0.5285950000000  0.4778650000000  0.4389820000000 1.0
C      1  0.4441080000000  0.4587700000000  0.4801450000000 1.0
C      1  0.4544290000000  0.4167640000000  0.4616120000000 1.0
C      1  0.4417620000000  0.5637740000000  0.4763050000000 1.0
C      1  0.4543510000000  0.5779090000000  0.5010100000000 1.0
C      1  0.4745560000000  0.4822480000000  0.5011580000000 1.0
C      1  0.4902110000000  0.4455550000000  0.5657230000000 1.0
C      1  0.5517810000000  0.5587840000000  0.5206710000000 1.0
C      1  0.5714140000000  0.5399530000000  0.4439200000000 1.0
C      1  0.5433210000000  0.4503340000000  0.4434030000000 1.0
C      1  0.5302260000000  0.5231120000000  0.4163170000000 1.0
C      1  0.5173220000000  0.5521610000000  0.5627960000000 1.0
C      1  0.4648820000000  0.5212470000000  0.6056780000000 1.0
C      1  0.5252540000000  0.4412000000000  0.5246430000000 1.0
C      1  0.5942750000000  0.5329920000000  0.5039560000000 1.0
C      1  0.5214410000000  0.4315650000000  0.4500400000000 1.0
C      1  0.4973640000000  0.4297760000000  0.5207420000000 1.0
C      1  0.5299220000000  0.4851050000000  0.5430380000000 1.0
C      1  0.4249270000000  0.5233240000000  0.4405350000000 1.0
C      1  0.4783950000000  0.5325540000000  0.5198040000000 1.0
C      1  0.4655780000000  0.5061240000000  0.4680420000000 1.0
C      1  0.5699440000000  0.5580400000000  0.4653700000000 1.0
C      1  0.5976180000000  0.4743890000000  0.4954550000000 1.0
C      1  0.4793350000000  0.4436350000000  0.5388550000000 1.0
C      1  0.4853570000000  0.4280650000000  0.4928680000000 1.0
C      1  0.5163770000000  0.5493740000000  0.4197130000000 1.0
C      1  0.5085130000000  0.4837820000000  0.5894890000000 1.0
C      1  0.4331820000000  0.4871420000000  0.4855110000000 1.0
C      1  0.5751900000000  0.5135520000000  0.5678150000000 1.0
C      1  0.4696170000000  0.5679100000000  0.5516970000000 1.0
C      1  0.5074800000000  0.5211750000000  0.5165710000000 1.0
C      1  0.4521100000000  0.4838940000000  0.5735220000000 1.0
C      1  0.4808930000000  0.4081570000000  0.4505220000000 1.0
C      1  0.5005070000000  0.4923360000000  0.5109000000000 1.0
C      1  0.4225430000000  0.5210500000000  0.5292690000000 1.0
C      1  0.4405000000000  0.5307580000000  0.5513470000000 1.0
C      1  0.5793050000000  0.4285530000000  0.4761020000000 1.0
C      1  0.5510220000000  0.5188960000000  0.4926140000000 1.0
C      1  0.5335220000000  0.5637380000000  0.4937780000000 1.0
C      1  0.4521490000000  0.4996300000000  0.5962440000000 1.0
C      1  0.5234480000000  0.4726700000000  0.5145930000000 1.0
C      1  0.4883110000000  0.5797770000000  0.4811720000000 1.0
C      1  0.4749510000000  0.5704570000000  0.4346920000000 1.0
C      1  0.5840990000000  0.5005820000000  0.5450630000000 1.0
C      1  0.4833120000000  0.4587190000000  0.4806310000000 1.0
C      1  0.5972210000000  0.5164980000000  0.5258580000000 1.0
C      1  0.5036250000000  0.5776710000000  0.5246920000000 1.0
C      1  0.4191440000000  0.4939470000000  0.4348050000000 1.0
C      1  0.4313780000000  0.5690600000000  0.5232960000000 1.0
C      1  0.4412360000000  0.5607490000000  0.5505240000000 1.0
C      1  0.5387410000000  0.4071160000000  0.4905270000000 1.0
C      1  0.5087930000000  0.4773620000000  0.4658750000000 1.0
C      1  0.5785430000000  0.5535660000000  0.4932600000000 1.0
C      1  0.5575240000000  0.5269120000000  0.5220470000000 1.0
C      1  0.5571410000000  0.5299160000000  0.5789010000000 1.0
C      1  0.5174210000000  0.4427210000000  0.5755250000000 1.0
C      1  0.4176820000000  0.5449270000000  0.5124130000000 1.0
C      1  0.5798640000000  0.4765010000000  0.4732250000000 1.0
C      1  0.5250340000000  0.4614540000000  0.5964440000000 1.0
C      1  0.5436170000000  0.5699890000000  0.4659130000000 1.0
C      1  0.4955570000000  0.5052620000000  0.4656280000000 1.0
C      1  0.5362090000000  0.4426600000000  0.5532490000000 1.0
C      1  0.4118010000000  0.5264990000000  0.4680160000000 1.0
C      1  0.4310970000000  0.5382460000000  0.4875810000000 1.0
C      1  0.5571170000000  0.4620680000000  0.5577470000000 1.0
C      1  0.5256510000000  0.5645510000000  0.5382430000000 1.0
C      1  0.5304760000000  0.5268810000000  0.5688940000000 1.0
C      1  0.4665760000000  0.4705840000000  0.5290880000000 1.0
C      1  0.5119910000000  0.5130170000000  0.5900320000000 1.0
C      1  0.4727010000000  0.4908890000000  0.5527460000000 1.0
C      1  0.4112190000000  0.4957610000000  0.4660540000000 1.0
C      1  0.5323240000000  0.5153280000000  0.5397580000000 1.0
C      1  0.5240020000000  0.5337930000000  0.4923770000000 1.0
C      1  0.4619260000000  0.5530470000000  0.4564530000000 1.0
C      1  0.5821270000000  0.4607310000000  0.5144650000000 1.0
C      1  0.4970530000000  0.4039000000000  0.4748850000000 1.0
C      1  0.4865070000000  0.5502460000000  0.4148850000000 1.0
C      1  0.4834110000000  0.5492130000000  0.4773130000000 1.0
C      1  0.4882050000000  0.5497880000000  0.5689880000000 1.0
C      1  0.5492610000000  0.4965590000000  0.4483580000000 1.0
C      1  0.5245520000000  0.4077530000000  0.4668940000000 1.0
C      1  0.5699810000000  0.4507170000000  0.4604460000000 1.0
C      1  0.4681260000000  0.4750040000000  0.4200220000000 1.0
C      1  0.4555240000000  0.4175170000000  0.4923350000000 1.0
C      1  0.5459030000000  0.4251650000000  0.5099500000000 1.0
C      1  0.5116420000000  0.5831220000000  0.4985960000000 1.0
C      1  0.4279930000000  0.4937750000000  0.5163110000000 1.0
C      1  0.4235680000000  0.4715200000000  0.5348660000000 1.0
C      1  0.5025190000000  0.4814580000000  0.5607680000000 1.0
C      1  0.4412120000000  0.4810760000000  0.4238220000000 1.0
C      1  0.5321560000000  0.4750230000000  0.4855480000000 1.0
C      1  0.5189020000000  0.5599280000000  0.4487760000000 1.0
C      1  0.4366430000000  0.4471500000000  0.5273390000000 1.0
C      1  0.4854240000000  0.4983830000000  0.4155990000000 1.0
C      1  0.4571600000000  0.5193560000000  0.4957970000000 1.0
C      1  0.5545090000000  0.4926640000000  0.4769120000000 1.0
C      1  0.5517210000000  0.5216230000000  0.4359720000000 1.0
C      1  0.4972410000000  0.5818420000000  0.4511130000000 1.0
C      1  0.5069300000000  0.5337980000000  0.4679300000000 1.0
C      1  0.4946130000000  0.4313790000000  0.4365310000000 1.0
C      1  0.5151230000000  0.4965870000000  0.4160310000000 1.0
C      1  0.4696530000000  0.5225670000000  0.5480430000000 1.0
C      1  0.4751170000000  0.4539300000000  0.4386070000000 1.0
C      1  0.5709390000000  0.4365260000000  0.5023850000000 1.0
C      1  0.4551350000000  0.5257420000000  0.4449980000000 1.0
C      1  0.4276190000000  0.4774500000000  0.5618910000000 1.0
C      1  0.4861910000000  0.5270930000000  0.5885160000000 1.0
C      1  0.4770620000000  0.5640940000000  0.5230080000000 1.0
END
