TITL C-950525-1983-248 -1.66333439060186e-06 125000 -684.529740320722 0 0 109 (C1) n - 1
REM
REM in /home/bkarasulu/work/CARBON/AIRSS/Generating-Clusters/EDIP-Nigel-Params/with-SteepDescent/Only-C1/SD-CG/HFTN-CG
REM
REM
REM
REM
REM
REM ./C.cell (11c1c37f851c82e70ff6c80c92926a4b)
REM
REM compiler GCC version 9.2.1 20190827 (Red Hat 9.2.1-1)
REM options -cpp -mtune=generic -march=x86-64 -g -O0 -fpre-include=/usr/include/finclude/math-vector-fortran.h
REM seed 974898960 647179144 585143721 1804323060 -293797254 -642402197 1769556672 368021903 635838946 301582579 994938896 1974831142 -1359200418 -971861862 -396903259 1841300909 -106162821 -950912078 -135491503 -1514298983 -1570882942 1629356601 -391395069 65929261 -1980662159 -755972684 224537462 -984529948 1025934224 1652502734 1498651962 302167928 1645241250
REM
CELL 1.54180   50.00000   50.00000   50.00000   90.00000   90.00000   90.00000
LATT -1
SFAC C  
C      1  0.5352020000000  0.5019570000000  0.4898660000000 1.0
C      1  0.4871310000000  0.5497340000000  0.4883290000000 1.0
C      1  0.5305240000000  0.5681930000000  0.4663330000000 1.0
C      1  0.4047480000000  0.5030020000000  0.5419050000000 1.0
C      1  0.4414250000000  0.5538030000000  0.5562780000000 1.0
C      1  0.4795890000000  0.5796820000000  0.4825520000000 1.0
C      1  0.4089450000000  0.5265410000000  0.5234580000000 1.0
C      1  0.5343480000000  0.5310820000000  0.4978060000000 1.0
C      1  0.5851560000000  0.5282930000000  0.4776060000000 1.0
C      1  0.4737060000000  0.4784860000000  0.5229470000000 1.0
C      1  0.5636050000000  0.5205700000000  0.5599310000000 1.0
C      1  0.5355240000000  0.5902610000000  0.4834920000000 1.0
C      1  0.5119130000000  0.4881570000000  0.4988900000000 1.0
C      1  0.4248100000000  0.4512460000000  0.4748450000000 1.0
C      1  0.4921510000000  0.4539800000000  0.5178450000000 1.0
C      1  0.5747830000000  0.5242340000000  0.5332130000000 1.0
C      1  0.5479210000000  0.5860670000000  0.5087010000000 1.0
C      1  0.4430390000000  0.5378970000000  0.4664310000000 1.0
C      1  0.4843030000000  0.4012610000000  0.5112970000000 1.0
C      1  0.5769700000000  0.4693860000000  0.4653330000000 1.0
C      1  0.4293330000000  0.4926590000000  0.5554980000000 1.0
C      1  0.5628020000000  0.4718080000000  0.5537020000000 1.0
C      1  0.5355030000000  0.4988710000000  0.4612950000000 1.0
C      1  0.4738250000000  0.5020080000000  0.4078640000000 1.0
C      1  0.5168270000000  0.4480540000000  0.4334970000000 1.0
C      1  0.4345150000000  0.5428400000000  0.5276450000000 1.0
C      1  0.4358610000000  0.4639680000000  0.5479800000000 1.0
C      1  0.4575370000000  0.5242180000000  0.5250570000000 1.0
C      1  0.5565960000000  0.5573140000000  0.4604020000000 1.0
C      1  0.5705030000000  0.5080520000000  0.4317770000000 1.0
C      1  0.5158520000000  0.4900430000000  0.5844410000000 1.0
C      1  0.5458820000000  0.4964570000000  0.5616470000000 1.0
C      1  0.5155920000000  0.5457910000000  0.4793170000000 1.0
C      1  0.5624730000000  0.5456750000000  0.4879520000000 1.0
C      1  0.4673400000000  0.4184390000000  0.5249100000000 1.0
C      1  0.4520300000000  0.4370030000000  0.5095940000000 1.0
C      1  0.4999820000000  0.5866180000000  0.5270820000000 1.0
C      1  0.4984210000000  0.4179770000000  0.4675880000000 1.0
C      1  0.4718770000000  0.5010490000000  0.4783610000000 1.0
C      1  0.3981120000000  0.4856240000000  0.5016800000000 1.0
C      1  0.4514920000000  0.5884170000000  0.5216210000000 1.0
C      1  0.4558250000000  0.5836680000000  0.4673980000000 1.0
C      1  0.5703480000000  0.5665670000000  0.5078780000000 1.0
C      1  0.5521560000000  0.5473580000000  0.5632080000000 1.0
C      1  0.5091700000000  0.4988540000000  0.4477480000000 1.0
C      1  0.4784550000000  0.5959730000000  0.5076850000000 1.0
C      1  0.5087590000000  0.5354000000000  0.4090380000000 1.0
C      1  0.4818850000000  0.5273090000000  0.4171550000000 1.0
C      1  0.5024840000000  0.5559530000000  0.5627390000000 1.0
C      1  0.5570690000000  0.4846670000000  0.4461780000000 1.0
C      1  0.4330360000000  0.4918270000000  0.4593100000000 1.0
C      1  0.5832190000000  0.4529140000000  0.5146610000000 1.0
C      1  0.4846050000000  0.5652200000000  0.5405910000000 1.0
C      1  0.5282390000000  0.5527240000000  0.5462710000000 1.0
C      1  0.4722200000000  0.4676320000000  0.5834870000000 1.0
C      1  0.4259240000000  0.4653090000000  0.4498990000000 1.0
C      1  0.4887040000000  0.4583240000000  0.4303610000000 1.0
C      1  0.4779820000000  0.4335260000000  0.5475560000000 1.0
C      1  0.4661180000000  0.4393300000000  0.4330000000000 1.0
C      1  0.5052730000000  0.4089190000000  0.4948890000000 1.0
C      1  0.4687950000000  0.4241960000000  0.4585380000000 1.0
C      1  0.5134270000000  0.4431130000000  0.5789450000000 1.0
C      1  0.5965420000000  0.5047930000000  0.4908690000000 1.0
C      1  0.5557820000000  0.4863040000000  0.5042050000000 1.0
C      1  0.5806230000000  0.5291920000000  0.4487710000000 1.0
C      1  0.4263170000000  0.5151620000000  0.4750160000000 1.0
C      1  0.4855220000000  0.4985850000000  0.5033200000000 1.0
C      1  0.5751100000000  0.5535590000000  0.5328890000000 1.0
C      1  0.4955740000000  0.5269270000000  0.4447760000000 1.0
C      1  0.5010580000000  0.4656360000000  0.5899090000000 1.0
C      1  0.5174950000000  0.4903320000000  0.4190610000000 1.0
C      1  0.4730800000000  0.5297130000000  0.4680160000000 1.0
C      1  0.4412360000000  0.4514860000000  0.4310630000000 1.0
C      1  0.5184140000000  0.4751070000000  0.5241220000000 1.0
C      1  0.5872820000000  0.4757150000000  0.5338310000000 1.0
C      1  0.4898070000000  0.5317950000000  0.5733880000000 1.0
C      1  0.5801010000000  0.4995620000000  0.5160770000000 1.0
C      1  0.5008680000000  0.5043050000000  0.5631370000000 1.0
C      1  0.4586370000000  0.4507280000000  0.5638400000000 1.0
C      1  0.5279180000000  0.5143830000000  0.4052210000000 1.0
C      1  0.5196740000000  0.5300750000000  0.5264830000000 1.0
C      1  0.5550650000000  0.5174970000000  0.4104110000000 1.0
C      1  0.4581350000000  0.5772930000000  0.5493440000000 1.0
C      1  0.5647780000000  0.4600370000000  0.4918000000000 1.0
C      1  0.4545030000000  0.5093120000000  0.5517690000000 1.0
C      1  0.4483990000000  0.4339000000000  0.4807410000000 1.0
C      1  0.4846760000000  0.4507670000000  0.4838110000000 1.0
C      1  0.5384210000000  0.4680410000000  0.4257260000000 1.0
C      1  0.5284210000000  0.5779770000000  0.5290300000000 1.0
C      1  0.3900330000000  0.4825450000000  0.5286540000000 1.0
C      1  0.4905730000000  0.4797560000000  0.4088030000000 1.0
C      1  0.4763630000000  0.4893700000000  0.5528900000000 1.0
C      1  0.6001480000000  0.4837470000000  0.4723050000000 1.0
C      1  0.4380320000000  0.5655220000000  0.5083090000000 1.0
C      1  0.4050060000000  0.5141070000000  0.4960640000000 1.0
C      1  0.5279510000000  0.4331020000000  0.5332570000000 1.0
C      1  0.4452230000000  0.4647790000000  0.5188050000000 1.0
C      1  0.4869860000000  0.4782890000000  0.4640890000000 1.0
C      1  0.5495320000000  0.4536980000000  0.5331170000000 1.0
C      1  0.4382850000000  0.5644300000000  0.4785700000000 1.0
C      1  0.5470120000000  0.4243140000000  0.4623510000000 1.0
C      1  0.4585870000000  0.5318300000000  0.5715110000000 1.0
C      1  0.5247400000000  0.4273750000000  0.5052930000000 1.0
C      1  0.5071850000000  0.4331590000000  0.5538580000000 1.0
C      1  0.5454700000000  0.4369130000000  0.4871740000000 1.0
C      1  0.4256020000000  0.4751420000000  0.4935970000000 1.0
C      1  0.5217400000000  0.5021160000000  0.5414070000000 1.0
C      1  0.4846160000000  0.5398200000000  0.5195270000000 1.0
C      1  0.5216370000000  0.4263030000000  0.4512860000000 1.0
END
