TITL C-951338-5626-300 -2.4220557048822e-07 125000 -1199.75526078571 0 0 191 (C1) n - 1
REM
REM in /home/bkarasulu/work/CARBON/AIRSS/Generating-Clusters/EDIP-Nigel-Params/with-SteepDescent/Only-C1/SD-CG/HFTN-CG
REM
REM
REM
REM
REM
REM ./C.cell (11c1c37f851c82e70ff6c80c92926a4b)
REM
REM compiler GCC version 9.2.1 20190827 (Red Hat 9.2.1-1)
REM options -cpp -mtune=generic -march=x86-64 -g -O0 -fpre-include=/usr/include/finclude/math-vector-fortran.h
REM seed 1601741062 1784382070 -1677877110 -1998412355 -1398218911 -539166108 -2051947432 -1408312792 145412198 -136383635 -72526057 1612337613 1675392671 475652444 1942770055 -603680620 1705286492 1893865515 -275855255 1789621948 1989901161 185243495 -484878021 1621472064 -1484550433 192763672 -544162697 -1587199246 -1114300181 684908047 1074601258 653986468 2071620127
REM
CELL 1.54180   50.00000   50.00000   50.00000   90.00000   90.00000   90.00000
LATT -1
SFAC C  
C      1  0.5483260000000  0.5608440000000  0.5008850000000 1.0
C      1  0.4056930000000  0.4453700000000  0.5463070000000 1.0
C      1  0.4528980000000  0.4486070000000  0.4451640000000 1.0
C      1  0.4862390000000  0.4915330000000  0.3692190000000 1.0
C      1  0.5015160000000  0.5012180000000  0.5591650000000 1.0
C      1  0.4916900000000  0.3962470000000  0.5353440000000 1.0
C      1  0.5594500000000  0.3911130000000  0.4739980000000 1.0
C      1  0.5559250000000  0.5018370000000  0.4907940000000 1.0
C      1  0.5920750000000  0.5083220000000  0.5572980000000 1.0
C      1  0.4699670000000  0.4468400000000  0.5827530000000 1.0
C      1  0.4813500000000  0.5762110000000  0.4078820000000 1.0
C      1  0.4895970000000  0.5203340000000  0.6199530000000 1.0
C      1  0.4980480000000  0.5995270000000  0.5594060000000 1.0
C      1  0.4608290000000  0.5200430000000  0.6132290000000 1.0
C      1  0.5205750000000  0.4396450000000  0.5844900000000 1.0
C      1  0.4247450000000  0.4289640000000  0.5046960000000 1.0
C      1  0.4199670000000  0.5350460000000  0.5473270000000 1.0
C      1  0.5402990000000  0.4321630000000  0.4834750000000 1.0
C      1  0.5029910000000  0.5692690000000  0.4445860000000 1.0
C      1  0.4480950000000  0.4211130000000  0.5457590000000 1.0
C      1  0.4838940000000  0.4337550000000  0.5127750000000 1.0
C      1  0.4437920000000  0.5396670000000  0.4252300000000 1.0
C      1  0.6239460000000  0.5255070000000  0.5239050000000 1.0
C      1  0.3947940000000  0.5406510000000  0.5319600000000 1.0
C      1  0.4257530000000  0.5313680000000  0.5782840000000 1.0
C      1  0.5399990000000  0.3949180000000  0.4534070000000 1.0
C      1  0.5531470000000  0.5209230000000  0.6021650000000 1.0
C      1  0.5734510000000  0.5039530000000  0.5349990000000 1.0
C      1  0.4865170000000  0.4791500000000  0.4185750000000 1.0
C      1  0.4289560000000  0.4036240000000  0.4938410000000 1.0
C      1  0.5366420000000  0.4864210000000  0.4424560000000 1.0
C      1  0.5940370000000  0.5653180000000  0.5029230000000 1.0
C      1  0.4507080000000  0.4474710000000  0.5601500000000 1.0
C      1  0.4678080000000  0.4948160000000  0.5066200000000 1.0
C      1  0.4019960000000  0.4808000000000  0.4422500000000 1.0
C      1  0.4523930000000  0.5956680000000  0.5481810000000 1.0
C      1  0.5417960000000  0.4217290000000  0.5759370000000 1.0
C      1  0.4595360000000  0.3967860000000  0.4545000000000 1.0
C      1  0.5766130000000  0.5157700000000  0.5090610000000 1.0
C      1  0.5491940000000  0.4732650000000  0.6088080000000 1.0
C      1  0.4906330000000  0.5174250000000  0.4405370000000 1.0
C      1  0.3845200000000  0.5134930000000  0.5235810000000 1.0
C      1  0.4580910000000  0.5340940000000  0.4793010000000 1.0
C      1  0.5642520000000  0.4794990000000  0.5828370000000 1.0
C      1  0.4738320000000  0.4462600000000  0.4886660000000 1.0
C      1  0.5837630000000  0.4372120000000  0.5161990000000 1.0
C      1  0.4944340000000  0.4560730000000  0.5282130000000 1.0
C      1  0.5095650000000  0.4871830000000  0.4831460000000 1.0
C      1  0.5247910000000  0.6105590000000  0.4725690000000 1.0
C      1  0.5558030000000  0.4098110000000  0.4961660000000 1.0
C      1  0.4155930000000  0.4857730000000  0.5638580000000 1.0
C      1  0.3944560000000  0.5255060000000  0.4700580000000 1.0
C      1  0.5111720000000  0.3926580000000  0.5127200000000 1.0
C      1  0.5025890000000  0.4814490000000  0.6032860000000 1.0
C      1  0.4685960000000  0.4207730000000  0.4436210000000 1.0
C      1  0.5656040000000  0.5242130000000  0.4103510000000 1.0
C      1  0.4761500000000  0.5757260000000  0.5027690000000 1.0
C      1  0.4978260000000  0.4505330000000  0.4586590000000 1.0
C      1  0.4207240000000  0.5829850000000  0.5145120000000 1.0
C      1  0.5298520000000  0.3984630000000  0.5655160000000 1.0
C      1  0.4390340000000  0.4503240000000  0.4188300000000 1.0
C      1  0.4228040000000  0.5062490000000  0.4978410000000 1.0
C      1  0.4662590000000  0.5927960000000  0.4545410000000 1.0
C      1  0.4410170000000  0.5470950000000  0.5304680000000 1.0
C      1  0.4365940000000  0.4982950000000  0.4111590000000 1.0
C      1  0.5278310000000  0.5336190000000  0.4681160000000 1.0
C      1  0.4613420000000  0.5859440000000  0.4262630000000 1.0
C      1  0.4674870000000  0.5047600000000  0.4115950000000 1.0
C      1  0.4993400000000  0.4239610000000  0.4430310000000 1.0
C      1  0.5179190000000  0.5267090000000  0.5138410000000 1.0
C      1  0.5843890000000  0.4601170000000  0.5701170000000 1.0
C      1  0.5690330000000  0.4622700000000  0.5219310000000 1.0
C      1  0.5259850000000  0.4724460000000  0.3859360000000 1.0
C      1  0.4733800000000  0.4768160000000  0.5901110000000 1.0
C      1  0.4662030000000  0.5350910000000  0.5401640000000 1.0
C      1  0.5839640000000  0.5072720000000  0.4503110000000 1.0
C      1  0.4904720000000  0.5491730000000  0.5466260000000 1.0
C      1  0.4100900000000  0.5501170000000  0.4809310000000 1.0
C      1  0.5431860000000  0.5931860000000  0.4590930000000 1.0
C      1  0.5777430000000  0.4994060000000  0.4212330000000 1.0
C      1  0.5231400000000  0.4598030000000  0.6048060000000 1.0
C      1  0.4650790000000  0.4685450000000  0.5424470000000 1.0
C      1  0.5539960000000  0.5510650000000  0.4646810000000 1.0
C      1  0.6011850000000  0.4463350000000  0.4925830000000 1.0
C      1  0.5590720000000  0.4719910000000  0.4251010000000 1.0
C      1  0.4974800000000  0.5563420000000  0.3949990000000 1.0
C      1  0.5616900000000  0.4342670000000  0.5571300000000 1.0
C      1  0.5543060000000  0.5536760000000  0.5329660000000 1.0
C      1  0.5467880000000  0.4575850000000  0.5424080000000 1.0
C      1  0.4831990000000  0.4556790000000  0.3994040000000 1.0
C      1  0.5398010000000  0.3966410000000  0.5174610000000 1.0
C      1  0.4791100000000  0.6215590000000  0.5180510000000 1.0
C      1  0.5254480000000  0.4602590000000  0.4527760000000 1.0
C      1  0.4563020000000  0.5407660000000  0.5920140000000 1.0
C      1  0.5187850000000  0.5000760000000  0.5841790000000 1.0
C      1  0.6184150000000  0.4690010000000  0.5043210000000 1.0
C      1  0.5420170000000  0.5624180000000  0.4194120000000 1.0
C      1  0.4983170000000  0.4674400000000  0.3772350000000 1.0
C      1  0.4880950000000  0.6037370000000  0.4968250000000 1.0
C      1  0.4413440000000  0.5897710000000  0.4699490000000 1.0
C      1  0.4999330000000  0.3930710000000  0.4847010000000 1.0
C      1  0.4016760000000  0.4623050000000  0.4657270000000 1.0
C      1  0.4837810000000  0.5381120000000  0.3796710000000 1.0
C      1  0.4835720000000  0.5554550000000  0.5899740000000 1.0
C      1  0.5828690000000  0.4632450000000  0.4734560000000 1.0
C      1  0.4477780000000  0.4762690000000  0.5176940000000 1.0
C      1  0.4348140000000  0.4945800000000  0.4718510000000 1.0
C      1  0.5699020000000  0.4150280000000  0.5325530000000 1.0
C      1  0.5457270000000  0.4387070000000  0.4547560000000 1.0
C      1  0.4578150000000  0.5174570000000  0.5614570000000 1.0
C      1  0.4225800000000  0.4576910000000  0.5666090000000 1.0
C      1  0.5864210000000  0.5533190000000  0.5307300000000 1.0
C      1  0.4630460000000  0.5044250000000  0.4791710000000 1.0
C      1  0.5451190000000  0.4111940000000  0.4296260000000 1.0
C      1  0.4908130000000  0.4770050000000  0.5048790000000 1.0
C      1  0.6155730000000  0.4939010000000  0.4876940000000 1.0
C      1  0.6166610000000  0.4721080000000  0.5326000000000 1.0
C      1  0.4358990000000  0.5690610000000  0.4297590000000 1.0
C      1  0.5411970000000  0.4819350000000  0.5632970000000 1.0
C      1  0.5994580000000  0.4866110000000  0.4648700000000 1.0
C      1  0.4815570000000  0.5507580000000  0.4832250000000 1.0
C      1  0.4493380000000  0.4940350000000  0.6032450000000 1.0
C      1  0.5662390000000  0.5486530000000  0.4276660000000 1.0
C      1  0.3917720000000  0.4651630000000  0.5299910000000 1.0
C      1  0.3934750000000  0.5053150000000  0.4944150000000 1.0
C      1  0.5707840000000  0.5906740000000  0.4653720000000 1.0
C      1  0.4545400000000  0.3962180000000  0.5023760000000 1.0
C      1  0.5387230000000  0.4553120000000  0.4066480000000 1.0
C      1  0.3992730000000  0.5620510000000  0.5079090000000 1.0
C      1  0.5169900000000  0.6031250000000  0.4988000000000 1.0
C      1  0.5709250000000  0.4524980000000  0.4478410000000 1.0
C      1  0.6031070000000  0.5434870000000  0.4838220000000 1.0
C      1  0.5325820000000  0.5408370000000  0.5942960000000 1.0
C      1  0.5243110000000  0.5466050000000  0.4029290000000 1.0
C      1  0.4207290000000  0.5730790000000  0.4579160000000 1.0
C      1  0.5410320000000  0.5233950000000  0.3945250000000 1.0
C      1  0.5255340000000  0.4296090000000  0.4172600000000 1.0
C      1  0.6056280000000  0.5332250000000  0.5437030000000 1.0
C      1  0.4247650000000  0.5022710000000  0.5861110000000 1.0
C      1  0.4945610000000  0.4310390000000  0.5755030000000 1.0
C      1  0.5011450000000  0.5683100000000  0.5256640000000 1.0
C      1  0.4561210000000  0.4489990000000  0.3963760000000 1.0
C      1  0.4894780000000  0.5802420000000  0.5779830000000 1.0
C      1  0.5467960000000  0.5022380000000  0.5426700000000 1.0
C      1  0.6036470000000  0.4795080000000  0.5566210000000 1.0
C      1  0.4226400000000  0.5201740000000  0.4237360000000 1.0
C      1  0.5428840000000  0.5738860000000  0.5522530000000 1.0
C      1  0.4451280000000  0.5810900000000  0.4970080000000 1.0
C      1  0.5291610000000  0.5776050000000  0.4394450000000 1.0
C      1  0.6058730000000  0.5193290000000  0.5013660000000 1.0
C      1  0.4212290000000  0.4237670000000  0.5334490000000 1.0
C      1  0.5704600000000  0.5807240000000  0.4919910000000 1.0
C      1  0.4869250000000  0.6096590000000  0.4669470000000 1.0
C      1  0.4341650000000  0.5764260000000  0.5397100000000 1.0
C      1  0.5265320000000  0.5122390000000  0.4903470000000 1.0
C      1  0.5318600000000  0.4581700000000  0.4961070000000 1.0
C      1  0.5592540000000  0.4718640000000  0.4954730000000 1.0
C      1  0.4127020000000  0.5083490000000  0.4508120000000 1.0
C      1  0.4326820000000  0.4637510000000  0.4700460000000 1.0
C      1  0.5005570000000  0.5440910000000  0.4591540000000 1.0
C      1  0.5187530000000  0.5544940000000  0.5060340000000 1.0
C      1  0.5029520000000  0.4060080000000  0.5609910000000 1.0
C      1  0.5002140000000  0.4956330000000  0.6286870000000 1.0
C      1  0.4778850000000  0.4691940000000  0.4461250000000 1.0
C      1  0.4853820000000  0.4951310000000  0.4620510000000 1.0
C      1  0.4748400000000  0.5123760000000  0.3836740000000 1.0
C      1  0.4221120000000  0.4742030000000  0.4199940000000 1.0
C      1  0.5577510000000  0.5021490000000  0.4606090000000 1.0
C      1  0.3933430000000  0.4908910000000  0.5431120000000 1.0
C      1  0.4714920000000  0.3949330000000  0.4797960000000 1.0
C      1  0.5841120000000  0.5377940000000  0.4604370000000 1.0
C      1  0.5191900000000  0.5892530000000  0.5408650000000 1.0
C      1  0.4680210000000  0.4112870000000  0.5249310000000 1.0
C      1  0.5239390000000  0.4519560000000  0.5244430000000 1.0
C      1  0.4495990000000  0.5402400000000  0.4528460000000 1.0
C      1  0.4753820000000  0.6105720000000  0.5440010000000 1.0
C      1  0.3756650000000  0.4595880000000  0.5079320000000 1.0
C      1  0.4439200000000  0.4531680000000  0.4965570000000 1.0
C      1  0.4336310000000  0.5358080000000  0.4980690000000 1.0
C      1  0.5040500000000  0.5383560000000  0.6017700000000 1.0
C      1  0.5345720000000  0.4990030000000  0.3822530000000 1.0
C      1  0.5133730000000  0.4999130000000  0.4267710000000 1.0
C      1  0.5138040000000  0.4041620000000  0.4615990000000 1.0
C      1  0.5746240000000  0.5086510000000  0.5841580000000 1.0
C      1  0.5289260000000  0.6102500000000  0.5229960000000 1.0
C      1  0.5339670000000  0.5280100000000  0.5383730000000 1.0
C      1  0.4740030000000  0.4915500000000  0.5626850000000 1.0
C      1  0.5392560000000  0.5615590000000  0.5767430000000 1.0
C      1  0.3856830000000  0.4759560000000  0.4873030000000 1.0
C      1  0.5116000000000  0.5308180000000  0.5591560000000 1.0
C      1  0.5430900000000  0.4997470000000  0.6180410000000 1.0
END
