TITL C-950528-5794-397 -2.20591054852275e-07 125000 -882.262586376083 0 0 141 (C1) n - 1
REM
REM in /home/bkarasulu/work/CARBON/AIRSS/Generating-Clusters/EDIP-Nigel-Params/with-SteepDescent/Only-C1/SD-CG/HFTN-CG
REM
REM
REM
REM
REM
REM ./C.cell (11c1c37f851c82e70ff6c80c92926a4b)
REM
REM compiler GCC version 9.2.1 20190827 (Red Hat 9.2.1-1)
REM options -cpp -mtune=generic -march=x86-64 -g -O0 -fpre-include=/usr/include/finclude/math-vector-fortran.h
REM seed 1924373820 1556221137 -752005450 1845451590 636153015 -1722173907 -631825448 1212849902 -1924997149 1125977944 -1372832891 1560657309 -1134491392 296439660 -400205483 598826639 2008909487 540280226 -1764022098 1258146021 1950248404 738308065 1737288972 942036730 -344197267 -1365412442 172859217 1738585571 -647480402 1538643600 -5436694 918522476 -1442443664
REM
CELL 1.54180   50.00000   50.00000   50.00000   90.00000   90.00000   90.00000
LATT -1
SFAC C  
C      1  0.5959260000000  0.4735970000000  0.5170220000000 1.0
C      1  0.4224460000000  0.4514120000000  0.5031670000000 1.0
C      1  0.4553880000000  0.4990880000000  0.4071140000000 1.0
C      1  0.5031680000000  0.4465810000000  0.4710440000000 1.0
C      1  0.4304370000000  0.5364880000000  0.5461220000000 1.0
C      1  0.5593480000000  0.4600480000000  0.4712750000000 1.0
C      1  0.4210920000000  0.5202960000000  0.5016780000000 1.0
C      1  0.3899840000000  0.4832280000000  0.5095190000000 1.0
C      1  0.4670090000000  0.5859630000000  0.4578540000000 1.0
C      1  0.4855870000000  0.4250250000000  0.5474130000000 1.0
C      1  0.4843990000000  0.5981470000000  0.4781310000000 1.0
C      1  0.5005650000000  0.5143820000000  0.4245270000000 1.0
C      1  0.5626640000000  0.4174470000000  0.4826950000000 1.0
C      1  0.5097620000000  0.5114840000000  0.3968230000000 1.0
C      1  0.5892680000000  0.5360660000000  0.4673850000000 1.0
C      1  0.6004900000000  0.5190380000000  0.5126750000000 1.0
C      1  0.5670260000000  0.4714430000000  0.5617710000000 1.0
C      1  0.4345570000000  0.4943170000000  0.5589380000000 1.0
C      1  0.5555100000000  0.5066670000000  0.5297020000000 1.0
C      1  0.5387820000000  0.4210380000000  0.4659210000000 1.0
C      1  0.5613940000000  0.5009990000000  0.4434580000000 1.0
C      1  0.5221930000000  0.4776690000000  0.5124340000000 1.0
C      1  0.5368430000000  0.4375010000000  0.4408120000000 1.0
C      1  0.5097280000000  0.4612140000000  0.5337460000000 1.0
C      1  0.4358890000000  0.5382000000000  0.4449750000000 1.0
C      1  0.4024490000000  0.4680820000000  0.4628660000000 1.0
C      1  0.4084070000000  0.4973080000000  0.4636670000000 1.0
C      1  0.4499520000000  0.4228290000000  0.5606550000000 1.0
C      1  0.4671660000000  0.5858260000000  0.5336510000000 1.0
C      1  0.5928740000000  0.4828900000000  0.5450420000000 1.0
C      1  0.5756780000000  0.4324190000000  0.5267160000000 1.0
C      1  0.4299080000000  0.4244130000000  0.5015460000000 1.0
C      1  0.4967870000000  0.4123650000000  0.4530050000000 1.0
C      1  0.5066960000000  0.4403950000000  0.4281350000000 1.0
C      1  0.4213760000000  0.5111000000000  0.4401650000000 1.0
C      1  0.4323280000000  0.4987250000000  0.4815490000000 1.0
C      1  0.5523670000000  0.4644530000000  0.4335240000000 1.0
C      1  0.5149580000000  0.5941620000000  0.5167440000000 1.0
C      1  0.5347370000000  0.5157890000000  0.5944720000000 1.0
C      1  0.4439180000000  0.5297370000000  0.5180890000000 1.0
C      1  0.4920470000000  0.5032140000000  0.5618820000000 1.0
C      1  0.5255780000000  0.4872850000000  0.5907850000000 1.0
C      1  0.4878660000000  0.5562870000000  0.5050910000000 1.0
C      1  0.5367650000000  0.5031980000000  0.4015980000000 1.0
C      1  0.5425100000000  0.4636080000000  0.5826540000000 1.0
C      1  0.4133580000000  0.5474070000000  0.4892340000000 1.0
C      1  0.4858820000000  0.5359460000000  0.5948820000000 1.0
C      1  0.4601120000000  0.5446640000000  0.4295030000000 1.0
C      1  0.5658500000000  0.4851410000000  0.4866690000000 1.0
C      1  0.4860820000000  0.5868220000000  0.5091070000000 1.0
C      1  0.4130550000000  0.5119690000000  0.5476530000000 1.0
C      1  0.5064340000000  0.4333200000000  0.4993720000000 1.0
C      1  0.4593000000000  0.5050870000000  0.4611490000000 1.0
C      1  0.5112850000000  0.5864490000000  0.4714200000000 1.0
C      1  0.5306290000000  0.5216320000000  0.5219230000000 1.0
C      1  0.5918210000000  0.5118850000000  0.5395070000000 1.0
C      1  0.5810260000000  0.4401910000000  0.4800200000000 1.0
C      1  0.5482990000000  0.5195440000000  0.4232300000000 1.0
C      1  0.4773320000000  0.5223810000000  0.5466680000000 1.0
C      1  0.4587120000000  0.4379380000000  0.4556850000000 1.0
C      1  0.4876820000000  0.4748970000000  0.5545070000000 1.0
C      1  0.6011840000000  0.4897180000000  0.4717740000000 1.0
C      1  0.4319200000000  0.4644290000000  0.4226630000000 1.0
C      1  0.4794870000000  0.5057120000000  0.5893320000000 1.0
C      1  0.4286110000000  0.4933700000000  0.4171170000000 1.0
C      1  0.5233240000000  0.5448660000000  0.5377600000000 1.0
C      1  0.5707500000000  0.5598940000000  0.5095390000000 1.0
C      1  0.5522900000000  0.5496350000000  0.5637050000000 1.0
C      1  0.5544510000000  0.5747550000000  0.4895840000000 1.0
C      1  0.5207510000000  0.5890480000000  0.4436840000000 1.0
C      1  0.5424130000000  0.5402930000000  0.4641730000000 1.0
C      1  0.4375110000000  0.5524090000000  0.4718100000000 1.0
C      1  0.5278380000000  0.5831320000000  0.5392530000000 1.0
C      1  0.5643220000000  0.5585580000000  0.5374640000000 1.0
C      1  0.5154870000000  0.5391840000000  0.5926390000000 1.0
C      1  0.4751070000000  0.4812050000000  0.4510950000000 1.0
C      1  0.4321380000000  0.5933170000000  0.4934310000000 1.0
C      1  0.4491820000000  0.5348930000000  0.5682820000000 1.0
C      1  0.4438650000000  0.4512190000000  0.5611030000000 1.0
C      1  0.5570950000000  0.5218150000000  0.5761020000000 1.0
C      1  0.4877140000000  0.4447690000000  0.5208770000000 1.0
C      1  0.4405420000000  0.4729200000000  0.4962350000000 1.0
C      1  0.4619350000000  0.5423130000000  0.4935990000000 1.0
C      1  0.4537780000000  0.4141650000000  0.5113450000000 1.0
C      1  0.5487150000000  0.5904040000000  0.4439370000000 1.0
C      1  0.4013420000000  0.5073320000000  0.5198990000000 1.0
C      1  0.5847910000000  0.5374000000000  0.4968170000000 1.0
C      1  0.4695850000000  0.4689780000000  0.4993370000000 1.0
C      1  0.4738500000000  0.4038450000000  0.4929480000000 1.0
C      1  0.4698890000000  0.5171350000000  0.4258870000000 1.0
C      1  0.4852400000000  0.4611970000000  0.5818370000000 1.0
C      1  0.5109990000000  0.5496940000000  0.4838560000000 1.0
C      1  0.4730710000000  0.4402070000000  0.4284170000000 1.0
C      1  0.5314150000000  0.4410940000000  0.5419200000000 1.0
C      1  0.4593350000000  0.4710110000000  0.5420530000000 1.0
C      1  0.5931390000000  0.4457700000000  0.5077170000000 1.0
C      1  0.5655860000000  0.5779010000000  0.4625110000000 1.0
C      1  0.4694530000000  0.5538640000000  0.5767640000000 1.0
C      1  0.5690590000000  0.5513100000000  0.4528820000000 1.0
C      1  0.4617550000000  0.5065940000000  0.5268130000000 1.0
C      1  0.5283180000000  0.4387000000000  0.5714810000000 1.0
C      1  0.5307790000000  0.4150140000000  0.5230910000000 1.0
C      1  0.5175910000000  0.4015620000000  0.4701490000000 1.0
C      1  0.5579170000000  0.4551600000000  0.5363290000000 1.0
C      1  0.4538270000000  0.4055000000000  0.5383970000000 1.0
C      1  0.4985710000000  0.4821230000000  0.6002630000000 1.0
C      1  0.5076140000000  0.5650570000000  0.4325730000000 1.0
C      1  0.5366370000000  0.4741390000000  0.4091370000000 1.0
C      1  0.3966950000000  0.4607870000000  0.4929010000000 1.0
C      1  0.4840530000000  0.5685540000000  0.5537620000000 1.0
C      1  0.4496770000000  0.4937590000000  0.5849650000000 1.0
C      1  0.6068370000000  0.4935390000000  0.4996260000000 1.0
C      1  0.4172010000000  0.5720680000000  0.5078030000000 1.0
C      1  0.5218200000000  0.5000190000000  0.4742420000000 1.0
C      1  0.4802440000000  0.4984870000000  0.5050180000000 1.0
C      1  0.5278900000000  0.5617860000000  0.5782930000000 1.0
C      1  0.4401470000000  0.5814470000000  0.4684630000000 1.0
C      1  0.5519020000000  0.4802590000000  0.5150940000000 1.0
C      1  0.4597360000000  0.4618170000000  0.4142570000000 1.0
C      1  0.5110190000000  0.5798450000000  0.5621080000000 1.0
C      1  0.4932650000000  0.5465220000000  0.5349810000000 1.0
C      1  0.4760110000000  0.5175350000000  0.4819720000000 1.0
C      1  0.5086980000000  0.4676010000000  0.4158280000000 1.0
C      1  0.5535480000000  0.4987740000000  0.5581370000000 1.0
C      1  0.5903380000000  0.5091890000000  0.4536460000000 1.0
C      1  0.4696870000000  0.4110110000000  0.4648080000000 1.0
C      1  0.5088110000000  0.5021670000000  0.5164180000000 1.0
C      1  0.5026870000000  0.5230270000000  0.4717780000000 1.0
C      1  0.5586860000000  0.4126020000000  0.5122650000000 1.0
C      1  0.4547450000000  0.4639460000000  0.5856030000000 1.0
C      1  0.5246340000000  0.5382020000000  0.4366520000000 1.0
C      1  0.4986010000000  0.4351950000000  0.5741420000000 1.0
C      1  0.5232590000000  0.4705220000000  0.4652170000000 1.0
C      1  0.5047100000000  0.4026310000000  0.4973940000000 1.0
C      1  0.4790580000000  0.5634440000000  0.4421570000000 1.0
C      1  0.4418690000000  0.5736340000000  0.5253130000000 1.0
C      1  0.5493890000000  0.5093210000000  0.4712970000000 1.0
C      1  0.5313740000000  0.5933040000000  0.4925160000000 1.0
C      1  0.4759160000000  0.4590530000000  0.4704330000000 1.0
C      1  0.4249810000000  0.4538460000000  0.4491870000000 1.0
C      1  0.5016560000000  0.4868050000000  0.4375750000000 1.0
END
