TITL C-951341-1326-452 -4.39628988022182e-06 125000 -645.137867855418 0 0 104 (C1) n - 1
REM
REM in /home/bkarasulu/work/CARBON/AIRSS/Generating-Clusters/EDIP-Nigel-Params/with-SteepDescent/Only-C1/SD-CG/HFTN-CG
REM
REM
REM
REM
REM
REM ./C.cell (11c1c37f851c82e70ff6c80c92926a4b)
REM
REM compiler GCC version 9.2.1 20190827 (Red Hat 9.2.1-1)
REM options -cpp -mtune=generic -march=x86-64 -g -O0 -fpre-include=/usr/include/finclude/math-vector-fortran.h
REM seed 1384305550 1400825407 740695574 2015556121 -1297056996 -299924243 1823577442 -1059434528 543419759 -1252786315 -431224684 1150856832 -542189992 1664146837 -573095894 -1319955210 10004765 -747944459 -903094216 -1763343759 732570515 51422985 -1253916393 1048972645 -1174422491 -1126853588 798873743 1948762248 -78908302 355629918 1557339783 628452450 408358701
REM
CELL 1.54180   50.00000   50.00000   50.00000   90.00000   90.00000   90.00000
LATT -1
SFAC C  
C      1  0.5534170000000  0.5210010000000  0.4378250000000 1.0
C      1  0.4598570000000  0.4593810000000  0.4490100000000 1.0
C      1  0.5374480000000  0.4312060000000  0.5551990000000 1.0
C      1  0.5309630000000  0.5347620000000  0.4241430000000 1.0
C      1  0.5677310000000  0.4888310000000  0.4749550000000 1.0
C      1  0.4316220000000  0.5133200000000  0.5338020000000 1.0
C      1  0.4525520000000  0.5216940000000  0.4501760000000 1.0
C      1  0.4496690000000  0.4684990000000  0.5786500000000 1.0
C      1  0.4625940000000  0.4973170000000  0.5160400000000 1.0
C      1  0.4586680000000  0.5297440000000  0.5669780000000 1.0
C      1  0.4782190000000  0.5353710000000  0.5276540000000 1.0
C      1  0.4459970000000  0.4714400000000  0.5231490000000 1.0
C      1  0.4230320000000  0.5050170000000  0.4805940000000 1.0
C      1  0.4602170000000  0.4362330000000  0.4658700000000 1.0
C      1  0.5813850000000  0.4556120000000  0.5415260000000 1.0
C      1  0.5499190000000  0.5394210000000  0.5505380000000 1.0
C      1  0.4445970000000  0.5595580000000  0.5279970000000 1.0
C      1  0.5034430000000  0.5837100000000  0.4749410000000 1.0
C      1  0.4875650000000  0.4278360000000  0.4701280000000 1.0
C      1  0.4915750000000  0.5379870000000  0.4889880000000 1.0
C      1  0.5053670000000  0.4458650000000  0.4527110000000 1.0
C      1  0.4932840000000  0.4618690000000  0.4985300000000 1.0
C      1  0.5468190000000  0.5563180000000  0.4747320000000 1.0
C      1  0.5738250000000  0.4788880000000  0.5576570000000 1.0
C      1  0.5233650000000  0.5671550000000  0.4619380000000 1.0
C      1  0.5536480000000  0.4971450000000  0.5426980000000 1.0
C      1  0.5025460000000  0.5089200000000  0.4866530000000 1.0
C      1  0.5593490000000  0.4372020000000  0.5365000000000 1.0
C      1  0.5517090000000  0.4273710000000  0.4679350000000 1.0
C      1  0.5188090000000  0.4268660000000  0.5096290000000 1.0
C      1  0.4387180000000  0.5374210000000  0.5469880000000 1.0
C      1  0.4437300000000  0.4368920000000  0.4881930000000 1.0
C      1  0.5725420000000  0.5348490000000  0.5080690000000 1.0
C      1  0.3960730000000  0.5208760000000  0.5033820000000 1.0
C      1  0.4282840000000  0.5772440000000  0.4852650000000 1.0
C      1  0.4656640000000  0.4457680000000  0.5805730000000 1.0
C      1  0.4879240000000  0.5703170000000  0.5521300000000 1.0
C      1  0.4385010000000  0.4734130000000  0.5522170000000 1.0
C      1  0.4503610000000  0.5158440000000  0.4773730000000 1.0
C      1  0.5029940000000  0.4642020000000  0.5529920000000 1.0
C      1  0.4942820000000  0.4170980000000  0.4970640000000 1.0
C      1  0.5477410000000  0.4864810000000  0.4207720000000 1.0
C      1  0.5271730000000  0.5835370000000  0.5193770000000 1.0
C      1  0.5436270000000  0.4178540000000  0.4951220000000 1.0
C      1  0.4623150000000  0.4454640000000  0.5090370000000 1.0
C      1  0.4611870000000  0.5391160000000  0.4929430000000 1.0
C      1  0.4827100000000  0.5472940000000  0.5695670000000 1.0
C      1  0.5498750000000  0.5567910000000  0.5042360000000 1.0
C      1  0.4530540000000  0.5647490000000  0.4772740000000 1.0
C      1  0.5053680000000  0.5359810000000  0.5827100000000 1.0
C      1  0.5156300000000  0.5553920000000  0.4370760000000 1.0
C      1  0.4668020000000  0.5792680000000  0.5343110000000 1.0
C      1  0.5784330000000  0.4653480000000  0.4553340000000 1.0
C      1  0.5031250000000  0.5505050000000  0.5156550000000 1.0
C      1  0.5437670000000  0.4977900000000  0.4571930000000 1.0
C      1  0.4194310000000  0.4774540000000  0.5078160000000 1.0
C      1  0.4852570000000  0.5282350000000  0.4150780000000 1.0
C      1  0.5115160000000  0.4649400000000  0.4735520000000 1.0
C      1  0.5780570000000  0.5194630000000  0.4816400000000 1.0
C      1  0.4215810000000  0.5653060000000  0.5100450000000 1.0
C      1  0.5478220000000  0.4765950000000  0.5752380000000 1.0
C      1  0.5137470000000  0.4925050000000  0.4617690000000 1.0
C      1  0.5297130000000  0.5362960000000  0.5191810000000 1.0
C      1  0.4908610000000  0.4929350000000  0.5610370000000 1.0
C      1  0.5197540000000  0.4885980000000  0.4114480000000 1.0
C      1  0.4331520000000  0.4710180000000  0.4445790000000 1.0
C      1  0.4083970000000  0.5021150000000  0.5216430000000 1.0
C      1  0.5667020000000  0.4208560000000  0.5130320000000 1.0
C      1  0.5146780000000  0.5778910000000  0.5448240000000 1.0
C      1  0.5358560000000  0.4402130000000  0.4460230000000 1.0
C      1  0.5144030000000  0.4634530000000  0.5227190000000 1.0
C      1  0.5124430000000  0.5178900000000  0.4079560000000 1.0
C      1  0.4985230000000  0.4905020000000  0.4335150000000 1.0
C      1  0.4873540000000  0.4190030000000  0.5454320000000 1.0
C      1  0.5608760000000  0.4752720000000  0.5004390000000 1.0
C      1  0.4440950000000  0.5147550000000  0.4246060000000 1.0
C      1  0.5169480000000  0.4171740000000  0.5381100000000 1.0
C      1  0.4623860000000  0.4971130000000  0.5711920000000 1.0
C      1  0.4687880000000  0.5697810000000  0.4425200000000 1.0
C      1  0.5796810000000  0.4377840000000  0.4686120000000 1.0
C      1  0.5888680000000  0.4362520000000  0.4980090000000 1.0
C      1  0.5688180000000  0.5231150000000  0.5357180000000 1.0
C      1  0.5068190000000  0.5071070000000  0.5820250000000 1.0
C      1  0.5556130000000  0.4613140000000  0.4355300000000 1.0
C      1  0.4733710000000  0.4179600000000  0.5187950000000 1.0
C      1  0.4810750000000  0.4891290000000  0.4944870000000 1.0
C      1  0.4881830000000  0.5537430000000  0.4288600000000 1.0
C      1  0.4087640000000  0.5446220000000  0.4945430000000 1.0
C      1  0.5353870000000  0.5034820000000  0.5820850000000 1.0
C      1  0.5860080000000  0.4631720000000  0.5122300000000 1.0
C      1  0.5269570000000  0.4553740000000  0.5691600000000 1.0
C      1  0.4188830000000  0.4778920000000  0.4693520000000 1.0
C      1  0.4787740000000  0.5885410000000  0.4614170000000 1.0
C      1  0.5260970000000  0.5095890000000  0.5055740000000 1.0
C      1  0.5048420000000  0.5924350000000  0.5023690000000 1.0
C      1  0.5432080000000  0.5315520000000  0.5770940000000 1.0
C      1  0.4855530000000  0.5065720000000  0.5347860000000 1.0
C      1  0.5644190000000  0.5367880000000  0.4614460000000 1.0
C      1  0.4858810000000  0.4625450000000  0.4345570000000 1.0
C      1  0.5385870000000  0.4854010000000  0.5179770000000 1.0
C      1  0.4796830000000  0.5953410000000  0.5150790000000 1.0
C      1  0.4312340000000  0.4903990000000  0.4244500000000 1.0
C      1  0.4611470000000  0.5205270000000  0.4033370000000 1.0
C      1  0.4807370000000  0.4449680000000  0.5571130000000 1.0
END
