TITL C-951347-9520-544 -2.82524332134019e-07 125000 -197.904607160237 0 0 34 (C1) n - 1
REM
REM in /home/bkarasulu/work/CARBON/AIRSS/Generating-Clusters/EDIP-Nigel-Params/with-SteepDescent/Only-C1/SD-CG/HFTN-CG
REM
REM
REM
REM
REM
REM ./C.cell (11c1c37f851c82e70ff6c80c92926a4b)
REM
REM compiler GCC version 9.2.1 20190827 (Red Hat 9.2.1-1)
REM options -cpp -mtune=generic -march=x86-64 -g -O0 -fpre-include=/usr/include/finclude/math-vector-fortran.h
REM seed 515546416 881908389 1688019285 1210047930 -1667167797 1351419925 713288741 -95506632 -2135356918 1587313257 -506369833 960132026 -1842879132 164101987 -715847659 -292410754 -1776622151 -1646079981 -1339890275 -240580923 -2135222692 1745640198 1284937442 673368422 552010113 666676279 -963279590 -1920918573 -303102430 -1371552329 -1794687319 -44932819 1617482093
REM
CELL 1.54180   50.00000   50.00000   50.00000   90.00000   90.00000   90.00000
LATT -1
SFAC C  
C      1  0.5457060000000  0.4685650000000  0.5367550000000 1.0
C      1  0.5022910000000  0.4546270000000  0.5232340000000 1.0
C      1  0.5456030000000  0.4782700000000  0.4620900000000 1.0
C      1  0.4276010000000  0.4690370000000  0.4400560000000 1.0
C      1  0.4711310000000  0.4849150000000  0.4979760000000 1.0
C      1  0.4750900000000  0.5656560000000  0.4934730000000 1.0
C      1  0.5403470000000  0.5300910000000  0.5316510000000 1.0
C      1  0.5146840000000  0.4962320000000  0.5617890000000 1.0
C      1  0.4608110000000  0.4861890000000  0.4701630000000 1.0
C      1  0.4337290000000  0.5063790000000  0.4365310000000 1.0
C      1  0.4716510000000  0.5107290000000  0.5128190000000 1.0
C      1  0.4709200000000  0.5314520000000  0.4541030000000 1.0
C      1  0.4959830000000  0.4700170000000  0.5012230000000 1.0
C      1  0.5115460000000  0.5335150000000  0.5345670000000 1.0
C      1  0.5447470000000  0.5184980000000  0.5041500000000 1.0
C      1  0.5323210000000  0.4713660000000  0.4883830000000 1.0
C      1  0.4947860000000  0.5479460000000  0.4903300000000 1.0
C      1  0.5187060000000  0.4682920000000  0.5653680000000 1.0
C      1  0.4610320000000  0.5108450000000  0.5385780000000 1.0
C      1  0.5536170000000  0.4713000000000  0.5092620000000 1.0
C      1  0.4969250000000  0.5361580000000  0.4634210000000 1.0
C      1  0.5375580000000  0.5113410000000  0.5535580000000 1.0
C      1  0.5137260000000  0.5121040000000  0.4662770000000 1.0
C      1  0.5679730000000  0.4946700000000  0.4710040000000 1.0
C      1  0.5662200000000  0.4974160000000  0.5004070000000 1.0
C      1  0.4686290000000  0.5125300000000  0.5641410000000 1.0
C      1  0.4107310000000  0.4909840000000  0.4386340000000 1.0
C      1  0.4929770000000  0.5081420000000  0.5744870000000 1.0
C      1  0.5360560000000  0.5031380000000  0.4506060000000 1.0
C      1  0.5227060000000  0.4521950000000  0.5420920000000 1.0
C      1  0.5181340000000  0.5065810000000  0.4950010000000 1.0
C      1  0.4457720000000  0.4647130000000  0.4605340000000 1.0
C      1  0.4981260000000  0.5249180000000  0.5094220000000 1.0
C      1  0.4521630000000  0.5111880000000  0.4579160000000 1.0
END
