TITL C-950523-3027-10 6.49579536579829e-07 125000 -334.156780714645 0 0 55 (C1) n - 1
REM
REM in /home/bkarasulu/work/CARBON/AIRSS/Generating-Clusters/EDIP-Nigel-Params/with-SteepDescent/Only-C1/SD-CG/HFTN-CG
REM
REM
REM
REM
REM
REM ./C.cell (11c1c37f851c82e70ff6c80c92926a4b)
REM
REM compiler GCC version 9.2.1 20190827 (Red Hat 9.2.1-1)
REM options -cpp -mtune=generic -march=x86-64 -g -O0 -fpre-include=/usr/include/finclude/math-vector-fortran.h
REM seed -972972098 231582018 -533900494 151731075 113101339 -536159007 -2104394827 -1425551078 1050698103 1516859740 700233727 -507852178 -1946878563 -378571775 165484744 1670495112 2097296735 2073057845 121904261 63202524 -106885535 -768783797 88878762 -1600556430 -1116496004 -1323092358 -329567718 1732213423 887523888 -1714015622 -503627453 2011430384 1285764592
REM
CELL 1.54180   50.00000   50.00000   50.00000   90.00000   90.00000   90.00000
LATT -1
SFAC C  
C      1  0.4718880000000  0.5097520000000  0.4286650000000 1.0
C      1  0.4948490000000  0.4956780000000  0.4434020000000 1.0
C      1  0.4515410000000  0.4740770000000  0.5251050000000 1.0
C      1  0.4403180000000  0.5373190000000  0.4851540000000 1.0
C      1  0.5489970000000  0.4422160000000  0.4713800000000 1.0
C      1  0.5433890000000  0.4859530000000  0.4526550000000 1.0
C      1  0.4911140000000  0.5148840000000  0.5623110000000 1.0
C      1  0.4979080000000  0.5129880000000  0.5165920000000 1.0
C      1  0.5302750000000  0.5309570000000  0.4565250000000 1.0
C      1  0.4663380000000  0.5374740000000  0.4419870000000 1.0
C      1  0.4425630000000  0.4901980000000  0.4691650000000 1.0
C      1  0.5832770000000  0.4779440000000  0.5089410000000 1.0
C      1  0.4834390000000  0.4680730000000  0.5747430000000 1.0
C      1  0.5356760000000  0.4401190000000  0.5280550000000 1.0
C      1  0.5254760000000  0.4272340000000  0.4801540000000 1.0
C      1  0.5794020000000  0.5096860000000  0.5396130000000 1.0
C      1  0.5347440000000  0.5264720000000  0.5440660000000 1.0
C      1  0.5062670000000  0.5275950000000  0.5402820000000 1.0
C      1  0.4808490000000  0.5730640000000  0.4843230000000 1.0
C      1  0.5950820000000  0.4898230000000  0.5302150000000 1.0
C      1  0.5081900000000  0.5715850000000  0.4736920000000 1.0
C      1  0.4872950000000  0.4451030000000  0.5081430000000 1.0
C      1  0.5390650000000  0.4699060000000  0.5262350000000 1.0
C      1  0.4384980000000  0.5368580000000  0.4548040000000 1.0
C      1  0.4545000000000  0.4600860000000  0.5502040000000 1.0
C      1  0.5410770000000  0.4241010000000  0.5048600000000 1.0
C      1  0.4836030000000  0.5363090000000  0.4659460000000 1.0
C      1  0.4427010000000  0.5062610000000  0.4428980000000 1.0
C      1  0.5251690000000  0.5045550000000  0.4427250000000 1.0
C      1  0.4978380000000  0.5561040000000  0.5366220000000 1.0
C      1  0.5013190000000  0.4440450000000  0.4826290000000 1.0
C      1  0.4646770000000  0.5531000000000  0.4985060000000 1.0
C      1  0.5011190000000  0.4474090000000  0.5342670000000 1.0
C      1  0.4382930000000  0.5084200000000  0.4926420000000 1.0
C      1  0.4694940000000  0.5522210000000  0.5287380000000 1.0
C      1  0.5076800000000  0.5497210000000  0.4528520000000 1.0
C      1  0.5344780000000  0.5326950000000  0.4859850000000 1.0
C      1  0.4816350000000  0.4513640000000  0.4613440000000 1.0
C      1  0.4913460000000  0.4672500000000  0.4407660000000 1.0
C      1  0.4897550000000  0.4941760000000  0.4974470000000 1.0
C      1  0.5009420000000  0.4873750000000  0.5628180000000 1.0
C      1  0.4709330000000  0.4694890000000  0.5031010000000 1.0
C      1  0.4372870000000  0.4990110000000  0.5206920000000 1.0
C      1  0.4875030000000  0.5063780000000  0.4705980000000 1.0
C      1  0.5150770000000  0.5680900000000  0.5182280000000 1.0
C      1  0.5491240000000  0.4707250000000  0.4751460000000 1.0
C      1  0.5521110000000  0.5144530000000  0.5017280000000 1.0
C      1  0.5266950000000  0.5605070000000  0.4939400000000 1.0
C      1  0.4795470000000  0.4454490000000  0.5566070000000 1.0
C      1  0.5578730000000  0.5237470000000  0.5288050000000 1.0
C      1  0.4578070000000  0.4644690000000  0.4761640000000 1.0
C      1  0.5114360000000  0.4762210000000  0.5369450000000 1.0
C      1  0.4365050000000  0.5176790000000  0.5414440000000 1.0
C      1  0.4604900000000  0.5306390000000  0.5466340000000 1.0
C      1  0.5555430000000  0.4829940000000  0.5025110000000 1.0
END
