TITL C-951333-8791-118 -3.80245622537298e-06 125000 -420.294033040654 0 0 68 (C1) n - 1
REM
REM in /home/bkarasulu/work/CARBON/AIRSS/Generating-Clusters/EDIP-Nigel-Params/with-SteepDescent/Only-C1/SD-CG/HFTN-CG
REM
REM
REM
REM
REM
REM ./C.cell (11c1c37f851c82e70ff6c80c92926a4b)
REM
REM compiler GCC version 9.2.1 20190827 (Red Hat 9.2.1-1)
REM options -cpp -mtune=generic -march=x86-64 -g -O0 -fpre-include=/usr/include/finclude/math-vector-fortran.h
REM seed -1979290817 -231659703 -2054982789 -356491833 1473924614 -1826160551 -307913755 -491161745 1724394740 -1257246434 1165738817 933265849 -120100561 2018825262 1204811386 1099474033 -432138271 1152476742 890844345 -1351068976 -270569502 -1264414148 553393930 -1909165364 1004642170 -1031432045 545314905 1992476789 1098371847 -1181664861 -935133150 -29724232 269893009
REM
CELL 1.54180   50.00000   50.00000   50.00000   90.00000   90.00000   90.00000
LATT -1
SFAC C  
C      1  0.4626650000000  0.4674480000000  0.5221880000000 1.0
C      1  0.5649900000000  0.5352410000000  0.5187440000000 1.0
C      1  0.4794850000000  0.4817600000000  0.4293600000000 1.0
C      1  0.5053950000000  0.5507670000000  0.4439720000000 1.0
C      1  0.4988410000000  0.5597720000000  0.4699510000000 1.0
C      1  0.5423920000000  0.4617830000000  0.4448860000000 1.0
C      1  0.4599860000000  0.5667590000000  0.5032530000000 1.0
C      1  0.4829970000000  0.5107340000000  0.4280530000000 1.0
C      1  0.4734980000000  0.4534150000000  0.5717620000000 1.0
C      1  0.4739240000000  0.5700060000000  0.5310360000000 1.0
C      1  0.5394330000000  0.5695460000000  0.4925130000000 1.0
C      1  0.5242990000000  0.5770950000000  0.5152450000000 1.0
C      1  0.4508190000000  0.5404520000000  0.5185000000000 1.0
C      1  0.5207450000000  0.5248390000000  0.4934360000000 1.0
C      1  0.4445500000000  0.4891780000000  0.5143550000000 1.0
C      1  0.4619710000000  0.5451120000000  0.5470730000000 1.0
C      1  0.5232810000000  0.5742940000000  0.4692150000000 1.0
C      1  0.5500990000000  0.4601570000000  0.5022340000000 1.0
C      1  0.4496320000000  0.5162160000000  0.4610710000000 1.0
C      1  0.5038070000000  0.5118710000000  0.4718470000000 1.0
C      1  0.5362100000000  0.5129450000000  0.4362890000000 1.0
C      1  0.5093740000000  0.5459170000000  0.5508880000000 1.0
C      1  0.5362670000000  0.5159330000000  0.5753730000000 1.0
C      1  0.4641680000000  0.4704320000000  0.4530520000000 1.0
C      1  0.4591710000000  0.5235060000000  0.4357760000000 1.0
C      1  0.4851590000000  0.4341800000000  0.5568110000000 1.0
C      1  0.5166300000000  0.5090370000000  0.5162370000000 1.0
C      1  0.5205390000000  0.4926200000000  0.5736120000000 1.0
C      1  0.5565810000000  0.5468940000000  0.5430270000000 1.0
C      1  0.5460810000000  0.4895280000000  0.4516020000000 1.0
C      1  0.4885120000000  0.5082920000000  0.5278170000000 1.0
C      1  0.4661930000000  0.4800870000000  0.5763370000000 1.0
C      1  0.4280440000000  0.4510240000000  0.4860860000000 1.0
C      1  0.5086840000000  0.4794120000000  0.4738670000000 1.0
C      1  0.5133090000000  0.4598630000000  0.4481360000000 1.0
C      1  0.4901550000000  0.4991080000000  0.5711520000000 1.0
C      1  0.4794760000000  0.4754620000000  0.4788460000000 1.0
C      1  0.4727820000000  0.4521900000000  0.4992520000000 1.0
C      1  0.4521250000000  0.4366750000000  0.4837910000000 1.0
C      1  0.5667590000000  0.4861810000000  0.4991460000000 1.0
C      1  0.4430810000000  0.4881460000000  0.5622000000000 1.0
C      1  0.5698810000000  0.5067030000000  0.5234880000000 1.0
C      1  0.5357420000000  0.5393270000000  0.5601480000000 1.0
C      1  0.4295240000000  0.4791890000000  0.4884680000000 1.0
C      1  0.4297820000000  0.4930730000000  0.5389330000000 1.0
C      1  0.5641620000000  0.4995050000000  0.4719150000000 1.0
C      1  0.5317620000000  0.4764650000000  0.5511000000000 1.0
C      1  0.5021940000000  0.4677790000000  0.4226520000000 1.0
C      1  0.4940120000000  0.4318720000000  0.5072450000000 1.0
C      1  0.5039640000000  0.4349580000000  0.5360120000000 1.0
C      1  0.4720650000000  0.5128040000000  0.4806310000000 1.0
C      1  0.4848890000000  0.4795660000000  0.5375390000000 1.0
C      1  0.5531860000000  0.5346290000000  0.4434470000000 1.0
C      1  0.5123650000000  0.4278450000000  0.4842840000000 1.0
C      1  0.4638290000000  0.5137710000000  0.5096080000000 1.0
C      1  0.4669380000000  0.4389940000000  0.4570910000000 1.0
C      1  0.5402430000000  0.4372360000000  0.4867630000000 1.0
C      1  0.4401580000000  0.4881730000000  0.4618900000000 1.0
C      1  0.4860470000000  0.5273940000000  0.5529160000000 1.0
C      1  0.5075450000000  0.5214930000000  0.4428730000000 1.0
C      1  0.5476420000000  0.5398540000000  0.4934090000000 1.0
C      1  0.5100630000000  0.4641940000000  0.5329260000000 1.0
C      1  0.5041440000000  0.5670810000000  0.5321180000000 1.0
C      1  0.5412270000000  0.4951990000000  0.5272960000000 1.0
C      1  0.5204770000000  0.4673530000000  0.5021730000000 1.0
C      1  0.4986230000000  0.4344240000000  0.4579780000000 1.0
C      1  0.5629470000000  0.5288820000000  0.4694720000000 1.0
C      1  0.4744810000000  0.5683540000000  0.4796350000000 1.0
END
