TITL C-951343-2256-312 4.87483743195119e-08 125000 -868.058496626125 0 0 142 (C1) n - 1
REM
REM in /home/bkarasulu/work/CARBON/AIRSS/Generating-Clusters/EDIP-Nigel-Params/with-SteepDescent/Only-C1/SD-CG/HFTN-CG
REM
REM
REM
REM
REM
REM ./C.cell (11c1c37f851c82e70ff6c80c92926a4b)
REM
REM compiler GCC version 9.2.1 20190827 (Red Hat 9.2.1-1)
REM options -cpp -mtune=generic -march=x86-64 -g -O0 -fpre-include=/usr/include/finclude/math-vector-fortran.h
REM seed -2113769076 -358951150 1369644437 -538283780 69554078 1696684467 -937933610 -1382119353 -1697307178 -1777255349 524398760 -724256541 1123964237 1837956257 -565190237 1638928075 -179535693 -1936334550 274933438 -1549937947 -1174317708 -2141261031 -578070399 -825765157 -91449853 -1430548976 -1345071364 1396942142 -81770216 242529242 -502624642 -848662887 575736617
REM
CELL 1.54180   50.00000   50.00000   50.00000   90.00000   90.00000   90.00000
LATT -1
SFAC C  
C      1  0.4552030000000  0.5826440000000  0.5445500000000 1.0
C      1  0.4795640000000  0.5046730000000  0.4954140000000 1.0
C      1  0.5025870000000  0.5926330000000  0.5497880000000 1.0
C      1  0.5613150000000  0.5424950000000  0.5052480000000 1.0
C      1  0.5220740000000  0.4870040000000  0.5961190000000 1.0
C      1  0.4720400000000  0.4063450000000  0.4678670000000 1.0
C      1  0.5942660000000  0.4913500000000  0.4851260000000 1.0
C      1  0.4831170000000  0.4620490000000  0.4846530000000 1.0
C      1  0.5659160000000  0.4323380000000  0.4914950000000 1.0
C      1  0.5565370000000  0.5660220000000  0.4499770000000 1.0
C      1  0.5741490000000  0.4936050000000  0.4612840000000 1.0
C      1  0.5674880000000  0.5385910000000  0.4553770000000 1.0
C      1  0.3986410000000  0.5042290000000  0.5486340000000 1.0
C      1  0.4995340000000  0.4018490000000  0.5212660000000 1.0
C      1  0.4814860000000  0.5446900000000  0.4631950000000 1.0
C      1  0.4843170000000  0.5162120000000  0.6045530000000 1.0
C      1  0.5908570000000  0.4434090000000  0.5007340000000 1.0
C      1  0.4367430000000  0.4318740000000  0.4900100000000 1.0
C      1  0.4333870000000  0.4916290000000  0.4315260000000 1.0
C      1  0.4598100000000  0.4756350000000  0.5489200000000 1.0
C      1  0.5232620000000  0.4517550000000  0.4399630000000 1.0
C      1  0.4899640000000  0.4804610000000  0.5506820000000 1.0
C      1  0.5254920000000  0.4446990000000  0.4116540000000 1.0
C      1  0.4363250000000  0.5586870000000  0.5453560000000 1.0
C      1  0.5027790000000  0.4378100000000  0.4914730000000 1.0
C      1  0.4527550000000  0.4610420000000  0.5846770000000 1.0
C      1  0.5848260000000  0.4576590000000  0.4539740000000 1.0
C      1  0.5277760000000  0.4313410000000  0.5732340000000 1.0
C      1  0.5396260000000  0.4329710000000  0.4554910000000 1.0
C      1  0.4636320000000  0.5956960000000  0.5183350000000 1.0
C      1  0.5381440000000  0.4650220000000  0.5190540000000 1.0
C      1  0.4704860000000  0.4562970000000  0.4147330000000 1.0
C      1  0.4788380000000  0.4193620000000  0.5638320000000 1.0
C      1  0.4556340000000  0.4326780000000  0.5124510000000 1.0
C      1  0.5662720000000  0.5474640000000  0.5605450000000 1.0
C      1  0.4982330000000  0.5570400000000  0.5081910000000 1.0
C      1  0.5070750000000  0.5067270000000  0.5074890000000 1.0
C      1  0.6062680000000  0.5512250000000  0.5309260000000 1.0
C      1  0.5295350000000  0.5785400000000  0.5474360000000 1.0
C      1  0.4826190000000  0.4154770000000  0.4985470000000 1.0
C      1  0.6004270000000  0.4627280000000  0.4786520000000 1.0
C      1  0.5560240000000  0.5256840000000  0.4088230000000 1.0
C      1  0.4763380000000  0.5572010000000  0.4885070000000 1.0
C      1  0.4926920000000  0.5138760000000  0.3946870000000 1.0
C      1  0.4755720000000  0.4271430000000  0.4180540000000 1.0
C      1  0.4982800000000  0.4567650000000  0.5379520000000 1.0
C      1  0.4131330000000  0.4621710000000  0.4601530000000 1.0
C      1  0.5084610000000  0.5036510000000  0.4175900000000 1.0
C      1  0.4525170000000  0.5173920000000  0.5612280000000 1.0
C      1  0.4682310000000  0.4534340000000  0.4590990000000 1.0
C      1  0.4565350000000  0.5137840000000  0.5127990000000 1.0
C      1  0.4190590000000  0.5568430000000  0.4709340000000 1.0
C      1  0.5001940000000  0.4915520000000  0.4582170000000 1.0
C      1  0.4404180000000  0.4892980000000  0.5694170000000 1.0
C      1  0.5202730000000  0.5401780000000  0.5758490000000 1.0
C      1  0.4754060000000  0.5010210000000  0.4674150000000 1.0
C      1  0.5002030000000  0.4253320000000  0.5824280000000 1.0
C      1  0.5256780000000  0.4815180000000  0.4512060000000 1.0
C      1  0.5186420000000  0.5264950000000  0.5492600000000 1.0
C      1  0.4532240000000  0.4803960000000  0.4634630000000 1.0
C      1  0.4326120000000  0.5435310000000  0.5185300000000 1.0
C      1  0.4413760000000  0.5422830000000  0.5695680000000 1.0
C      1  0.4417770000000  0.5163360000000  0.4206830000000 1.0
C      1  0.5110210000000  0.5423100000000  0.4641550000000 1.0
C      1  0.5300090000000  0.4868240000000  0.4999990000000 1.0
C      1  0.4922310000000  0.4430160000000  0.6024940000000 1.0
C      1  0.4286380000000  0.4455100000000  0.4405490000000 1.0
C      1  0.5558560000000  0.5719850000000  0.5022600000000 1.0
C      1  0.6046560000000  0.4785230000000  0.5298410000000 1.0
C      1  0.4273860000000  0.4590890000000  0.4859460000000 1.0
C      1  0.5252760000000  0.4206440000000  0.4777840000000 1.0
C      1  0.4663670000000  0.5593020000000  0.4413760000000 1.0
C      1  0.5552610000000  0.5270580000000  0.4791450000000 1.0
C      1  0.5162950000000  0.5861460000000  0.4318560000000 1.0
C      1  0.4542120000000  0.4361340000000  0.5656530000000 1.0
C      1  0.4497570000000  0.5409080000000  0.4271690000000 1.0
C      1  0.5878560000000  0.4946560000000  0.5136000000000 1.0
C      1  0.4108150000000  0.5081420000000  0.4771860000000 1.0
C      1  0.4160530000000  0.4594240000000  0.5377170000000 1.0
C      1  0.4933610000000  0.4907340000000  0.5937990000000 1.0
C      1  0.5453270000000  0.4270670000000  0.5494000000000 1.0
C      1  0.4658730000000  0.4603290000000  0.5080910000000 1.0
C      1  0.5665410000000  0.4378240000000  0.4637180000000 1.0
C      1  0.5767470000000  0.5012950000000  0.5557980000000 1.0
C      1  0.5487530000000  0.5836960000000  0.4755130000000 1.0
C      1  0.5442790000000  0.4927090000000  0.4734500000000 1.0
C      1  0.5159060000000  0.4451540000000  0.5188030000000 1.0
C      1  0.4810880000000  0.5726990000000  0.5564400000000 1.0
C      1  0.5656950000000  0.4522070000000  0.5440180000000 1.0
C      1  0.4935050000000  0.5831970000000  0.4164060000000 1.0
C      1  0.4879230000000  0.4128550000000  0.4424400000000 1.0
C      1  0.5563030000000  0.5020260000000  0.5327280000000 1.0
C      1  0.4970950000000  0.5500190000000  0.5907010000000 1.0
C      1  0.4041710000000  0.4960560000000  0.5025590000000 1.0
C      1  0.4952820000000  0.4421140000000  0.4479790000000 1.0
C      1  0.4707050000000  0.5394660000000  0.5944150000000 1.0
C      1  0.5916970000000  0.4532220000000  0.5284030000000 1.0
C      1  0.3994800000000  0.5148530000000  0.5227440000000 1.0
C      1  0.4842570000000  0.5596040000000  0.4067530000000 1.0
C      1  0.4925400000000  0.6034000000000  0.5223960000000 1.0
C      1  0.5510020000000  0.5032150000000  0.3926790000000 1.0
C      1  0.5277160000000  0.4173610000000  0.5253810000000 1.0
C      1  0.5443260000000  0.4139740000000  0.4998590000000 1.0
C      1  0.4119490000000  0.4909420000000  0.4529830000000 1.0
C      1  0.5175430000000  0.4661110000000  0.3962030000000 1.0
C      1  0.5307830000000  0.5421010000000  0.4150910000000 1.0
C      1  0.4841120000000  0.4005580000000  0.5440710000000 1.0
C      1  0.5041280000000  0.5413790000000  0.3964650000000 1.0
C      1  0.5192850000000  0.5267300000000  0.4387830000000 1.0
C      1  0.4485190000000  0.5776140000000  0.4580450000000 1.0
C      1  0.5460860000000  0.5871010000000  0.5252340000000 1.0
C      1  0.4134330000000  0.4821240000000  0.5578930000000 1.0
C      1  0.4435940000000  0.4642700000000  0.4236100000000 1.0
C      1  0.5707550000000  0.5197530000000  0.4334840000000 1.0
C      1  0.5119820000000  0.5851320000000  0.5077220000000 1.0
C      1  0.4208990000000  0.4739930000000  0.5111280000000 1.0
C      1  0.5839500000000  0.5615850000000  0.5431520000000 1.0
C      1  0.4387010000000  0.4382430000000  0.5402920000000 1.0
C      1  0.5180410000000  0.5345740000000  0.4992980000000 1.0
C      1  0.5196850000000  0.5940350000000  0.4806130000000 1.0
C      1  0.4842750000000  0.5504700000000  0.5350510000000 1.0
C      1  0.5898970000000  0.5383330000000  0.5127430000000 1.0
C      1  0.4555730000000  0.5775920000000  0.4885880000000 1.0
C      1  0.4886520000000  0.4752860000000  0.3988740000000 1.0
C      1  0.5423880000000  0.5295220000000  0.5285950000000 1.0
C      1  0.5145120000000  0.5738620000000  0.4593380000000 1.0
C      1  0.5336600000000  0.4822850000000  0.5442720000000 1.0
C      1  0.4009740000000  0.5358080000000  0.4797070000000 1.0
C      1  0.5399110000000  0.5695090000000  0.4248190000000 1.0
C      1  0.5744770000000  0.5235830000000  0.5727860000000 1.0
C      1  0.4975620000000  0.5073060000000  0.5382780000000 1.0
C      1  0.4775510000000  0.4666050000000  0.6004460000000 1.0
C      1  0.5408660000000  0.5601210000000  0.5680750000000 1.0
C      1  0.4311520000000  0.5637600000000  0.4961960000000 1.0
C      1  0.5323590000000  0.4883730000000  0.4077100000000 1.0
C      1  0.4498900000000  0.4278460000000  0.4634500000000 1.0
C      1  0.4712770000000  0.5227130000000  0.5378640000000 1.0
C      1  0.4491660000000  0.4831740000000  0.5195350000000 1.0
C      1  0.3960910000000  0.5397630000000  0.5086880000000 1.0
C      1  0.5708270000000  0.4740700000000  0.5670000000000 1.0
C      1  0.5367580000000  0.4521980000000  0.5899490000000 1.0
C      1  0.5418330000000  0.4769920000000  0.5744720000000 1.0
END
