TITL C-951333-8791-672 6.73903704455389e-07 125000 -1087.38713038426 0 0 174 (C1) n - 1
REM
REM in /home/bkarasulu/work/CARBON/AIRSS/Generating-Clusters/EDIP-Nigel-Params/with-SteepDescent/Only-C1/SD-CG/HFTN-CG
REM
REM
REM
REM
REM
REM ./C.cell (11c1c37f851c82e70ff6c80c92926a4b)
REM
REM compiler GCC version 9.2.1 20190827 (Red Hat 9.2.1-1)
REM options -cpp -mtune=generic -march=x86-64 -g -O0 -fpre-include=/usr/include/finclude/math-vector-fortran.h
REM seed -241536367 -1719216928 -1024285461 -1623922528 157861245 -850568852 -1340140478 -2103313465 298498729 -26275573 299729981 1156641451 -491210675 1714211782 930949417 -233681666 1976198529 -1446909834 1247578463 1748371737 522083262 372232216 660376808 -784162683 -393555825 964559306 -391778145 663860217 1688001144 -1768788916 799034943 2008970526 -1776953034
REM
CELL 1.54180   50.00000   50.00000   50.00000   90.00000   90.00000   90.00000
LATT -1
SFAC C  
C      1  0.5097090000000  0.5090260000000  0.4678530000000 1.0
C      1  0.5934890000000  0.5007350000000  0.4399560000000 1.0
C      1  0.4919660000000  0.4019670000000  0.4532610000000 1.0
C      1  0.4775210000000  0.6020920000000  0.5413620000000 1.0
C      1  0.4533570000000  0.5916280000000  0.5323670000000 1.0
C      1  0.4886240000000  0.4661700000000  0.3924150000000 1.0
C      1  0.5739120000000  0.4535910000000  0.4362330000000 1.0
C      1  0.5093410000000  0.5357210000000  0.4810240000000 1.0
C      1  0.4661290000000  0.5419360000000  0.4523390000000 1.0
C      1  0.5780200000000  0.5230740000000  0.5413970000000 1.0
C      1  0.4878160000000  0.5398730000000  0.5004900000000 1.0
C      1  0.4498840000000  0.4965960000000  0.3962070000000 1.0
C      1  0.4541160000000  0.5237830000000  0.5326580000000 1.0
C      1  0.4248260000000  0.5612160000000  0.5112910000000 1.0
C      1  0.5780330000000  0.5819120000000  0.4927420000000 1.0
C      1  0.4797500000000  0.4930690000000  0.3985110000000 1.0
C      1  0.6012920000000  0.5034350000000  0.5399900000000 1.0
C      1  0.4734990000000  0.5982970000000  0.4601090000000 1.0
C      1  0.5022840000000  0.6054570000000  0.4609170000000 1.0
C      1  0.5609620000000  0.4203900000000  0.5392940000000 1.0
C      1  0.4991460000000  0.4197480000000  0.4988310000000 1.0
C      1  0.4889630000000  0.4909980000000  0.4730870000000 1.0
C      1  0.5190130000000  0.5825700000000  0.4482170000000 1.0
C      1  0.5479890000000  0.4303120000000  0.4904770000000 1.0
C      1  0.4404880000000  0.4468380000000  0.5468820000000 1.0
C      1  0.6068800000000  0.5327060000000  0.4760850000000 1.0
C      1  0.4487230000000  0.5209480000000  0.4664840000000 1.0
C      1  0.5147410000000  0.5084720000000  0.6176450000000 1.0
C      1  0.5180620000000  0.5431580000000  0.5535950000000 1.0
C      1  0.5812050000000  0.4610000000000  0.4635160000000 1.0
C      1  0.4355000000000  0.5070250000000  0.4415480000000 1.0
C      1  0.3937270000000  0.4425530000000  0.4944340000000 1.0
C      1  0.4708980000000  0.4556150000000  0.4945820000000 1.0
C      1  0.4526850000000  0.5611830000000  0.5223760000000 1.0
C      1  0.5343930000000  0.4935500000000  0.4663060000000 1.0
C      1  0.4086820000000  0.5000570000000  0.5482320000000 1.0
C      1  0.4744870000000  0.5158520000000  0.5111140000000 1.0
C      1  0.5571980000000  0.4466750000000  0.5794600000000 1.0
C      1  0.4712710000000  0.5629630000000  0.4993920000000 1.0
C      1  0.4997910000000  0.5168550000000  0.5545270000000 1.0
C      1  0.5363700000000  0.5146250000000  0.3960430000000 1.0
C      1  0.4912180000000  0.4685200000000  0.5700190000000 1.0
C      1  0.5048600000000  0.3920110000000  0.4945980000000 1.0
C      1  0.5088590000000  0.4970080000000  0.5782700000000 1.0
C      1  0.4006540000000  0.5306340000000  0.5487720000000 1.0
C      1  0.5018260000000  0.5751620000000  0.5918780000000 1.0
C      1  0.5721740000000  0.5271920000000  0.5706160000000 1.0
C      1  0.4657610000000  0.5784020000000  0.4389130000000 1.0
C      1  0.4500760000000  0.4800580000000  0.4386800000000 1.0
C      1  0.5477770000000  0.4114310000000  0.5146980000000 1.0
C      1  0.5570980000000  0.5135540000000  0.4575820000000 1.0
C      1  0.4765700000000  0.4506010000000  0.5233910000000 1.0
C      1  0.5079810000000  0.5549660000000  0.4576680000000 1.0
C      1  0.4467070000000  0.4250110000000  0.4408270000000 1.0
C      1  0.5120530000000  0.5326310000000  0.6038780000000 1.0
C      1  0.5343720000000  0.5356990000000  0.4979550000000 1.0
C      1  0.5224000000000  0.3952810000000  0.5190990000000 1.0
C      1  0.4168730000000  0.5513240000000  0.4630720000000 1.0
C      1  0.4435940000000  0.4705910000000  0.4107300000000 1.0
C      1  0.4345860000000  0.4661290000000  0.4619070000000 1.0
C      1  0.5292730000000  0.5528350000000  0.5256790000000 1.0
C      1  0.5017100000000  0.4224850000000  0.5881400000000 1.0
C      1  0.5396960000000  0.4132140000000  0.4663070000000 1.0
C      1  0.5009670000000  0.5877070000000  0.5428260000000 1.0
C      1  0.5746260000000  0.5014230000000  0.4195250000000 1.0
C      1  0.4400220000000  0.5591210000000  0.4457940000000 1.0
C      1  0.4946690000000  0.4992330000000  0.5274020000000 1.0
C      1  0.5913760000000  0.5486300000000  0.4540750000000 1.0
C      1  0.4360070000000  0.4965840000000  0.5349390000000 1.0
C      1  0.5925830000000  0.4878960000000  0.4644320000000 1.0
C      1  0.4651600000000  0.4514260000000  0.4031910000000 1.0
C      1  0.4086960000000  0.5572370000000  0.5360080000000 1.0
C      1  0.5997870000000  0.5052420000000  0.4861560000000 1.0
C      1  0.5032260000000  0.4515610000000  0.4529640000000 1.0
C      1  0.5151970000000  0.5414580000000  0.4313980000000 1.0
C      1  0.5545270000000  0.5064490000000  0.5320960000000 1.0
C      1  0.5183540000000  0.4121950000000  0.5684980000000 1.0
C      1  0.5682290000000  0.5640790000000  0.4689010000000 1.0
C      1  0.5363130000000  0.5486410000000  0.6004690000000 1.0
C      1  0.5097020000000  0.5739210000000  0.5184200000000 1.0
C      1  0.5504730000000  0.5784310000000  0.4479410000000 1.0
C      1  0.4566300000000  0.5209500000000  0.5855140000000 1.0
C      1  0.4090560000000  0.5393670000000  0.5758960000000 1.0
C      1  0.5337640000000  0.5167020000000  0.4285220000000 1.0
C      1  0.5588060000000  0.4074590000000  0.4466910000000 1.0
C      1  0.5208900000000  0.4505630000000  0.5259100000000 1.0
C      1  0.5319690000000  0.5648070000000  0.4045880000000 1.0
C      1  0.4597000000000  0.3972150000000  0.5180860000000 1.0
C      1  0.5394360000000  0.4868510000000  0.5788560000000 1.0
C      1  0.5589960000000  0.4298690000000  0.4301050000000 1.0
C      1  0.5903480000000  0.4507650000000  0.5109800000000 1.0
C      1  0.3926200000000  0.5223360000000  0.4625310000000 1.0
C      1  0.4794070000000  0.4748710000000  0.5421260000000 1.0
C      1  0.4492690000000  0.4756910000000  0.4880880000000 1.0
C      1  0.5394840000000  0.4630550000000  0.5965650000000 1.0
C      1  0.3895500000000  0.4818190000000  0.5299160000000 1.0
C      1  0.6069110000000  0.4920450000000  0.5121870000000 1.0
C      1  0.5825400000000  0.4408770000000  0.5374620000000 1.0
C      1  0.5043680000000  0.3988880000000  0.5455640000000 1.0
C      1  0.5542880000000  0.5889480000000  0.5100810000000 1.0
C      1  0.4240110000000  0.5635490000000  0.5701830000000 1.0
C      1  0.4647890000000  0.4925150000000  0.5962150000000 1.0
C      1  0.5542540000000  0.5608820000000  0.4245040000000 1.0
C      1  0.5258700000000  0.5893110000000  0.4992050000000 1.0
C      1  0.5170100000000  0.3933880000000  0.4675740000000 1.0
C      1  0.5532970000000  0.4781260000000  0.5386600000000 1.0
C      1  0.4651990000000  0.4284600000000  0.5537300000000 1.0
C      1  0.4010770000000  0.4895470000000  0.5014580000000 1.0
C      1  0.4446870000000  0.5199600000000  0.4145400000000 1.0
C      1  0.5965890000000  0.5652510000000  0.5097700000000 1.0
C      1  0.5145610000000  0.4913230000000  0.4267240000000 1.0
C      1  0.5487150000000  0.5427360000000  0.5754870000000 1.0
C      1  0.4727690000000  0.4015710000000  0.5427720000000 1.0
C      1  0.4500930000000  0.4044790000000  0.4925570000000 1.0
C      1  0.4297920000000  0.4794110000000  0.5102330000000 1.0
C      1  0.4057090000000  0.5018940000000  0.4462390000000 1.0
C      1  0.5289990000000  0.5761410000000  0.6010090000000 1.0
C      1  0.4258030000000  0.5184000000000  0.5874790000000 1.0
C      1  0.4954020000000  0.4269610000000  0.4356980000000 1.0
C      1  0.4684040000000  0.4313830000000  0.4244140000000 1.0
C      1  0.3990820000000  0.5192150000000  0.4918840000000 1.0
C      1  0.5452300000000  0.4239860000000  0.5642440000000 1.0
C      1  0.5784290000000  0.5504730000000  0.5272550000000 1.0
C      1  0.4851450000000  0.4751640000000  0.6077620000000 1.0
C      1  0.4284890000000  0.4262260000000  0.4895960000000 1.0
C      1  0.5395630000000  0.4352650000000  0.4089470000000 1.0
C      1  0.5706880000000  0.4999760000000  0.5809890000000 1.0
C      1  0.3964730000000  0.4513780000000  0.5239690000000 1.0
C      1  0.4900100000000  0.5522650000000  0.6069750000000 1.0
C      1  0.4167980000000  0.4925050000000  0.5776560000000 1.0
C      1  0.4461030000000  0.6021630000000  0.5055270000000 1.0
C      1  0.4060020000000  0.4747440000000  0.4584920000000 1.0
C      1  0.5548860000000  0.5670400000000  0.5301100000000 1.0
C      1  0.5725990000000  0.5378350000000  0.4309100000000 1.0
C      1  0.5553740000000  0.5378410000000  0.4773520000000 1.0
C      1  0.4222480000000  0.5879640000000  0.4992670000000 1.0
C      1  0.4991640000000  0.4316610000000  0.5252200000000 1.0
C      1  0.4836580000000  0.4392180000000  0.5749180000000 1.0
C      1  0.4683350000000  0.4001480000000  0.4704660000000 1.0
C      1  0.5729930000000  0.4627250000000  0.5566270000000 1.0
C      1  0.4916370000000  0.5452140000000  0.4090920000000 1.0
C      1  0.6142790000000  0.4650930000000  0.5102240000000 1.0
C      1  0.5140120000000  0.4244060000000  0.4135400000000 1.0
C      1  0.6157770000000  0.5503100000000  0.4959500000000 1.0
C      1  0.5270000000000  0.4706380000000  0.5455720000000 1.0
C      1  0.5009160000000  0.5668420000000  0.5626590000000 1.0
C      1  0.5117830000000  0.5837030000000  0.4182830000000 1.0
C      1  0.5251810000000  0.4709050000000  0.4462000000000 1.0
C      1  0.4965950000000  0.4623720000000  0.4800450000000 1.0
C      1  0.4271190000000  0.4501300000000  0.5202840000000 1.0
C      1  0.4332780000000  0.4370900000000  0.4620080000000 1.0
C      1  0.5446500000000  0.4636820000000  0.3996780000000 1.0
C      1  0.5402070000000  0.5089720000000  0.5075710000000 1.0
C      1  0.5757300000000  0.4433730000000  0.4867860000000 1.0
C      1  0.4724180000000  0.5926170000000  0.4910550000000 1.0
C      1  0.4643550000000  0.5016480000000  0.4847960000000 1.0
C      1  0.4729870000000  0.5273790000000  0.4262130000000 1.0
C      1  0.5216800000000  0.5393730000000  0.3889220000000 1.0
C      1  0.4840970000000  0.5742700000000  0.4142880000000 1.0
C      1  0.4433610000000  0.4781570000000  0.5810070000000 1.0
C      1  0.4699840000000  0.5244200000000  0.5581430000000 1.0
C      1  0.4226120000000  0.5387630000000  0.4899330000000 1.0
C      1  0.4452930000000  0.5670900000000  0.5883470000000 1.0
C      1  0.5670010000000  0.4737180000000  0.4161660000000 1.0
C      1  0.4500370000000  0.4751440000000  0.5518260000000 1.0
C      1  0.5226350000000  0.4843250000000  0.3967370000000 1.0
C      1  0.5926790000000  0.4850500000000  0.5646760000000 1.0
C      1  0.4616630000000  0.5468260000000  0.5997390000000 1.0
C      1  0.3901410000000  0.4693790000000  0.4823650000000 1.0
C      1  0.5258070000000  0.4571730000000  0.4977030000000 1.0
C      1  0.4833870000000  0.4977040000000  0.4294370000000 1.0
C      1  0.5118290000000  0.4806400000000  0.6165580000000 1.0
C      1  0.5176380000000  0.4904080000000  0.5070260000000 1.0
C      1  0.5051250000000  0.6073840000000  0.4899260000000 1.0
END
