TITL C-951333-8791-544 -3.06599553852683e-06 125000 -463.544712423115 0 0 76 (C1) n - 1
REM
REM in /home/bkarasulu/work/CARBON/AIRSS/Generating-Clusters/EDIP-Nigel-Params/with-SteepDescent/Only-C1/SD-CG/HFTN-CG
REM
REM
REM
REM
REM
REM ./C.cell (11c1c37f851c82e70ff6c80c92926a4b)
REM
REM compiler GCC version 9.2.1 20190827 (Red Hat 9.2.1-1)
REM options -cpp -mtune=generic -march=x86-64 -g -O0 -fpre-include=/usr/include/finclude/math-vector-fortran.h
REM seed -440002917 1345554185 30009002 -485049964 451040667 1436748926 -1439435859 2041642654 1619638262 -924931372 -1901351374 -620501377 -1673607995 -74075196 993294249 654676717 1384413073 95898696 -1145933122 265474236 -1103134675 113381422 -283740657 -2053320268 973104543 1947840468 297661550 882976293 515403074 1501350095 -51367232 -610703127 -129918396
REM
CELL 1.54180   50.00000   50.00000   50.00000   90.00000   90.00000   90.00000
LATT -1
SFAC C  
C      1  0.5324850000000  0.4806180000000  0.5660320000000 1.0
C      1  0.5219000000000  0.4428900000000  0.4876260000000 1.0
C      1  0.5065050000000  0.5418460000000  0.4901310000000 1.0
C      1  0.4331960000000  0.5043410000000  0.4722770000000 1.0
C      1  0.4721440000000  0.5078300000000  0.5138090000000 1.0
C      1  0.5527320000000  0.5392250000000  0.4453170000000 1.0
C      1  0.4622090000000  0.4583680000000  0.4347710000000 1.0
C      1  0.5804100000000  0.5207760000000  0.5273010000000 1.0
C      1  0.4533680000000  0.4998230000000  0.5602180000000 1.0
C      1  0.4402660000000  0.5198440000000  0.4266070000000 1.0
C      1  0.4724210000000  0.5271870000000  0.4903300000000 1.0
C      1  0.4253030000000  0.5278890000000  0.4931950000000 1.0
C      1  0.5269500000000  0.5091870000000  0.5196450000000 1.0
C      1  0.4795990000000  0.4390140000000  0.4495820000000 1.0
C      1  0.5275910000000  0.4253040000000  0.5102150000000 1.0
C      1  0.5692720000000  0.4798980000000  0.4553410000000 1.0
C      1  0.5647150000000  0.5290660000000  0.4689050000000 1.0
C      1  0.4943030000000  0.5263940000000  0.5912070000000 1.0
C      1  0.5135580000000  0.4853500000000  0.5325610000000 1.0
C      1  0.5219570000000  0.4420500000000  0.5319470000000 1.0
C      1  0.5720110000000  0.4982390000000  0.5420960000000 1.0
C      1  0.4216880000000  0.4859180000000  0.4296940000000 1.0
C      1  0.5205670000000  0.5004710000000  0.4706180000000 1.0
C      1  0.5142250000000  0.5335340000000  0.5682870000000 1.0
C      1  0.4972270000000  0.5589020000000  0.5625830000000 1.0
C      1  0.5148470000000  0.5839530000000  0.5015200000000 1.0
C      1  0.4490210000000  0.5474990000000  0.4915590000000 1.0
C      1  0.4647410000000  0.5241330000000  0.4409650000000 1.0
C      1  0.4347890000000  0.4648050000000  0.4444470000000 1.0
C      1  0.5374280000000  0.5184810000000  0.4319620000000 1.0
C      1  0.4877520000000  0.5923080000000  0.5031610000000 1.0
C      1  0.5136810000000  0.5568340000000  0.5162920000000 1.0
C      1  0.5175700000000  0.4709890000000  0.4375010000000 1.0
C      1  0.4508450000000  0.5114000000000  0.5331300000000 1.0
C      1  0.5012820000000  0.4811730000000  0.5726580000000 1.0
C      1  0.5288950000000  0.5542800000000  0.4712930000000 1.0
C      1  0.4312610000000  0.5315080000000  0.5242280000000 1.0
C      1  0.5628320000000  0.5410140000000  0.5186500000000 1.0
C      1  0.4414160000000  0.4614350000000  0.5359440000000 1.0
C      1  0.5356450000000  0.5364250000000  0.5301190000000 1.0
C      1  0.5775990000000  0.4645930000000  0.5038430000000 1.0
C      1  0.5124720000000  0.5209940000000  0.4472550000000 1.0
C      1  0.4770010000000  0.4811260000000  0.4629690000000 1.0
C      1  0.5267700000000  0.5826070000000  0.4759810000000 1.0
C      1  0.4996830000000  0.4747970000000  0.4841170000000 1.0
C      1  0.4909530000000  0.4843470000000  0.4350750000000 1.0
C      1  0.5443240000000  0.4875390000000  0.4358100000000 1.0
C      1  0.4727100000000  0.5785080000000  0.5232270000000 1.0
C      1  0.4481580000000  0.5650100000000  0.5152860000000 1.0
C      1  0.5529080000000  0.5014410000000  0.4713560000000 1.0
C      1  0.4202790000000  0.5102240000000  0.4454460000000 1.0
C      1  0.4563820000000  0.4709380000000  0.5579730000000 1.0
C      1  0.4948980000000  0.4408940000000  0.5415440000000 1.0
C      1  0.5633350000000  0.4740570000000  0.5274840000000 1.0
C      1  0.4350670000000  0.4726030000000  0.4728380000000 1.0
C      1  0.5410320000000  0.4649000000000  0.4903640000000 1.0
C      1  0.5093700000000  0.4432920000000  0.4453250000000 1.0
C      1  0.4830520000000  0.5012030000000  0.5840840000000 1.0
C      1  0.5143540000000  0.5147220000000  0.4949530000000 1.0
C      1  0.4759650000000  0.4317320000000  0.5209290000000 1.0
C      1  0.4850070000000  0.4195270000000  0.4966580000000 1.0
C      1  0.4846380000000  0.4634280000000  0.5572250000000 1.0
C      1  0.4529020000000  0.4547360000000  0.4883030000000 1.0
C      1  0.5420290000000  0.4603650000000  0.5440540000000 1.0
C      1  0.4625790000000  0.4578210000000  0.5160450000000 1.0
C      1  0.4692630000000  0.4331300000000  0.4769370000000 1.0
C      1  0.4782710000000  0.5514150000000  0.5849370000000 1.0
C      1  0.4898500000000  0.5139830000000  0.4299040000000 1.0
C      1  0.5262070000000  0.4289040000000  0.4625090000000 1.0
C      1  0.4902780000000  0.5584830000000  0.5346000000000 1.0
C      1  0.4872810000000  0.4814160000000  0.5132180000000 1.0
C      1  0.4631270000000  0.5093410000000  0.4668150000000 1.0
C      1  0.5665520000000  0.4597350000000  0.4769740000000 1.0
C      1  0.5428010000000  0.5308990000000  0.5667180000000 1.0
C      1  0.5611640000000  0.5474730000000  0.4905220000000 1.0
C      1  0.5531340000000  0.5036160000000  0.5649990000000 1.0
END
