TITL C-950534-5965-502 -0.204360221934435 125000 -66.4008806476858 0 0 13 (C1) n - 1
REM
REM in /home/bkarasulu/work/CARBON/AIRSS/Generating-Clusters/EDIP-Nigel-Params/with-SteepDescent/Only-C1/SD-CG/HFTN-CG
REM
REM
REM
REM
REM
REM ./C.cell (11c1c37f851c82e70ff6c80c92926a4b)
REM
REM compiler GCC version 9.2.1 20190827 (Red Hat 9.2.1-1)
REM options -cpp -mtune=generic -march=x86-64 -g -O0 -fpre-include=/usr/include/finclude/math-vector-fortran.h
REM seed -1797058848 641405816 -24777885 -951058908 478392306 -1416619229 -873367157 644037769 -1578974899 75744576 -1236452896 -59367129 585533242 1455664188 1135204081 534864286 711475072 993400281 1507068532 805873460 1338440620 -1927430011 1832741442 1988857520 1242331953 498081837 1325435679 -593813523 -1767882416 1043524853 30403939 -173490571 2091124708
REM
CELL 1.54180   50.00000   50.00000   50.00000   90.00000   90.00000   90.00000
LATT -1
SFAC C  
C      1  0.5080840000000  0.5594180000000  0.5488310000000 1.0
C      1  0.5288330000000  0.5044130000000  0.4992210000000 1.0
C      1  0.5089120000000  0.4403670000000  0.4909800000000 1.0
C      1  0.5117030000000  0.5225860000000  0.5137820000000 1.0
C      1  0.4880710000000  0.4878360000000  0.4773390000000 1.0
C      1  0.4606350000000  0.4888160000000  0.4759180000000 1.0
C      1  0.5266970000000  0.4596410000000  0.4872580000000 1.0
C      1  0.5056980000000  0.5483830000000  0.5025750000000 1.0
C      1  0.5164080000000  0.4870080000000  0.4763710000000 1.0
C      1  0.5197990000000  0.5485590000000  0.5275700000000 1.0
C      1  0.4447390000000  0.4743690000000  0.4944020000000 1.0
C      1  0.5348300000000  0.4773670000000  0.5092820000000 1.0
C      1  0.4455910000000  0.5012380000000  0.4964710000000 1.0
END
