TITL C-950532-2784-339 -4.48184377100333e-06 125000 -1176.44279114371 0 0 190 (C1) n - 1
REM
REM in /home/bkarasulu/work/CARBON/AIRSS/Generating-Clusters/EDIP-Nigel-Params/with-SteepDescent/Only-C1/SD-CG/HFTN-CG
REM
REM
REM
REM
REM
REM ./C.cell (11c1c37f851c82e70ff6c80c92926a4b)
REM
REM compiler GCC version 9.2.1 20190827 (Red Hat 9.2.1-1)
REM options -cpp -mtune=generic -march=x86-64 -g -O0 -fpre-include=/usr/include/finclude/math-vector-fortran.h
REM seed -234714216 -782286878 1919291456 1954277753 1455798643 -344911121 2079464971 211818220 -93816959 -1048780594 -1594476419 1110198936 366267586 -1400219786 694590624 -431964642 -261948313 304811173 1240399828 1989500888 418985154 1017226806 694421673 -98506145 558945467 -369044012 -1008640135 21188365 562081772 444604020 -153435581 -539901284 -478440759
REM
CELL 1.54180   50.00000   50.00000   50.00000   90.00000   90.00000   90.00000
LATT -1
SFAC C  
C      1  0.5110850000000  0.3951310000000  0.5079820000000 1.0
C      1  0.5852670000000  0.4282210000000  0.4701550000000 1.0
C      1  0.5508340000000  0.5922200000000  0.5548700000000 1.0
C      1  0.6174690000000  0.4782130000000  0.5016710000000 1.0
C      1  0.4343390000000  0.4390010000000  0.4636790000000 1.0
C      1  0.4849270000000  0.5021950000000  0.5188040000000 1.0
C      1  0.4817260000000  0.4212280000000  0.4152280000000 1.0
C      1  0.4713230000000  0.4704300000000  0.4470060000000 1.0
C      1  0.3839980000000  0.5183250000000  0.4817800000000 1.0
C      1  0.5234960000000  0.5332240000000  0.4494630000000 1.0
C      1  0.4154480000000  0.4875650000000  0.4855190000000 1.0
C      1  0.5671920000000  0.4532030000000  0.5306040000000 1.0
C      1  0.4770130000000  0.5995070000000  0.5177680000000 1.0
C      1  0.5460480000000  0.5769610000000  0.5782850000000 1.0
C      1  0.5276750000000  0.4959920000000  0.5431230000000 1.0
C      1  0.4648840000000  0.4455920000000  0.5020880000000 1.0
C      1  0.4546200000000  0.4282560000000  0.4122810000000 1.0
C      1  0.4200170000000  0.5649510000000  0.4368000000000 1.0
C      1  0.5220360000000  0.4732430000000  0.5234540000000 1.0
C      1  0.4846060000000  0.5842440000000  0.5692360000000 1.0
C      1  0.5142590000000  0.4983690000000  0.6025900000000 1.0
C      1  0.4118480000000  0.5017220000000  0.4406910000000 1.0
C      1  0.5518800000000  0.4623240000000  0.5578050000000 1.0
C      1  0.4129750000000  0.5452830000000  0.5539950000000 1.0
C      1  0.5343420000000  0.5312280000000  0.3963800000000 1.0
C      1  0.5402340000000  0.3858070000000  0.5106940000000 1.0
C      1  0.4390450000000  0.4572450000000  0.5890760000000 1.0
C      1  0.5698050000000  0.5832990000000  0.5363040000000 1.0
C      1  0.4438020000000  0.5825940000000  0.4416820000000 1.0
C      1  0.4473590000000  0.5736870000000  0.5393170000000 1.0
C      1  0.5205520000000  0.5897180000000  0.4345730000000 1.0
C      1  0.5517480000000  0.4656540000000  0.4164430000000 1.0
C      1  0.4196870000000  0.5536720000000  0.4113830000000 1.0
C      1  0.5371670000000  0.5650540000000  0.4313760000000 1.0
C      1  0.4351380000000  0.5593730000000  0.5623280000000 1.0
C      1  0.4549830000000  0.4996220000000  0.4480580000000 1.0
C      1  0.5659180000000  0.5077090000000  0.5839740000000 1.0
C      1  0.4371340000000  0.5309670000000  0.4972570000000 1.0
C      1  0.5040570000000  0.5910600000000  0.5216970000000 1.0
C      1  0.4454660000000  0.5156220000000  0.5850060000000 1.0
C      1  0.5900190000000  0.4660380000000  0.4899010000000 1.0
C      1  0.3852100000000  0.5568720000000  0.5141330000000 1.0
C      1  0.4103540000000  0.4341920000000  0.5138230000000 1.0
C      1  0.4761230000000  0.6164800000000  0.4423070000000 1.0
C      1  0.5605570000000  0.4860710000000  0.4471850000000 1.0
C      1  0.4123210000000  0.5175850000000  0.5470260000000 1.0
C      1  0.5433270000000  0.5730410000000  0.4741290000000 1.0
C      1  0.5210370000000  0.4693030000000  0.6069150000000 1.0
C      1  0.4875950000000  0.5774020000000  0.4660810000000 1.0
C      1  0.4193960000000  0.4202890000000  0.4453520000000 1.0
C      1  0.5964870000000  0.4517890000000  0.5389330000000 1.0
C      1  0.4927120000000  0.4437880000000  0.4891890000000 1.0
C      1  0.5957770000000  0.5469550000000  0.5174520000000 1.0
C      1  0.4878150000000  0.4536180000000  0.5954360000000 1.0
C      1  0.5165980000000  0.4265270000000  0.5047190000000 1.0
C      1  0.6204710000000  0.5307360000000  0.5104240000000 1.0
C      1  0.5023350000000  0.5681290000000  0.3993840000000 1.0
C      1  0.4135870000000  0.5482640000000  0.4883300000000 1.0
C      1  0.5122640000000  0.5462220000000  0.5435960000000 1.0
C      1  0.5877940000000  0.4685740000000  0.5852330000000 1.0
C      1  0.4706860000000  0.3982380000000  0.4744180000000 1.0
C      1  0.4716470000000  0.5699360000000  0.4382340000000 1.0
C      1  0.5863930000000  0.5474370000000  0.5634960000000 1.0
C      1  0.5796200000000  0.5066360000000  0.4210890000000 1.0
C      1  0.5570550000000  0.4984370000000  0.5533360000000 1.0
C      1  0.4603080000000  0.5494340000000  0.4990390000000 1.0
C      1  0.4365650000000  0.3986260000000  0.4391430000000 1.0
C      1  0.4067710000000  0.5735740000000  0.5039610000000 1.0
C      1  0.5508350000000  0.5407220000000  0.5169520000000 1.0
C      1  0.4213930000000  0.5029790000000  0.5730020000000 1.0
C      1  0.4101330000000  0.5483210000000  0.4586510000000 1.0
C      1  0.5601340000000  0.5513280000000  0.5767680000000 1.0
C      1  0.4926390000000  0.5882140000000  0.4217640000000 1.0
C      1  0.4742100000000  0.4990460000000  0.4903750000000 1.0
C      1  0.4989100000000  0.5609790000000  0.5211360000000 1.0
C      1  0.4921220000000  0.4731190000000  0.5221720000000 1.0
C      1  0.5290160000000  0.5019520000000  0.4850350000000 1.0
C      1  0.5521770000000  0.5131490000000  0.4130400000000 1.0
C      1  0.6156100000000  0.4541550000000  0.5172090000000 1.0
C      1  0.5007490000000  0.4962230000000  0.4722420000000 1.0
C      1  0.4701050000000  0.5326640000000  0.5475810000000 1.0
C      1  0.5208590000000  0.6085140000000  0.4577070000000 1.0
C      1  0.5387640000000  0.4752370000000  0.4973770000000 1.0
C      1  0.5325230000000  0.4215010000000  0.4780710000000 1.0
C      1  0.5366060000000  0.6006770000000  0.4813230000000 1.0
C      1  0.4290880000000  0.4810190000000  0.5111860000000 1.0
C      1  0.4770090000000  0.4269180000000  0.5834220000000 1.0
C      1  0.6093910000000  0.4997050000000  0.5487150000000 1.0
C      1  0.5067330000000  0.5194970000000  0.3959300000000 1.0
C      1  0.4925650000000  0.6074050000000  0.4638480000000 1.0
C      1  0.5465940000000  0.5123100000000  0.4616700000000 1.0
C      1  0.4500070000000  0.4342130000000  0.5733330000000 1.0
C      1  0.5249960000000  0.4611300000000  0.4515240000000 1.0
C      1  0.6107700000000  0.5027110000000  0.5185030000000 1.0
C      1  0.4435540000000  0.5942430000000  0.4759820000000 1.0
C      1  0.5764470000000  0.4890780000000  0.6033840000000 1.0
C      1  0.4308460000000  0.5077370000000  0.4195660000000 1.0
C      1  0.5224000000000  0.6032280000000  0.5049090000000 1.0
C      1  0.5207580000000  0.4239450000000  0.5657500000000 1.0
C      1  0.4679660000000  0.5414970000000  0.4232720000000 1.0
C      1  0.4392110000000  0.5067900000000  0.4753610000000 1.0
C      1  0.3857570000000  0.5120550000000  0.5330180000000 1.0
C      1  0.5313160000000  0.5600580000000  0.4026710000000 1.0
C      1  0.5383550000000  0.4524100000000  0.4757200000000 1.0
C      1  0.4920840000000  0.4980450000000  0.5844610000000 1.0
C      1  0.4671690000000  0.5942290000000  0.5465120000000 1.0
C      1  0.4847230000000  0.4312150000000  0.5346360000000 1.0
C      1  0.5116550000000  0.5173260000000  0.5301970000000 1.0
C      1  0.4744820000000  0.5213170000000  0.4435100000000 1.0
C      1  0.4461550000000  0.4243720000000  0.4889170000000 1.0
C      1  0.6011620000000  0.5231420000000  0.5622410000000 1.0
C      1  0.4274100000000  0.4135710000000  0.5090810000000 1.0
C      1  0.5084840000000  0.5462170000000  0.4957870000000 1.0
C      1  0.3938310000000  0.4621580000000  0.5695020000000 1.0
C      1  0.6069920000000  0.5155990000000  0.4637680000000 1.0
C      1  0.5881600000000  0.5640690000000  0.4829400000000 1.0
C      1  0.5231640000000  0.5268490000000  0.5972820000000 1.0
C      1  0.4567680000000  0.5415220000000  0.5722950000000 1.0
C      1  0.5815850000000  0.5047680000000  0.5103630000000 1.0
C      1  0.5155930000000  0.5576510000000  0.4698270000000 1.0
C      1  0.5950380000000  0.4757360000000  0.5571510000000 1.0
C      1  0.4440040000000  0.4075870000000  0.5313690000000 1.0
C      1  0.5951200000000  0.5244170000000  0.4377060000000 1.0
C      1  0.4984960000000  0.4684670000000  0.4639070000000 1.0
C      1  0.4923520000000  0.3888460000000  0.5323690000000 1.0
C      1  0.4481710000000  0.6127400000000  0.4502860000000 1.0
C      1  0.6173960000000  0.5381070000000  0.4810330000000 1.0
C      1  0.5215670000000  0.4383630000000  0.4339290000000 1.0
C      1  0.4400980000000  0.5342430000000  0.4121680000000 1.0
C      1  0.5100390000000  0.4010800000000  0.4545160000000 1.0
C      1  0.5518780000000  0.5308200000000  0.5949540000000 1.0
C      1  0.5491750000000  0.4624580000000  0.6076010000000 1.0
C      1  0.5638040000000  0.4518120000000  0.5840810000000 1.0
C      1  0.5014480000000  0.5114570000000  0.4450490000000 1.0
C      1  0.4871900000000  0.3976550000000  0.4327870000000 1.0
C      1  0.5397700000000  0.5587200000000  0.5389680000000 1.0
C      1  0.5264410000000  0.5253260000000  0.5055650000000 1.0
C      1  0.4425080000000  0.4539430000000  0.4100470000000 1.0
C      1  0.4618370000000  0.3883920000000  0.4472240000000 1.0
C      1  0.3788970000000  0.4855820000000  0.5311080000000 1.0
C      1  0.4712640000000  0.4073240000000  0.5233510000000 1.0
C      1  0.4019310000000  0.4670730000000  0.4713140000000 1.0
C      1  0.4742680000000  0.4705450000000  0.5478280000000 1.0
C      1  0.4878330000000  0.5421710000000  0.4004410000000 1.0
C      1  0.5820340000000  0.5214210000000  0.4840210000000 1.0
C      1  0.5017780000000  0.4430360000000  0.4106980000000 1.0
C      1  0.5184060000000  0.5767840000000  0.5863820000000 1.0
C      1  0.4184760000000  0.4739920000000  0.5755730000000 1.0
C      1  0.5402370000000  0.4401060000000  0.4123570000000 1.0
C      1  0.5548460000000  0.4281570000000  0.5152400000000 1.0
C      1  0.5675280000000  0.4758380000000  0.5081870000000 1.0
C      1  0.4618930000000  0.4755660000000  0.4098380000000 1.0
C      1  0.4990120000000  0.3877190000000  0.4806820000000 1.0
C      1  0.5227400000000  0.4526820000000  0.5618880000000 1.0
C      1  0.5607590000000  0.5584140000000  0.4940220000000 1.0
C      1  0.4625640000000  0.4696160000000  0.6021230000000 1.0
C      1  0.3803360000000  0.5285960000000  0.5089160000000 1.0
C      1  0.4904250000000  0.4716490000000  0.4079230000000 1.0
C      1  0.4342710000000  0.5097210000000  0.5248300000000 1.0
C      1  0.4608710000000  0.4416990000000  0.4481370000000 1.0
C      1  0.5394480000000  0.4066830000000  0.5556180000000 1.0
C      1  0.4664760000000  0.5796220000000  0.4899240000000 1.0
C      1  0.5736040000000  0.4161230000000  0.4925400000000 1.0
C      1  0.5527460000000  0.3964190000000  0.4850180000000 1.0
C      1  0.4165650000000  0.4574560000000  0.5275300000000 1.0
C      1  0.3916850000000  0.4634290000000  0.5417090000000 1.0
C      1  0.5076940000000  0.4956310000000  0.4152660000000 1.0
C      1  0.5366650000000  0.4892750000000  0.4105760000000 1.0
C      1  0.5776860000000  0.5809420000000  0.4598290000000 1.0
C      1  0.5844290000000  0.4714380000000  0.4602500000000 1.0
C      1  0.5527800000000  0.4033130000000  0.5317950000000 1.0
C      1  0.5664480000000  0.5654730000000  0.4380510000000 1.0
C      1  0.4777990000000  0.5597780000000  0.5852000000000 1.0
C      1  0.5058130000000  0.5514560000000  0.5934570000000 1.0
C      1  0.4617240000000  0.5066130000000  0.5381630000000 1.0
C      1  0.5895860000000  0.4459890000000  0.4501990000000 1.0
C      1  0.4554310000000  0.4734980000000  0.4979040000000 1.0
C      1  0.5701260000000  0.5210000000000  0.5320090000000 1.0
C      1  0.5911670000000  0.5645600000000  0.5407550000000 1.0
C      1  0.4660700000000  0.4987690000000  0.5982180000000 1.0
C      1  0.4938360000000  0.4150960000000  0.5604850000000 1.0
C      1  0.4269260000000  0.5825110000000  0.5209390000000 1.0
C      1  0.4187390000000  0.4498270000000  0.4293630000000 1.0
C      1  0.5725040000000  0.5389940000000  0.4501930000000 1.0
C      1  0.4545480000000  0.4427010000000  0.5439840000000 1.0
C      1  0.3968230000000  0.5227240000000  0.4561250000000 1.0
C      1  0.4064640000000  0.4732440000000  0.4445990000000 1.0
C      1  0.4828140000000  0.4268430000000  0.4653330000000 1.0
C      1  0.4687950000000  0.5541240000000  0.5268560000000 1.0
C      1  0.4957170000000  0.4699290000000  0.5703620000000 1.0
END
