TITL C-951347-9520-16 2.28209056975777e-06 125000 -300.11585535886 0 0 50 (C1) n - 1
REM
REM in /home/bkarasulu/work/CARBON/AIRSS/Generating-Clusters/EDIP-Nigel-Params/with-SteepDescent/Only-C1/SD-CG/HFTN-CG
REM
REM
REM
REM
REM
REM ./C.cell (11c1c37f851c82e70ff6c80c92926a4b)
REM
REM compiler GCC version 9.2.1 20190827 (Red Hat 9.2.1-1)
REM options -cpp -mtune=generic -march=x86-64 -g -O0 -fpre-include=/usr/include/finclude/math-vector-fortran.h
REM seed -1053907770 800451053 -29312120 1841242628 1023681272 -1075444104 -404303987 689991916 -414784501 2035745526 1613422081 -1635875683 195455413 1070343063 1926556526 -1306656627 1315468853 -293542815 1822792145 1858106555 1200377823 1166457123 1105966926 -536067644 2088160978 -1985462330 -1707837102 1387764174 -500783498 1679291642 -1381443041 1270326667 -306429060
REM
CELL 1.54180   50.00000   50.00000   50.00000   90.00000   90.00000   90.00000
LATT -1
SFAC C  
C      1  0.4616740000000  0.5355600000000  0.4526700000000 1.0
C      1  0.5131170000000  0.4288910000000  0.4831120000000 1.0
C      1  0.4293650000000  0.4722890000000  0.5021110000000 1.0
C      1  0.5251230000000  0.4507140000000  0.4703950000000 1.0
C      1  0.5603400000000  0.4835320000000  0.4919480000000 1.0
C      1  0.5481350000000  0.5508570000000  0.5195540000000 1.0
C      1  0.5076230000000  0.4708780000000  0.4575650000000 1.0
C      1  0.5269890000000  0.5400920000000  0.5399130000000 1.0
C      1  0.5537620000000  0.5017250000000  0.5156060000000 1.0
C      1  0.4469280000000  0.5214800000000  0.4861090000000 1.0
C      1  0.4966340000000  0.5230790000000  0.5146190000000 1.0
C      1  0.4880590000000  0.4900790000000  0.5432960000000 1.0
C      1  0.4769480000000  0.4459630000000  0.5452520000000 1.0
C      1  0.4306340000000  0.5017950000000  0.5052450000000 1.0
C      1  0.4907070000000  0.5158250000000  0.4870700000000 1.0
C      1  0.5197040000000  0.5201800000000  0.5627520000000 1.0
C      1  0.5131390000000  0.5173130000000  0.4372460000000 1.0
C      1  0.5225900000000  0.4915570000000  0.4423190000000 1.0
C      1  0.4468020000000  0.5115430000000  0.4543860000000 1.0
C      1  0.4484640000000  0.5052030000000  0.5287960000000 1.0
C      1  0.4576240000000  0.4560580000000  0.5225400000000 1.0
C      1  0.5228670000000  0.5051470000000  0.5216200000000 1.0
C      1  0.4900160000000  0.4670290000000  0.5597010000000 1.0
C      1  0.5123860000000  0.5400830000000  0.4536820000000 1.0
C      1  0.5033460000000  0.5662380000000  0.5078580000000 1.0
C      1  0.4977530000000  0.4399560000000  0.5034870000000 1.0
C      1  0.4861290000000  0.5392150000000  0.4687580000000 1.0
C      1  0.5502410000000  0.4921190000000  0.4458790000000 1.0
C      1  0.5060700000000  0.4440510000000  0.5319620000000 1.0
C      1  0.5578160000000  0.4902750000000  0.5433380000000 1.0
C      1  0.5360910000000  0.4954140000000  0.5623080000000 1.0
C      1  0.5022760000000  0.5557590000000  0.5346280000000 1.0
C      1  0.5306090000000  0.5604220000000  0.4969410000000 1.0
C      1  0.4328910000000  0.4587410000000  0.4779790000000 1.0
C      1  0.4771690000000  0.4910690000000  0.4906680000000 1.0
C      1  0.5606930000000  0.5289420000000  0.4778710000000 1.0
C      1  0.4573190000000  0.5458250000000  0.5047580000000 1.0
C      1  0.4908730000000  0.5153530000000  0.5573770000000 1.0
C      1  0.4596180000000  0.4501070000000  0.4741770000000 1.0
C      1  0.5336510000000  0.5416420000000  0.4746040000000 1.0
C      1  0.5654270000000  0.5292740000000  0.5081630000000 1.0
C      1  0.4689550000000  0.4850510000000  0.5206090000000 1.0
C      1  0.4618690000000  0.4890760000000  0.4469060000000 1.0
C      1  0.5260000000000  0.4702840000000  0.5357460000000 1.0
C      1  0.4692650000000  0.4401970000000  0.5000190000000 1.0
C      1  0.4798630000000  0.5599010000000  0.4900270000000 1.0
C      1  0.4672300000000  0.5295990000000  0.5299430000000 1.0
C      1  0.5477560000000  0.4601610000000  0.4837050000000 1.0
C      1  0.5644030000000  0.5006860000000  0.4687400000000 1.0
C      1  0.4770560000000  0.4737720000000  0.4660420000000 1.0
END
