TITL C-951347-9520-99 -1.43228426984474e-06 125000 -463.794367344071 0 0 75 (C1) n - 1
REM
REM in /home/bkarasulu/work/CARBON/AIRSS/Generating-Clusters/EDIP-Nigel-Params/with-SteepDescent/Only-C1/SD-CG/HFTN-CG
REM
REM
REM
REM
REM
REM ./C.cell (11c1c37f851c82e70ff6c80c92926a4b)
REM
REM compiler GCC version 9.2.1 20190827 (Red Hat 9.2.1-1)
REM options -cpp -mtune=generic -march=x86-64 -g -O0 -fpre-include=/usr/include/finclude/math-vector-fortran.h
REM seed -681508676 -1357210102 1582890698 -592475036 810113614 1656796578 1949573578 -510201185 -949096053 -679489861 -416862185 -272972448 1680760878 28012587 -1513323314 841586158 1453081914 -1881430953 -302586110 1547469950 -1605479723 -1189178043 -1894595170 -2012122351 1616479144 -639893967 -481421252 112529701 -1107220772 1174353632 -250344679 548659823 707668356
REM
CELL 1.54180   50.00000   50.00000   50.00000   90.00000   90.00000   90.00000
LATT -1
SFAC C  
C      1  0.5297620000000  0.4376000000000  0.5532060000000 1.0
C      1  0.4265200000000  0.5377480000000  0.4687890000000 1.0
C      1  0.5542140000000  0.4626930000000  0.5014130000000 1.0
C      1  0.5097170000000  0.5039140000000  0.4274460000000 1.0
C      1  0.5014570000000  0.4642020000000  0.5008540000000 1.0
C      1  0.5562720000000  0.4452000000000  0.4539860000000 1.0
C      1  0.4875250000000  0.5154580000000  0.5535760000000 1.0
C      1  0.5459550000000  0.5441550000000  0.4963000000000 1.0
C      1  0.5289980000000  0.4827290000000  0.4610930000000 1.0
C      1  0.5383440000000  0.5021700000000  0.4293480000000 1.0
C      1  0.4868590000000  0.5106010000000  0.5224100000000 1.0
C      1  0.4231320000000  0.5228020000000  0.5149070000000 1.0
C      1  0.4847360000000  0.5587720000000  0.4767960000000 1.0
C      1  0.5004780000000  0.4137130000000  0.5235740000000 1.0
C      1  0.4442560000000  0.4919660000000  0.4479400000000 1.0
C      1  0.5070890000000  0.5720080000000  0.4871130000000 1.0
C      1  0.5339440000000  0.5214540000000  0.5113280000000 1.0
C      1  0.5284890000000  0.4555260000000  0.5170500000000 1.0
C      1  0.5721670000000  0.4919420000000  0.4658980000000 1.0
C      1  0.4190180000000  0.5160740000000  0.4869960000000 1.0
C      1  0.4375520000000  0.5598430000000  0.4826340000000 1.0
C      1  0.4453420000000  0.4772380000000  0.5253040000000 1.0
C      1  0.5047780000000  0.4497280000000  0.5644900000000 1.0
C      1  0.5292230000000  0.5560540000000  0.4505830000000 1.0
C      1  0.5124810000000  0.4301480000000  0.4664200000000 1.0
C      1  0.5900270000000  0.5267530000000  0.4972580000000 1.0
C      1  0.5331740000000  0.5370800000000  0.5466860000000 1.0
C      1  0.4480720000000  0.4457480000000  0.4878060000000 1.0
C      1  0.5104810000000  0.4724240000000  0.5798450000000 1.0
C      1  0.4796670000000  0.5638020000000  0.4482750000000 1.0
C      1  0.5269710000000  0.5653140000000  0.5054220000000 1.0
C      1  0.5106600000000  0.4875570000000  0.4849460000000 1.0
C      1  0.4756880000000  0.5423060000000  0.5562280000000 1.0
C      1  0.4822690000000  0.4509540000000  0.5463470000000 1.0
C      1  0.5533690000000  0.5125590000000  0.4530810000000 1.0
C      1  0.5276670000000  0.4931660000000  0.5718460000000 1.0
C      1  0.5291750000000  0.4405730000000  0.4472410000000 1.0
C      1  0.4480720000000  0.5406310000000  0.5607830000000 1.0
C      1  0.4584220000000  0.4304610000000  0.5091200000000 1.0
C      1  0.5657120000000  0.5318220000000  0.5383940000000 1.0
C      1  0.4773740000000  0.4280980000000  0.5294630000000 1.0
C      1  0.4865900000000  0.5598290000000  0.5358620000000 1.0
C      1  0.4705530000000  0.4763580000000  0.4502020000000 1.0
C      1  0.4657990000000  0.4944270000000  0.5665880000000 1.0
C      1  0.4334740000000  0.4690820000000  0.4973420000000 1.0
C      1  0.4420140000000  0.5249600000000  0.4458440000000 1.0
C      1  0.4920340000000  0.4413090000000  0.4820580000000 1.0
C      1  0.4646640000000  0.5422690000000  0.4337470000000 1.0
C      1  0.5151160000000  0.4580710000000  0.4305740000000 1.0
C      1  0.4326530000000  0.5032340000000  0.5336140000000 1.0
C      1  0.5714740000000  0.4841890000000  0.5126860000000 1.0
C      1  0.4630770000000  0.5035670000000  0.4859370000000 1.0
C      1  0.5506770000000  0.4847990000000  0.5568230000000 1.0
C      1  0.4605720000000  0.5254940000000  0.5079900000000 1.0
C      1  0.5541690000000  0.4683730000000  0.4713240000000 1.0
C      1  0.4772900000000  0.4818640000000  0.5150100000000 1.0
C      1  0.4626340000000  0.5549200000000  0.4964080000000 1.0
C      1  0.4428400000000  0.5126900000000  0.5593290000000 1.0
C      1  0.5451450000000  0.5387650000000  0.4661300000000 1.0
C      1  0.4679320000000  0.5728430000000  0.5189150000000 1.0
C      1  0.5062670000000  0.5629290000000  0.4359220000000 1.0
C      1  0.5257050000000  0.4255920000000  0.5256160000000 1.0
C      1  0.4683100000000  0.4506260000000  0.4662300000000 1.0
C      1  0.4765700000000  0.5180910000000  0.4618640000000 1.0
C      1  0.5725180000000  0.5436250000000  0.5111550000000 1.0
C      1  0.5507620000000  0.4570700000000  0.5528860000000 1.0
C      1  0.5091000000000  0.5113840000000  0.5019180000000 1.0
C      1  0.5004590000000  0.5258300000000  0.4437450000000 1.0
C      1  0.5847480000000  0.4996430000000  0.4914310000000 1.0
C      1  0.5588300000000  0.5013480000000  0.5337120000000 1.0
C      1  0.4356950000000  0.4927170000000  0.4786090000000 1.0
C      1  0.4955940000000  0.4785750000000  0.4324830000000 1.0
C      1  0.5157360000000  0.5566900000000  0.5308380000000 1.0
C      1  0.5161460000000  0.5177060000000  0.5625150000000 1.0
C      1  0.4597440000000  0.4681440000000  0.5524970000000 1.0
END
