TITL C-951347-9520-788 1.20186591408571e-05 125000 -104.997660488675 0 0 19 (C1) n - 1
REM
REM in /home/bkarasulu/work/CARBON/AIRSS/Generating-Clusters/EDIP-Nigel-Params/with-SteepDescent/Only-C1/SD-CG/HFTN-CG
REM
REM
REM
REM
REM
REM ./C.cell (11c1c37f851c82e70ff6c80c92926a4b)
REM
REM compiler GCC version 9.2.1 20190827 (Red Hat 9.2.1-1)
REM options -cpp -mtune=generic -march=x86-64 -g -O0 -fpre-include=/usr/include/finclude/math-vector-fortran.h
REM seed -926027520 2124504654 1179645927 331373356 1320849972 269524619 887146801 2052965385 1986926344 154798014 1112206560 909527491 599908166 810634752 28702169 1873422396 2032351960 -12371966 -704885458 -2039294931 -1821935696 -258122408 1537008 -1800278099 1739794524 -1043101028 623510858 -641908990 -849446029 -1994183084 -396828471 1003931507 -1817169880
REM
CELL 1.54180   50.00000   50.00000   50.00000   90.00000   90.00000   90.00000
LATT -1
SFAC C  
C      1  0.5068410000000  0.5118620000000  0.5088760000000 1.0
C      1  0.5074930000000  0.5368280000000  0.4952150000000 1.0
C      1  0.4955150000000  0.4614450000000  0.4469170000000 1.0
C      1  0.5049940000000  0.5699200000000  0.5602290000000 1.0
C      1  0.5024680000000  0.5792060000000  0.5354310000000 1.0
C      1  0.5260100000000  0.5568630000000  0.4999280000000 1.0
C      1  0.4916540000000  0.4905710000000  0.4975020000000 1.0
C      1  0.4629020000000  0.4796280000000  0.4579850000000 1.0
C      1  0.4774520000000  0.4433200000000  0.5009510000000 1.0
C      1  0.5130450000000  0.5108300000000  0.5356580000000 1.0
C      1  0.5297410000000  0.4289890000000  0.4520940000000 1.0
C      1  0.4676280000000  0.4594900000000  0.4396260000000 1.0
C      1  0.5141170000000  0.5221560000000  0.5596850000000 1.0
C      1  0.5104000000000  0.5460650000000  0.5707440000000 1.0
C      1  0.4913050000000  0.4653490000000  0.5105150000000 1.0
C      1  0.5051910000000  0.5725940000000  0.5090370000000 1.0
C      1  0.4856660000000  0.4914220000000  0.4698430000000 1.0
C      1  0.5066450000000  0.4383190000000  0.4610400000000 1.0
C      1  0.5009320000000  0.4351450000000  0.4887240000000 1.0
END
