TITL C-950529-3362-674 -3.04037595573097e-06 125000 -928.817111949928 0 0 150 (C1) n - 1
REM
REM in /home/bkarasulu/work/CARBON/AIRSS/Generating-Clusters/EDIP-Nigel-Params/with-SteepDescent/Only-C1/SD-CG/HFTN-CG
REM
REM
REM
REM
REM
REM ./C.cell (11c1c37f851c82e70ff6c80c92926a4b)
REM
REM compiler GCC version 9.2.1 20190827 (Red Hat 9.2.1-1)
REM options -cpp -mtune=generic -march=x86-64 -g -O0 -fpre-include=/usr/include/finclude/math-vector-fortran.h
REM seed -1351632429 -1390171178 647355509 -2122691393 -1178543590 186719988 1101237561 1409612094 245905352 -1904042573 1981477158 -710018910 593614580 -575856299 -1034428350 -418896053 1466336659 2000077589 -1778337212 -1649654539 -1974982116 756655770 624433964 -1215535925 -708405795 -1753907836 656249394 982726097 -942451975 -1721030187 1092628017 97339096 848292238
REM
CELL 1.54180   50.00000   50.00000   50.00000   90.00000   90.00000   90.00000
LATT -1
SFAC C  
C      1  0.5422660000000  0.4799800000000  0.5058710000000 1.0
C      1  0.4802490000000  0.5073670000000  0.4680160000000 1.0
C      1  0.5914010000000  0.4827010000000  0.4553920000000 1.0
C      1  0.5592320000000  0.4222820000000  0.5305690000000 1.0
C      1  0.5113410000000  0.5815240000000  0.4309340000000 1.0
C      1  0.4503740000000  0.6056880000000  0.4646180000000 1.0
C      1  0.4350500000000  0.4496140000000  0.4653850000000 1.0
C      1  0.5205250000000  0.4932760000000  0.4908200000000 1.0
C      1  0.4397600000000  0.5333450000000  0.4853940000000 1.0
C      1  0.4889860000000  0.4562530000000  0.5907100000000 1.0
C      1  0.4525430000000  0.4786480000000  0.5365140000000 1.0
C      1  0.4749930000000  0.5662240000000  0.5336640000000 1.0
C      1  0.5836960000000  0.4641170000000  0.5431310000000 1.0
C      1  0.5143760000000  0.4330390000000  0.4168490000000 1.0
C      1  0.4684950000000  0.4175380000000  0.4639610000000 1.0
C      1  0.4223400000000  0.5807300000000  0.5182530000000 1.0
C      1  0.4588020000000  0.4411810000000  0.4817150000000 1.0
C      1  0.5233320000000  0.3993440000000  0.5084840000000 1.0
C      1  0.4860110000000  0.5773470000000  0.5768450000000 1.0
C      1  0.5775910000000  0.5086670000000  0.4426890000000 1.0
C      1  0.5327830000000  0.4835540000000  0.4357510000000 1.0
C      1  0.4181020000000  0.4417550000000  0.5175760000000 1.0
C      1  0.4753920000000  0.5682290000000  0.5022680000000 1.0
C      1  0.5464840000000  0.4962210000000  0.5310670000000 1.0
C      1  0.5337820000000  0.4066990000000  0.5349270000000 1.0
C      1  0.4267110000000  0.4966030000000  0.5734930000000 1.0
C      1  0.4176840000000  0.5517990000000  0.5189850000000 1.0
C      1  0.5886600000000  0.5377260000000  0.5406570000000 1.0
C      1  0.4160270000000  0.5083430000000  0.5147210000000 1.0
C      1  0.4048980000000  0.5189110000000  0.4792130000000 1.0
C      1  0.5748580000000  0.4575570000000  0.4564040000000 1.0
C      1  0.5082310000000  0.5133750000000  0.4305510000000 1.0
C      1  0.5580210000000  0.4303350000000  0.5001990000000 1.0
C      1  0.4737300000000  0.4728660000000  0.4850600000000 1.0
C      1  0.5160520000000  0.5955580000000  0.4809950000000 1.0
C      1  0.4869280000000  0.5292080000000  0.5908340000000 1.0
C      1  0.4526490000000  0.4880100000000  0.5048130000000 1.0
C      1  0.4802140000000  0.4706780000000  0.4118940000000 1.0
C      1  0.4994700000000  0.4879450000000  0.5584390000000 1.0
C      1  0.4684040000000  0.5204880000000  0.4110590000000 1.0
C      1  0.5040790000000  0.5073390000000  0.6006380000000 1.0
C      1  0.4653090000000  0.4276090000000  0.4365680000000 1.0
C      1  0.5730960000000  0.5533730000000  0.4438510000000 1.0
C      1  0.4468080000000  0.5642100000000  0.4887130000000 1.0
C      1  0.5233430000000  0.5784130000000  0.4573420000000 1.0
C      1  0.5694290000000  0.5854030000000  0.5351860000000 1.0
C      1  0.4371900000000  0.4963530000000  0.4496100000000 1.0
C      1  0.4898130000000  0.4554530000000  0.5220260000000 1.0
C      1  0.5060360000000  0.4724930000000  0.4473360000000 1.0
C      1  0.4576520000000  0.5168950000000  0.5046080000000 1.0
C      1  0.4239550000000  0.5265230000000  0.5676470000000 1.0
C      1  0.4338150000000  0.4870270000000  0.4235490000000 1.0
C      1  0.4609960000000  0.6082280000000  0.4906610000000 1.0
C      1  0.4513560000000  0.3952720000000  0.4691250000000 1.0
C      1  0.4468360000000  0.4403300000000  0.5717850000000 1.0
C      1  0.5375630000000  0.5971170000000  0.5003330000000 1.0
C      1  0.6014250000000  0.4859310000000  0.4834080000000 1.0
C      1  0.4623950000000  0.5660530000000  0.4391660000000 1.0
C      1  0.5351640000000  0.4724950000000  0.5839160000000 1.0
C      1  0.4693590000000  0.4958850000000  0.5583990000000 1.0
C      1  0.5492290000000  0.5446690000000  0.5669980000000 1.0
C      1  0.5115380000000  0.4702030000000  0.5359500000000 1.0
C      1  0.5533720000000  0.4933910000000  0.5868160000000 1.0
C      1  0.5173110000000  0.5111910000000  0.5516840000000 1.0
C      1  0.4855900000000  0.5251360000000  0.5143100000000 1.0
C      1  0.4292980000000  0.4072420000000  0.4823060000000 1.0
C      1  0.5273330000000  0.5266230000000  0.5765670000000 1.0
C      1  0.3993610000000  0.5390930000000  0.5005230000000 1.0
C      1  0.5049510000000  0.4705080000000  0.4770780000000 1.0
C      1  0.5951170000000  0.5114470000000  0.5282210000000 1.0
C      1  0.4034590000000  0.4861140000000  0.5304430000000 1.0
C      1  0.5744900000000  0.5035060000000  0.5715330000000 1.0
C      1  0.5268550000000  0.5697750000000  0.4107800000000 1.0
C      1  0.4985860000000  0.5225190000000  0.4035270000000 1.0
C      1  0.4586120000000  0.5373800000000  0.4349130000000 1.0
C      1  0.5913070000000  0.5339390000000  0.4563190000000 1.0
C      1  0.5983450000000  0.5369910000000  0.4851340000000 1.0
C      1  0.5547420000000  0.5580440000000  0.4883620000000 1.0
C      1  0.5417630000000  0.4959420000000  0.3936650000000 1.0
C      1  0.5463900000000  0.5505550000000  0.5373750000000 1.0
C      1  0.4725190000000  0.5259130000000  0.5642510000000 1.0
C      1  0.5805790000000  0.4423230000000  0.4815800000000 1.0
C      1  0.5435620000000  0.5245360000000  0.5198320000000 1.0
C      1  0.4963900000000  0.4343130000000  0.5042930000000 1.0
C      1  0.4099770000000  0.4320950000000  0.5426090000000 1.0
C      1  0.5010670000000  0.4732870000000  0.3912060000000 1.0
C      1  0.5345910000000  0.5150760000000  0.4719830000000 1.0
C      1  0.4163280000000  0.4268760000000  0.4647690000000 1.0
C      1  0.5636840000000  0.5374940000000  0.4216670000000 1.0
C      1  0.4402100000000  0.4418580000000  0.4380980000000 1.0
C      1  0.4320500000000  0.4791970000000  0.4727620000000 1.0
C      1  0.4932470000000  0.5339980000000  0.4693070000000 1.0
C      1  0.4485690000000  0.5417420000000  0.5731110000000 1.0
C      1  0.4632990000000  0.4114510000000  0.5533850000000 1.0
C      1  0.4554170000000  0.5729190000000  0.5757760000000 1.0
C      1  0.4846960000000  0.5387740000000  0.5403970000000 1.0
C      1  0.4603760000000  0.4098660000000  0.5233920000000 1.0
C      1  0.4581570000000  0.4921070000000  0.4105860000000 1.0
C      1  0.5988700000000  0.4596590000000  0.4963650000000 1.0
C      1  0.4960520000000  0.5468510000000  0.4959290000000 1.0
C      1  0.4899140000000  0.4038520000000  0.5635450000000 1.0
C      1  0.5245920000000  0.5609650000000  0.5064820000000 1.0
C      1  0.4408740000000  0.4253410000000  0.5043740000000 1.0
C      1  0.5222840000000  0.5803800000000  0.5438170000000 1.0
C      1  0.5757750000000  0.4929110000000  0.5435320000000 1.0
C      1  0.5970880000000  0.5108700000000  0.4989970000000 1.0
C      1  0.4835270000000  0.5806920000000  0.4280860000000 1.0
C      1  0.4597050000000  0.4601910000000  0.5905910000000 1.0
C      1  0.4474220000000  0.5691910000000  0.5460110000000 1.0
C      1  0.5055700000000  0.5027670000000  0.5157380000000 1.0
C      1  0.4939610000000  0.5847470000000  0.5484730000000 1.0
C      1  0.4242180000000  0.4774450000000  0.5502160000000 1.0
C      1  0.4898040000000  0.6025110000000  0.4920000000000 1.0
C      1  0.5497420000000  0.5640080000000  0.4601520000000 1.0
C      1  0.4661740000000  0.4509420000000  0.5384970000000 1.0
C      1  0.4027400000000  0.4665230000000  0.5092040000000 1.0
C      1  0.5430350000000  0.5938750000000  0.5286840000000 1.0
C      1  0.5157680000000  0.4145860000000  0.5567460000000 1.0
C      1  0.4858500000000  0.4077620000000  0.5092080000000 1.0
C      1  0.5229540000000  0.4539010000000  0.3974590000000 1.0
C      1  0.5416560000000  0.4082130000000  0.4868000000000 1.0
C      1  0.5016580000000  0.5535130000000  0.5868330000000 1.0
C      1  0.5165950000000  0.4441320000000  0.4864360000000 1.0
C      1  0.4475080000000  0.5778610000000  0.4614760000000 1.0
C      1  0.5135580000000  0.4999770000000  0.3882630000000 1.0
C      1  0.4062010000000  0.4860150000000  0.4847320000000 1.0
C      1  0.5623900000000  0.4450980000000  0.5498450000000 1.0
C      1  0.5365230000000  0.4291190000000  0.4367630000000 1.0
C      1  0.5847850000000  0.5618070000000  0.4964820000000 1.0
C      1  0.6019350000000  0.4563190000000  0.5238340000000 1.0
C      1  0.5067820000000  0.4806830000000  0.5865860000000 1.0
C      1  0.5375280000000  0.4560160000000  0.5602940000000 1.0
C      1  0.5507510000000  0.5290110000000  0.4920220000000 1.0
C      1  0.4874210000000  0.4952470000000  0.4420080000000 1.0
C      1  0.4211970000000  0.4495870000000  0.5609570000000 1.0
C      1  0.4900910000000  0.4422990000000  0.5636690000000 1.0
C      1  0.4153410000000  0.5392120000000  0.5440350000000 1.0
C      1  0.4543240000000  0.4890180000000  0.5841390000000 1.0
C      1  0.5443440000000  0.4710570000000  0.4098660000000 1.0
C      1  0.4413820000000  0.5243750000000  0.4550060000000 1.0
C      1  0.5505810000000  0.4992890000000  0.4533880000000 1.0
C      1  0.5761830000000  0.5330440000000  0.5675930000000 1.0
C      1  0.5178150000000  0.5344380000000  0.4527360000000 1.0
C      1  0.5356120000000  0.5456090000000  0.4223980000000 1.0
C      1  0.5589800000000  0.4484030000000  0.4331230000000 1.0
C      1  0.5864510000000  0.5642510000000  0.5260160000000 1.0
C      1  0.4441670000000  0.5980220000000  0.5119730000000 1.0
C      1  0.4881400000000  0.4442870000000  0.4272550000000 1.0
C      1  0.5281550000000  0.4173340000000  0.4622860000000 1.0
C      1  0.5375950000000  0.4515800000000  0.5049880000000 1.0
END
