TITL C-950533-5798-8 -1.47750140361914e-06 125000 -1216.48104950455 0 0 193 (C1) n - 1
REM
REM in /home/bkarasulu/work/CARBON/AIRSS/Generating-Clusters/EDIP-Nigel-Params/with-SteepDescent/Only-C1/SD-CG/HFTN-CG
REM
REM
REM
REM
REM
REM ./C.cell (11c1c37f851c82e70ff6c80c92926a4b)
REM
REM compiler GCC version 9.2.1 20190827 (Red Hat 9.2.1-1)
REM options -cpp -mtune=generic -march=x86-64 -g -O0 -fpre-include=/usr/include/finclude/math-vector-fortran.h
REM seed 1520008585 614258249 -192402294 982864694 874668430 -544425268 959084751 -201622576 294008709 416019466 1950933830 1051671448 105778308 1943504940 1148043964 1222204624 1250431232 -109471976 -1257892308 1917616018 847270427 -1455274990 1378407612 2044317651 -424445581 1890107384 -300935085 -1487792190 2035987023 -1387973117 -1876969631 -1584875310 -1160719327
REM
CELL 1.54180   50.00000   50.00000   50.00000   90.00000   90.00000   90.00000
LATT -1
SFAC C  
C      1  0.4900600000000  0.3934080000000  0.5323200000000 1.0
C      1  0.5725900000000  0.5162370000000  0.4103250000000 1.0
C      1  0.4733130000000  0.5078120000000  0.4380670000000 1.0
C      1  0.5167080000000  0.4874120000000  0.4678730000000 1.0
C      1  0.6022010000000  0.4741460000000  0.5410100000000 1.0
C      1  0.4392010000000  0.4884360000000  0.5157010000000 1.0
C      1  0.4301760000000  0.5326340000000  0.5822460000000 1.0
C      1  0.4662830000000  0.5175450000000  0.4688580000000 1.0
C      1  0.4694050000000  0.5021430000000  0.5638840000000 1.0
C      1  0.4010820000000  0.4660030000000  0.4920740000000 1.0
C      1  0.4508430000000  0.6117920000000  0.4730060000000 1.0
C      1  0.5270200000000  0.4574640000000  0.5464550000000 1.0
C      1  0.4811430000000  0.3992180000000  0.4822610000000 1.0
C      1  0.4696420000000  0.4767470000000  0.5229150000000 1.0
C      1  0.5713700000000  0.5955850000000  0.4599580000000 1.0
C      1  0.4204950000000  0.4396220000000  0.4471470000000 1.0
C      1  0.6040760000000  0.5049370000000  0.5354770000000 1.0
C      1  0.4788780000000  0.5582220000000  0.5104470000000 1.0
C      1  0.4884540000000  0.5505790000000  0.3882110000000 1.0
C      1  0.4386420000000  0.5006380000000  0.5611190000000 1.0
C      1  0.4734310000000  0.4945160000000  0.5935070000000 1.0
C      1  0.4745260000000  0.6211240000000  0.4844330000000 1.0
C      1  0.4696040000000  0.4467480000000  0.5206980000000 1.0
C      1  0.4722260000000  0.3908610000000  0.5084270000000 1.0
C      1  0.5963730000000  0.4639560000000  0.5669190000000 1.0
C      1  0.5833080000000  0.5692280000000  0.4641410000000 1.0
C      1  0.4996640000000  0.4681280000000  0.5942660000000 1.0
C      1  0.4969240000000  0.5733200000000  0.5848960000000 1.0
C      1  0.5578720000000  0.4240000000000  0.5049420000000 1.0
C      1  0.5887560000000  0.5135710000000  0.5817470000000 1.0
C      1  0.5818850000000  0.4850630000000  0.5031200000000 1.0
C      1  0.5362790000000  0.5583200000000  0.5174330000000 1.0
C      1  0.5033710000000  0.6127380000000  0.5233040000000 1.0
C      1  0.4008490000000  0.4361300000000  0.4981180000000 1.0
C      1  0.5634210000000  0.5442350000000  0.4153910000000 1.0
C      1  0.5771910000000  0.4528700000000  0.4271290000000 1.0
C      1  0.5406530000000  0.4776940000000  0.3988560000000 1.0
C      1  0.4367080000000  0.5318700000000  0.4172880000000 1.0
C      1  0.4670670000000  0.5482660000000  0.5378940000000 1.0
C      1  0.3972080000000  0.5275220000000  0.5382280000000 1.0
C      1  0.5692470000000  0.4212850000000  0.5310550000000 1.0
C      1  0.5977030000000  0.5236620000000  0.5569220000000 1.0
C      1  0.5157530000000  0.5608380000000  0.3935440000000 1.0
C      1  0.5403330000000  0.5431160000000  0.4563700000000 1.0
C      1  0.4596250000000  0.5666560000000  0.5617750000000 1.0
C      1  0.4335240000000  0.4018010000000  0.4794600000000 1.0
C      1  0.5017970000000  0.5758480000000  0.4559620000000 1.0
C      1  0.4077190000000  0.4658890000000  0.4422120000000 1.0
C      1  0.3959790000000  0.4961770000000  0.5374790000000 1.0
C      1  0.4463000000000  0.4780060000000  0.4665380000000 1.0
C      1  0.4947880000000  0.5879190000000  0.4115790000000 1.0
C      1  0.5290680000000  0.4661550000000  0.6053600000000 1.0
C      1  0.4432230000000  0.5327630000000  0.5320540000000 1.0
C      1  0.4974880000000  0.4390630000000  0.5099460000000 1.0
C      1  0.5320260000000  0.3957850000000  0.4564960000000 1.0
C      1  0.4809980000000  0.4961060000000  0.3934050000000 1.0
C      1  0.5858790000000  0.5223550000000  0.4559220000000 1.0
C      1  0.5806150000000  0.4225040000000  0.4848770000000 1.0
C      1  0.5454820000000  0.4512760000000  0.5012400000000 1.0
C      1  0.5240700000000  0.6144200000000  0.4456170000000 1.0
C      1  0.4831430000000  0.4626180000000  0.4293170000000 1.0
C      1  0.5076950000000  0.5231680000000  0.5336540000000 1.0
C      1  0.4905580000000  0.4115370000000  0.4287690000000 1.0
C      1  0.5529510000000  0.6032990000000  0.5158640000000 1.0
C      1  0.5304920000000  0.5953220000000  0.5595320000000 1.0
C      1  0.5539970000000  0.5903800000000  0.5426740000000 1.0
C      1  0.5029750000000  0.5452290000000  0.5743040000000 1.0
C      1  0.4219370000000  0.4333730000000  0.5211950000000 1.0
C      1  0.5298260000000  0.5429860000000  0.5398870000000 1.0
C      1  0.5225430000000  0.4986170000000  0.4254170000000 1.0
C      1  0.5555080000000  0.4686410000000  0.5451790000000 1.0
C      1  0.4457880000000  0.5831790000000  0.4746050000000 1.0
C      1  0.5995520000000  0.4386880000000  0.5026410000000 1.0
C      1  0.5525970000000  0.4630190000000  0.4747890000000 1.0
C      1  0.5777890000000  0.4774020000000  0.4755370000000 1.0
C      1  0.4954830000000  0.4665830000000  0.4751000000000 1.0
C      1  0.5305350000000  0.5712850000000  0.4609630000000 1.0
C      1  0.5273480000000  0.6157610000000  0.5068920000000 1.0
C      1  0.4741080000000  0.3924290000000  0.5562400000000 1.0
C      1  0.5364670000000  0.5286050000000  0.4819850000000 1.0
C      1  0.5077740000000  0.3926130000000  0.4413470000000 1.0
C      1  0.4855460000000  0.5294790000000  0.5528970000000 1.0
C      1  0.5688880000000  0.5662760000000  0.5552290000000 1.0
C      1  0.5204290000000  0.3960820000000  0.5340440000000 1.0
C      1  0.5462030000000  0.4477260000000  0.5887640000000 1.0
C      1  0.4597410000000  0.4553950000000  0.4111590000000 1.0
C      1  0.4465300000000  0.4024100000000  0.5542010000000 1.0
C      1  0.4821100000000  0.5887990000000  0.5647180000000 1.0
C      1  0.5046900000000  0.5975030000000  0.5473950000000 1.0
C      1  0.5337530000000  0.4818470000000  0.4471390000000 1.0
C      1  0.5488810000000  0.4171140000000  0.4433020000000 1.0
C      1  0.4221690000000  0.5408690000000  0.5516560000000 1.0
C      1  0.5237360000000  0.6284400000000  0.4813390000000 1.0
C      1  0.5974980000000  0.5507920000000  0.5146480000000 1.0
C      1  0.5028300000000  0.4195520000000  0.5888640000000 1.0
C      1  0.5651330000000  0.4062220000000  0.5529630000000 1.0
C      1  0.5070440000000  0.4744120000000  0.5633410000000 1.0
C      1  0.4100030000000  0.5598290000000  0.4459970000000 1.0
C      1  0.5449540000000  0.5504200000000  0.5661120000000 1.0
C      1  0.4421990000000  0.3919830000000  0.5070930000000 1.0
C      1  0.5063080000000  0.5267600000000  0.5958960000000 1.0
C      1  0.5060090000000  0.4402100000000  0.4646150000000 1.0
C      1  0.4288680000000  0.4883620000000  0.4446520000000 1.0
C      1  0.4379870000000  0.5203500000000  0.4771640000000 1.0
C      1  0.5803850000000  0.5028220000000  0.4348640000000 1.0
C      1  0.4772990000000  0.6149550000000  0.5119510000000 1.0
C      1  0.4722970000000  0.4679550000000  0.4573140000000 1.0
C      1  0.4884200000000  0.3976370000000  0.5795820000000 1.0
C      1  0.4399690000000  0.4584120000000  0.6004690000000 1.0
C      1  0.5545490000000  0.5010760000000  0.3954650000000 1.0
C      1  0.5731590000000  0.4290520000000  0.4561580000000 1.0
C      1  0.5213570000000  0.5316790000000  0.4338090000000 1.0
C      1  0.4977870000000  0.6295130000000  0.4699660000000 1.0
C      1  0.5254940000000  0.4024420000000  0.4850140000000 1.0
C      1  0.5411630000000  0.4930290000000  0.6055890000000 1.0
C      1  0.4446740000000  0.4437020000000  0.5042010000000 1.0
C      1  0.5334200000000  0.5437470000000  0.4094160000000 1.0
C      1  0.4986810000000  0.5991380000000  0.4377360000000 1.0
C      1  0.4585990000000  0.4056190000000  0.4654200000000 1.0
C      1  0.6027800000000  0.4703240000000  0.4605750000000 1.0
C      1  0.5204740000000  0.4584270000000  0.5172970000000 1.0
C      1  0.5934700000000  0.4761840000000  0.4334620000000 1.0
C      1  0.3959690000000  0.5599710000000  0.4700670000000 1.0
C      1  0.4828420000000  0.5128690000000  0.4924760000000 1.0
C      1  0.5842200000000  0.4604620000000  0.5209690000000 1.0
C      1  0.4276290000000  0.5749930000000  0.4996770000000 1.0
C      1  0.4128390000000  0.5329100000000  0.4346310000000 1.0
C      1  0.5832320000000  0.5682480000000  0.4941530000000 1.0
C      1  0.5041140000000  0.4376640000000  0.4342190000000 1.0
C      1  0.5658100000000  0.4957680000000  0.5853180000000 1.0
C      1  0.4289750000000  0.4044450000000  0.5302890000000 1.0
C      1  0.4334460000000  0.5877320000000  0.5257750000000 1.0
C      1  0.4617320000000  0.4119510000000  0.4372670000000 1.0
C      1  0.5447540000000  0.5931930000000  0.4497620000000 1.0
C      1  0.4882320000000  0.4863450000000  0.5019620000000 1.0
C      1  0.4535400000000  0.4836580000000  0.3992970000000 1.0
C      1  0.4430040000000  0.4332980000000  0.4271070000000 1.0
C      1  0.6378510000000  0.4646070000000  0.4775760000000 1.0
C      1  0.4255340000000  0.5020980000000  0.5886750000000 1.0
C      1  0.4726990000000  0.5443880000000  0.4628750000000 1.0
C      1  0.4126910000000  0.4228340000000  0.4728850000000 1.0
C      1  0.5285590000000  0.4255400000000  0.5768750000000 1.0
C      1  0.4588380000000  0.4378600000000  0.5990500000000 1.0
C      1  0.3839630000000  0.5101770000000  0.4950850000000 1.0
C      1  0.5328960000000  0.4993430000000  0.4909900000000 1.0
C      1  0.4458990000000  0.4862170000000  0.6029070000000 1.0
C      1  0.4327760000000  0.5183490000000  0.5069480000000 1.0
C      1  0.4968770000000  0.5346220000000  0.5073290000000 1.0
C      1  0.5334300000000  0.4343390000000  0.4243370000000 1.0
C      1  0.5844720000000  0.5196560000000  0.4862300000000 1.0
C      1  0.5746630000000  0.5961830000000  0.4980450000000 1.0
C      1  0.5702190000000  0.5461600000000  0.4475690000000 1.0
C      1  0.5472930000000  0.5124080000000  0.5660860000000 1.0
C      1  0.4207410000000  0.4530000000000  0.5457020000000 1.0
C      1  0.3897070000000  0.4730830000000  0.4646120000000 1.0
C      1  0.4474010000000  0.5030300000000  0.4230530000000 1.0
C      1  0.5680150000000  0.4672800000000  0.5727010000000 1.0
C      1  0.4650690000000  0.4351280000000  0.5479670000000 1.0
C      1  0.4160520000000  0.5126080000000  0.4569440000000 1.0
C      1  0.5145010000000  0.4905180000000  0.5144850000000 1.0
C      1  0.4582760000000  0.5429470000000  0.5881370000000 1.0
C      1  0.5282430000000  0.5751360000000  0.5806640000000 1.0
C      1  0.4924660000000  0.4909730000000  0.4212020000000 1.0
C      1  0.4816930000000  0.4814890000000  0.5494640000000 1.0
C      1  0.4737580000000  0.5679130000000  0.4066550000000 1.0
C      1  0.6237800000000  0.4454120000000  0.4907060000000 1.0
C      1  0.5498850000000  0.4971290000000  0.5397610000000 1.0
C      1  0.5211210000000  0.5470930000000  0.4966670000000 1.0
C      1  0.4869350000000  0.4416100000000  0.5972450000000 1.0
C      1  0.5375250000000  0.4050100000000  0.5574840000000 1.0
C      1  0.4227040000000  0.4831640000000  0.5406640000000 1.0
C      1  0.4819430000000  0.5231330000000  0.3863550000000 1.0
C      1  0.4030940000000  0.5295400000000  0.5082940000000 1.0
C      1  0.4528300000000  0.5563800000000  0.4255050000000 1.0
C      1  0.4776750000000  0.5228880000000  0.6023480000000 1.0
C      1  0.4934020000000  0.5474550000000  0.4406350000000 1.0
C      1  0.6259320000000  0.4869680000000  0.4669770000000 1.0
C      1  0.5020760000000  0.4199820000000  0.4857680000000 1.0
C      1  0.5582790000000  0.5036280000000  0.5109080000000 1.0
C      1  0.5506560000000  0.4560000000000  0.4154520000000 1.0
C      1  0.5360330000000  0.3925630000000  0.5098830000000 1.0
C      1  0.3856190000000  0.4857710000000  0.5113410000000 1.0
C      1  0.5899580000000  0.5491000000000  0.5433960000000 1.0
C      1  0.5222060000000  0.5041970000000  0.5837910000000 1.0
C      1  0.4034660000000  0.5582070000000  0.4966360000000 1.0
C      1  0.4423590000000  0.4447000000000  0.5643720000000 1.0
C      1  0.4304000000000  0.5729200000000  0.5514920000000 1.0
C      1  0.3893940000000  0.5028390000000  0.4671440000000 1.0
C      1  0.4548870000000  0.6058010000000  0.5256130000000 1.0
C      1  0.4364150000000  0.5728100000000  0.4457050000000 1.0
C      1  0.6049560000000  0.5220760000000  0.5086790000000 1.0
C      1  0.4327250000000  0.4695260000000  0.4930290000000 1.0
C      1  0.4737570000000  0.5690620000000  0.4808640000000 1.0
END
