TITL C-950527-2551-82 -8.1896040636946e-06 125000 -162.054411630442 0 0 28 (C1) n - 1
REM
REM in /home/bkarasulu/work/CARBON/AIRSS/Generating-Clusters/EDIP-Nigel-Params/with-SteepDescent/Only-C1/SD-CG/HFTN-CG
REM
REM
REM
REM
REM
REM ./C.cell (11c1c37f851c82e70ff6c80c92926a4b)
REM
REM compiler GCC version 9.2.1 20190827 (Red Hat 9.2.1-1)
REM options -cpp -mtune=generic -march=x86-64 -g -O0 -fpre-include=/usr/include/finclude/math-vector-fortran.h
REM seed 468597850 1335569060 61850040 920302395 -807767530 -1301568871 -1783029017 1818533553 556757521 547079967 2089209247 1056291109 1475162992 395084049 499379031 1204986160 -711701977 1594839421 609233328 1904329610 -140649334 93610742 1803105213 -958041203 -1955718470 -620678587 350958253 -1450234807 -1576418589 -1745844479 -834182060 30909082 398991777
REM
CELL 1.54180   50.00000   50.00000   50.00000   90.00000   90.00000   90.00000
LATT -1
SFAC C  
C      1  0.4955170000000  0.5579130000000  0.5189260000000 1.0
C      1  0.5325390000000  0.5316390000000  0.5366250000000 1.0
C      1  0.4447560000000  0.4838750000000  0.4996720000000 1.0
C      1  0.4947910000000  0.4856350000000  0.4336110000000 1.0
C      1  0.5190320000000  0.4833670000000  0.5508440000000 1.0
C      1  0.5479560000000  0.4632540000000  0.4825040000000 1.0
C      1  0.5349370000000  0.4786020000000  0.4619150000000 1.0
C      1  0.4542800000000  0.4800550000000  0.5254150000000 1.0
C      1  0.5302310000000  0.4655750000000  0.5043360000000 1.0
C      1  0.4751340000000  0.5045020000000  0.4376210000000 1.0
C      1  0.5202050000000  0.5585150000000  0.5336130000000 1.0
C      1  0.5189970000000  0.5285470000000  0.5088310000000 1.0
C      1  0.4940020000000  0.4694240000000  0.5527470000000 1.0
C      1  0.5360710000000  0.5238350000000  0.4856600000000 1.0
C      1  0.4662650000000  0.4998390000000  0.4642330000000 1.0
C      1  0.5219020000000  0.5023470000000  0.4733500000000 1.0
C      1  0.4570590000000  0.5307810000000  0.5035990000000 1.0
C      1  0.4494440000000  0.5098240000000  0.4864660000000 1.0
C      1  0.4774670000000  0.5356850000000  0.5219660000000 1.0
C      1  0.5442460000000  0.5443190000000  0.4710840000000 1.0
C      1  0.4920340000000  0.4607230000000  0.4741570000000 1.0
C      1  0.5363430000000  0.4741780000000  0.5303220000000 1.0
C      1  0.4756310000000  0.4874640000000  0.5413440000000 1.0
C      1  0.5135420000000  0.5129350000000  0.5499870000000 1.0
C      1  0.4880450000000  0.5125350000000  0.5359470000000 1.0
C      1  0.4648720000000  0.4714040000000  0.4706480000000 1.0
C      1  0.5092460000000  0.4668770000000  0.4497230000000 1.0
C      1  0.5054540000000  0.4763520000000  0.4948540000000 1.0
END
