TITL C-950535-5962-653 -8.00375576392092e-07 125000 -156.389137789204 0 0 27 (C1) n - 1
REM
REM in /home/bkarasulu/work/CARBON/AIRSS/Generating-Clusters/EDIP-Nigel-Params/with-SteepDescent/Only-C1/SD-CG/HFTN-CG
REM
REM
REM
REM
REM
REM ./C.cell (11c1c37f851c82e70ff6c80c92926a4b)
REM
REM compiler GCC version 9.2.1 20190827 (Red Hat 9.2.1-1)
REM options -cpp -mtune=generic -march=x86-64 -g -O0 -fpre-include=/usr/include/finclude/math-vector-fortran.h
REM seed -880896521 -1377453279 -347946469 -2037099379 -499410135 1889859498 -704402011 -2132188443 125257146 20294328 304978541 1269836846 2138078101 999874854 -649036030 -630751637 -900478574 -566919570 -1125447427 2138974903 -1263489844 -694182111 -1105895628 -1029404685 607867360 -327744189 -1866453757 -202742846 -1841527169 -1143975712 -1760582044 151229679 1419241079
REM
CELL 1.54180   50.00000   50.00000   50.00000   90.00000   90.00000   90.00000
LATT -1
SFAC C  
C      1  0.4937510000000  0.4504640000000  0.5553120000000 1.0
C      1  0.5274800000000  0.4919180000000  0.4815030000000 1.0
C      1  0.4972070000000  0.5048840000000  0.4443410000000 1.0
C      1  0.4599470000000  0.5276020000000  0.4690090000000 1.0
C      1  0.4644420000000  0.4625550000000  0.5048630000000 1.0
C      1  0.5103910000000  0.4688800000000  0.4861460000000 1.0
C      1  0.4894530000000  0.5298720000000  0.5109320000000 1.0
C      1  0.5299910000000  0.4767690000000  0.5420200000000 1.0
C      1  0.4813460000000  0.5285990000000  0.4466750000000 1.0
C      1  0.4979420000000  0.5494540000000  0.4628130000000 1.0
C      1  0.5444890000000  0.4988660000000  0.5024580000000 1.0
C      1  0.4805930000000  0.4347630000000  0.4669270000000 1.0
C      1  0.4782460000000  0.5446450000000  0.4876730000000 1.0
C      1  0.4561960000000  0.4915210000000  0.5052860000000 1.0
C      1  0.4959250000000  0.4577310000000  0.4639530000000 1.0
C      1  0.4941720000000  0.4712350000000  0.5114090000000 1.0
C      1  0.5445000000000  0.4972330000000  0.5301170000000 1.0
C      1  0.5194830000000  0.5108240000000  0.4607840000000 1.0
C      1  0.5495150000000  0.5211570000000  0.5447640000000 1.0
C      1  0.5337040000000  0.5298390000000  0.5657640000000 1.0
C      1  0.5230140000000  0.5488700000000  0.5486140000000 1.0
C      1  0.5038670000000  0.5442650000000  0.5296170000000 1.0
C      1  0.4779480000000  0.5048630000000  0.5192820000000 1.0
C      1  0.4530610000000  0.5025380000000  0.4797700000000 1.0
C      1  0.5242280000000  0.5382820000000  0.4655930000000 1.0
C      1  0.5078880000000  0.4614650000000  0.5358680000000 1.0
C      1  0.4612210000000  0.4509040000000  0.4785080000000 1.0
END
