TITL C-951345-2650-530 7.34580756073926e-06 125000 -1077.60793812963 0 0 174 (C1) n - 1
REM
REM in /home/bkarasulu/work/CARBON/AIRSS/Generating-Clusters/EDIP-Nigel-Params/with-SteepDescent/Only-C1/SD-CG/HFTN-CG
REM
REM
REM
REM
REM
REM ./C.cell (11c1c37f851c82e70ff6c80c92926a4b)
REM
REM compiler GCC version 9.2.1 20190827 (Red Hat 9.2.1-1)
REM options -cpp -mtune=generic -march=x86-64 -g -O0 -fpre-include=/usr/include/finclude/math-vector-fortran.h
REM seed 1410336729 -1234137248 1415164565 1689516681 -490074829 -506451923 1187702493 613654459 1171251869 -179496855 1800547795 -1197049604 -825839831 559794671 522853867 -977192103 1831215783 2024296719 446038816 29924534 642740770 -929898585 -1950137594 1344668536 394680329 -248808350 -85361895 563119778 -597862109 -1225398815 -1730110607 -52871586 24195696
REM
CELL 1.54180   50.00000   50.00000   50.00000   90.00000   90.00000   90.00000
LATT -1
SFAC C  
C      1  0.5308010000000  0.5641380000000  0.4366820000000 1.0
C      1  0.5375570000000  0.5517320000000  0.4837050000000 1.0
C      1  0.5885080000000  0.5081570000000  0.4310350000000 1.0
C      1  0.5887080000000  0.4276010000000  0.4627470000000 1.0
C      1  0.5764360000000  0.5205180000000  0.5689610000000 1.0
C      1  0.4818070000000  0.5238990000000  0.6079740000000 1.0
C      1  0.4721670000000  0.5476120000000  0.4659520000000 1.0
C      1  0.4836720000000  0.5575950000000  0.5574920000000 1.0
C      1  0.5529640000000  0.5229810000000  0.5858370000000 1.0
C      1  0.4840600000000  0.4771920000000  0.4437700000000 1.0
C      1  0.5386780000000  0.4125470000000  0.5300710000000 1.0
C      1  0.4991350000000  0.5744930000000  0.5071740000000 1.0
C      1  0.4670850000000  0.4703940000000  0.5220490000000 1.0
C      1  0.5212620000000  0.5360100000000  0.5279970000000 1.0
C      1  0.4706390000000  0.5844600000000  0.5130870000000 1.0
C      1  0.5050700000000  0.4447850000000  0.5179980000000 1.0
C      1  0.5630590000000  0.5103530000000  0.5445660000000 1.0
C      1  0.4791800000000  0.5105950000000  0.5448310000000 1.0
C      1  0.5965050000000  0.5530940000000  0.5119830000000 1.0
C      1  0.5304020000000  0.4863660000000  0.4123180000000 1.0
C      1  0.5963860000000  0.4346690000000  0.4880180000000 1.0
C      1  0.5043450000000  0.5996480000000  0.4640200000000 1.0
C      1  0.4284670000000  0.5183390000000  0.5975020000000 1.0
C      1  0.5403660000000  0.4297480000000  0.4608350000000 1.0
C      1  0.4209980000000  0.4702320000000  0.4221310000000 1.0
C      1  0.5680690000000  0.5990920000000  0.4880340000000 1.0
C      1  0.5672960000000  0.4364190000000  0.4479760000000 1.0
C      1  0.5399200000000  0.4402750000000  0.4889680000000 1.0
C      1  0.5603150000000  0.4325980000000  0.5385490000000 1.0
C      1  0.4475570000000  0.4419760000000  0.4554210000000 1.0
C      1  0.5561510000000  0.5205300000000  0.4482810000000 1.0
C      1  0.5641470000000  0.4785060000000  0.5924810000000 1.0
C      1  0.6012120000000  0.5236330000000  0.5137450000000 1.0
C      1  0.4690360000000  0.4525770000000  0.5939590000000 1.0
C      1  0.4230140000000  0.5485090000000  0.4336360000000 1.0
C      1  0.4706310000000  0.4674110000000  0.5491610000000 1.0
C      1  0.5312900000000  0.6044190000000  0.5494500000000 1.0
C      1  0.4708430000000  0.6114560000000  0.4990230000000 1.0
C      1  0.4025030000000  0.5376850000000  0.5565650000000 1.0
C      1  0.5333540000000  0.5386640000000  0.4554030000000 1.0
C      1  0.3902770000000  0.5335790000000  0.4850240000000 1.0
C      1  0.4432130000000  0.4463040000000  0.5775000000000 1.0
C      1  0.4209120000000  0.4327010000000  0.4650310000000 1.0
C      1  0.4783600000000  0.4491490000000  0.5071260000000 1.0
C      1  0.4409540000000  0.4145230000000  0.5320720000000 1.0
C      1  0.4452700000000  0.4918900000000  0.4573540000000 1.0
C      1  0.6078570000000  0.4593190000000  0.5255050000000 1.0
C      1  0.5230180000000  0.4233150000000  0.5060900000000 1.0
C      1  0.4207550000000  0.4157110000000  0.4872930000000 1.0
C      1  0.5089780000000  0.4935180000000  0.4504260000000 1.0
C      1  0.4359650000000  0.5175990000000  0.4942290000000 1.0
C      1  0.5155790000000  0.4632160000000  0.5434000000000 1.0
C      1  0.4212360000000  0.4248050000000  0.5136440000000 1.0
C      1  0.4171030000000  0.4502650000000  0.5896200000000 1.0
C      1  0.4672190000000  0.5886650000000  0.5425550000000 1.0
C      1  0.5911680000000  0.4622630000000  0.4985770000000 1.0
C      1  0.5195920000000  0.4566990000000  0.5879820000000 1.0
C      1  0.4121000000000  0.5147840000000  0.5736990000000 1.0
C      1  0.4214050000000  0.5585120000000  0.5482540000000 1.0
C      1  0.5514160000000  0.5698540000000  0.5741330000000 1.0
C      1  0.5300320000000  0.5578830000000  0.4069000000000 1.0
C      1  0.4988890000000  0.5328640000000  0.4249100000000 1.0
C      1  0.4844310000000  0.3991040000000  0.4774770000000 1.0
C      1  0.4191750000000  0.5668500000000  0.5110650000000 1.0
C      1  0.5234320000000  0.5534150000000  0.6105540000000 1.0
C      1  0.5976650000000  0.5523170000000  0.4619450000000 1.0
C      1  0.4785040000000  0.5827950000000  0.5671810000000 1.0
C      1  0.4915130000000  0.5316010000000  0.3815510000000 1.0
C      1  0.4054460000000  0.4485860000000  0.5178700000000 1.0
C      1  0.4682990000000  0.4822710000000  0.5972380000000 1.0
C      1  0.5963240000000  0.4855260000000  0.4780470000000 1.0
C      1  0.4441500000000  0.4716280000000  0.5598660000000 1.0
C      1  0.4784400000000  0.6100110000000  0.4706500000000 1.0
C      1  0.4696610000000  0.4541980000000  0.4787770000000 1.0
C      1  0.5438170000000  0.5495400000000  0.5926070000000 1.0
C      1  0.4916990000000  0.5303520000000  0.4784310000000 1.0
C      1  0.4019820000000  0.4639050000000  0.5704160000000 1.0
C      1  0.5536760000000  0.5067040000000  0.4928780000000 1.0
C      1  0.3975080000000  0.5205590000000  0.5322480000000 1.0
C      1  0.5513230000000  0.5359450000000  0.5289980000000 1.0
C      1  0.5369180000000  0.4502100000000  0.5639910000000 1.0
C      1  0.5184540000000  0.4851900000000  0.5961260000000 1.0
C      1  0.5559990000000  0.5771390000000  0.4459380000000 1.0
C      1  0.5961880000000  0.4158650000000  0.5088600000000 1.0
C      1  0.4047760000000  0.5576990000000  0.4855860000000 1.0
C      1  0.5620700000000  0.4652110000000  0.5680420000000 1.0
C      1  0.4666610000000  0.3899220000000  0.4967230000000 1.0
C      1  0.4472470000000  0.5670340000000  0.5029320000000 1.0
C      1  0.6019180000000  0.5113550000000  0.5412010000000 1.0
C      1  0.4983150000000  0.6214970000000  0.5018270000000 1.0
C      1  0.5487670000000  0.5343190000000  0.4028280000000 1.0
C      1  0.5554260000000  0.4975980000000  0.4657900000000 1.0
C      1  0.4950940000000  0.4424500000000  0.5837290000000 1.0
C      1  0.4786880000000  0.5069300000000  0.4916540000000 1.0
C      1  0.5642210000000  0.5933880000000  0.5152680000000 1.0
C      1  0.4394260000000  0.5625910000000  0.4162860000000 1.0
C      1  0.5683290000000  0.5607500000000  0.5532070000000 1.0
C      1  0.5588150000000  0.5356440000000  0.4991050000000 1.0
C      1  0.5165180000000  0.5978050000000  0.4997570000000 1.0
C      1  0.4966950000000  0.4184710000000  0.5669590000000 1.0
C      1  0.5553380000000  0.4749930000000  0.4176730000000 1.0
C      1  0.5129300000000  0.5136160000000  0.3773640000000 1.0
C      1  0.4281200000000  0.5187340000000  0.5251530000000 1.0
C      1  0.5174610000000  0.4023270000000  0.5505880000000 1.0
C      1  0.4464630000000  0.4203830000000  0.5605810000000 1.0
C      1  0.4429770000000  0.5413630000000  0.5386660000000 1.0
C      1  0.5326550000000  0.4777910000000  0.4598520000000 1.0
C      1  0.4834680000000  0.5590020000000  0.4394140000000 1.0
C      1  0.4746470000000  0.4366680000000  0.4142460000000 1.0
C      1  0.5451400000000  0.4979450000000  0.5990370000000 1.0
C      1  0.6016700000000  0.4806260000000  0.5452360000000 1.0
C      1  0.5108300000000  0.5120380000000  0.5431540000000 1.0
C      1  0.5762430000000  0.5346300000000  0.4187260000000 1.0
C      1  0.4021440000000  0.4547280000000  0.4679770000000 1.0
C      1  0.5697750000000  0.4648870000000  0.4395180000000 1.0
C      1  0.5372530000000  0.6008400000000  0.5225580000000 1.0
C      1  0.5302530000000  0.4025640000000  0.4620590000000 1.0
C      1  0.6086880000000  0.5105700000000  0.4875310000000 1.0
C      1  0.5787450000000  0.5574570000000  0.4398860000000 1.0
C      1  0.4606090000000  0.4940520000000  0.4015230000000 1.0
C      1  0.4554180000000  0.5313960000000  0.5953780000000 1.0
C      1  0.4986170000000  0.4229150000000  0.4077160000000 1.0
C      1  0.4223310000000  0.5189290000000  0.4307690000000 1.0
C      1  0.5077290000000  0.5225590000000  0.4533520000000 1.0
C      1  0.4172750000000  0.4698950000000  0.5353270000000 1.0
C      1  0.4584850000000  0.3933990000000  0.5229770000000 1.0
C      1  0.4396460000000  0.4830040000000  0.5161880000000 1.0
C      1  0.4309520000000  0.4965350000000  0.4095060000000 1.0
C      1  0.5392830000000  0.5946940000000  0.5730460000000 1.0
C      1  0.4944640000000  0.4807710000000  0.5615260000000 1.0
C      1  0.5108660000000  0.5476360000000  0.5006670000000 1.0
C      1  0.4096970000000  0.5137210000000  0.4809830000000 1.0
C      1  0.4614760000000  0.4228870000000  0.4373920000000 1.0
C      1  0.4654470000000  0.5718810000000  0.4191760000000 1.0
C      1  0.4599500000000  0.4854690000000  0.4812400000000 1.0
C      1  0.4813980000000  0.5763450000000  0.3966850000000 1.0
C      1  0.3954800000000  0.4917090000000  0.5662650000000 1.0
C      1  0.5026100000000  0.5586060000000  0.3897530000000 1.0
C      1  0.4469670000000  0.5464220000000  0.4815980000000 1.0
C      1  0.3840900000000  0.4968700000000  0.5408910000000 1.0
C      1  0.4765440000000  0.3857550000000  0.5444380000000 1.0
C      1  0.4460280000000  0.4682130000000  0.4398400000000 1.0
C      1  0.5718070000000  0.4788890000000  0.5436850000000 1.0
C      1  0.4197670000000  0.5613900000000  0.4598760000000 1.0
C      1  0.5780980000000  0.5705680000000  0.5284350000000 1.0
C      1  0.5058790000000  0.5779920000000  0.4450370000000 1.0
C      1  0.4712330000000  0.4045510000000  0.5663430000000 1.0
C      1  0.5261820000000  0.4883000000000  0.5324550000000 1.0
C      1  0.5924420000000  0.4827250000000  0.4474930000000 1.0
C      1  0.5127100000000  0.4027310000000  0.4844980000000 1.0
C      1  0.5248440000000  0.5145560000000  0.4041500000000 1.0
C      1  0.5209800000000  0.4473350000000  0.4455170000000 1.0
C      1  0.4171120000000  0.5016500000000  0.4548460000000 1.0
C      1  0.4758680000000  0.4027270000000  0.4509590000000 1.0
C      1  0.4719840000000  0.5137410000000  0.5174820000000 1.0
C      1  0.5185040000000  0.4417090000000  0.4151370000000 1.0
C      1  0.4025190000000  0.4760010000000  0.4463370000000 1.0
C      1  0.5645500000000  0.4644040000000  0.5169560000000 1.0
C      1  0.5427560000000  0.4834350000000  0.5079970000000 1.0
C      1  0.5039260000000  0.3796510000000  0.5401350000000 1.0
C      1  0.4520050000000  0.4970390000000  0.5766000000000 1.0
C      1  0.4932840000000  0.4529190000000  0.4589520000000 1.0
C      1  0.5862060000000  0.5594680000000  0.4863430000000 1.0
C      1  0.5104320000000  0.4674960000000  0.4038920000000 1.0
C      1  0.4812660000000  0.4688140000000  0.4137090000000 1.0
C      1  0.5492920000000  0.5816730000000  0.4752310000000 1.0
C      1  0.4922160000000  0.4970200000000  0.6027460000000 1.0
C      1  0.3922540000000  0.4574690000000  0.4944800000000 1.0
C      1  0.4652690000000  0.5345720000000  0.5582100000000 1.0
C      1  0.5913450000000  0.4320280000000  0.5317290000000 1.0
C      1  0.4725150000000  0.5207630000000  0.4015580000000 1.0
C      1  0.5292750000000  0.4669860000000  0.4880950000000 1.0
C      1  0.6115040000000  0.5282800000000  0.4656410000000 1.0
C      1  0.4993580000000  0.5435890000000  0.6157010000000 1.0
END
