TITL C-951334-9093-39 5.83275755144608e-05 125000 -196.663104532736 0 0 34 (C1) n - 1
REM
REM in /home/bkarasulu/work/CARBON/AIRSS/Generating-Clusters/EDIP-Nigel-Params/with-SteepDescent/Only-C1/SD-CG/HFTN-CG
REM
REM
REM
REM
REM
REM ./C.cell (11c1c37f851c82e70ff6c80c92926a4b)
REM
REM compiler GCC version 9.2.1 20190827 (Red Hat 9.2.1-1)
REM options -cpp -mtune=generic -march=x86-64 -g -O0 -fpre-include=/usr/include/finclude/math-vector-fortran.h
REM seed -229852366 -47958189 -1026959432 -291916484 -1008139642 560412048 1214155343 519356555 1650556188 1446906026 -2131679761 -1545870969 -1565773733 -949997029 384930107 -140965917 -663060599 1369905927 -1234425799 766059213 -276139525 -1695979774 2022481128 1250839844 889969111 1536482650 984343791 -117042077 319861391 -1284892126 512426530 413323901 -2085580158
REM
CELL 1.54180   50.00000   50.00000   50.00000   90.00000   90.00000   90.00000
LATT -1
SFAC C  
C      1  0.5260470000000  0.5249770000000  0.4636740000000 1.0
C      1  0.5362560000000  0.5246100000000  0.5289140000000 1.0
C      1  0.5120070000000  0.4180550000000  0.5376120000000 1.0
C      1  0.4578150000000  0.5173870000000  0.5366650000000 1.0
C      1  0.4909340000000  0.5491480000000  0.5211060000000 1.0
C      1  0.4636360000000  0.5376750000000  0.5184130000000 1.0
C      1  0.5092780000000  0.4941570000000  0.5462860000000 1.0
C      1  0.5120450000000  0.5294450000000  0.5108820000000 1.0
C      1  0.5128250000000  0.5847440000000  0.4639270000000 1.0
C      1  0.4550660000000  0.4794840000000  0.4920260000000 1.0
C      1  0.4649740000000  0.4583910000000  0.4728820000000 1.0
C      1  0.5274880000000  0.5142550000000  0.5540620000000 1.0
C      1  0.4905690000000  0.4659590000000  0.4583650000000 1.0
C      1  0.5049480000000  0.4324770000000  0.4908650000000 1.0
C      1  0.5529440000000  0.5065540000000  0.5142040000000 1.0
C      1  0.4936690000000  0.5735740000000  0.5067440000000 1.0
C      1  0.5584180000000  0.4711000000000  0.4674410000000 1.0
C      1  0.5046450000000  0.4375940000000  0.5212550000000 1.0
C      1  0.4856520000000  0.4886790000000  0.5605300000000 1.0
C      1  0.5088750000000  0.4915820000000  0.5175950000000 1.0
C      1  0.5341140000000  0.4876740000000  0.5046320000000 1.0
C      1  0.4651510000000  0.4909750000000  0.5415020000000 1.0
C      1  0.4523630000000  0.5055770000000  0.4824560000000 1.0
C      1  0.5209730000000  0.4984880000000  0.4579490000000 1.0
C      1  0.4575870000000  0.5300310000000  0.4921790000000 1.0
C      1  0.4683030000000  0.4741500000000  0.5176530000000 1.0
C      1  0.4730540000000  0.4347940000000  0.4906430000000 1.0
C      1  0.4951860000000  0.4921420000000  0.4487860000000 1.0
C      1  0.5164110000000  0.6009690000000  0.4444490000000 1.0
C      1  0.5061070000000  0.5661110000000  0.4828740000000 1.0
C      1  0.5137740000000  0.4543750000000  0.4721380000000 1.0
C      1  0.5334120000000  0.4777700000000  0.4760050000000 1.0
C      1  0.5203980000000  0.5414180000000  0.4850420000000 1.0
C      1  0.4750760000000  0.4456790000000  0.5202460000000 1.0
END
