TITL C-950525-1983-670 -2.92160800801274e-07 125000 -252.420499884604 0 0 43 (C1) n - 1
REM
REM in /home/bkarasulu/work/CARBON/AIRSS/Generating-Clusters/EDIP-Nigel-Params/with-SteepDescent/Only-C1/SD-CG/HFTN-CG
REM
REM
REM
REM
REM
REM ./C.cell (11c1c37f851c82e70ff6c80c92926a4b)
REM
REM compiler GCC version 9.2.1 20190827 (Red Hat 9.2.1-1)
REM options -cpp -mtune=generic -march=x86-64 -g -O0 -fpre-include=/usr/include/finclude/math-vector-fortran.h
REM seed 863628054 728906903 -1944449868 1413211586 -1037824848 -173191655 -503339387 -981937177 -1590107407 1852427257 2108184957 95819769 1805954697 1978504426 -851253663 -1748856653 988279241 13106847 -473369217 700429305 1651876260 -1729174013 -652436195 1927310990 761103923 -1443148674 -430296616 1585124647 -55689292 -2085166179 1509516561 1335004403 731567391
REM
CELL 1.54180   50.00000   50.00000   50.00000   90.00000   90.00000   90.00000
LATT -1
SFAC C  
C      1  0.5183910000000  0.5138690000000  0.5684950000000 1.0
C      1  0.5114740000000  0.4796630000000  0.5313430000000 1.0
C      1  0.5257960000000  0.5065070000000  0.4475310000000 1.0
C      1  0.5617180000000  0.4984000000000  0.4837700000000 1.0
C      1  0.4797300000000  0.5249000000000  0.5433860000000 1.0
C      1  0.4862020000000  0.5303790000000  0.5153310000000 1.0
C      1  0.4826920000000  0.4938150000000  0.5386580000000 1.0
C      1  0.4581350000000  0.4782390000000  0.5332260000000 1.0
C      1  0.4438140000000  0.5258640000000  0.4814650000000 1.0
C      1  0.5168810000000  0.5320830000000  0.4605480000000 1.0
C      1  0.4527490000000  0.4652630000000  0.4553470000000 1.0
C      1  0.4545670000000  0.5659000000000  0.5139940000000 1.0
C      1  0.4992020000000  0.4535500000000  0.4479880000000 1.0
C      1  0.4425520000000  0.4880750000000  0.5119700000000 1.0
C      1  0.5497080000000  0.4557260000000  0.4985210000000 1.0
C      1  0.5711120000000  0.4743340000000  0.4979430000000 1.0
C      1  0.4666820000000  0.4515410000000  0.5348450000000 1.0
C      1  0.5076930000000  0.5681540000000  0.5195000000000 1.0
C      1  0.5426120000000  0.4869430000000  0.4620210000000 1.0
C      1  0.5400270000000  0.5496310000000  0.5322130000000 1.0
C      1  0.5856310000000  0.4787660000000  0.5197890000000 1.0
C      1  0.4924400000000  0.4520130000000  0.5231380000000 1.0
C      1  0.4671820000000  0.5405390000000  0.4761370000000 1.0
C      1  0.4348160000000  0.4835580000000  0.4656770000000 1.0
C      1  0.4512180000000  0.4396460000000  0.4663770000000 1.0
C      1  0.5282340000000  0.4691280000000  0.4839380000000 1.0
C      1  0.4350360000000  0.5001500000000  0.4877750000000 1.0
C      1  0.5445040000000  0.5188900000000  0.5294740000000 1.0
C      1  0.4883060000000  0.5242640000000  0.4627110000000 1.0
C      1  0.5310990000000  0.5361080000000  0.4866120000000 1.0
C      1  0.5394870000000  0.5113770000000  0.5011090000000 1.0
C      1  0.4661980000000  0.4296450000000  0.4866250000000 1.0
C      1  0.5305660000000  0.4996650000000  0.5475770000000 1.0
C      1  0.5143820000000  0.5585370000000  0.5492500000000 1.0
C      1  0.4799640000000  0.4741040000000  0.4499550000000 1.0
C      1  0.4760250000000  0.5550520000000  0.5013560000000 1.0
C      1  0.5321450000000  0.5606790000000  0.5029910000000 1.0
C      1  0.5080560000000  0.4502490000000  0.4745390000000 1.0
C      1  0.4880730000000  0.5014280000000  0.4440830000000 1.0
C      1  0.5160510000000  0.4908780000000  0.5029950000000 1.0
C      1  0.4891830000000  0.5044620000000  0.5021270000000 1.0
C      1  0.5003290000000  0.5351090000000  0.5624180000000 1.0
C      1  0.4893360000000  0.4429160000000  0.4952530000000 1.0
END
