TITL C-951343-2256-338 -9.86922266721761e-08 125000 -880.102057937736 0 0 139 (C1) n - 1
REM
REM in /home/bkarasulu/work/CARBON/AIRSS/Generating-Clusters/EDIP-Nigel-Params/with-SteepDescent/Only-C1/SD-CG/HFTN-CG
REM
REM
REM
REM
REM
REM ./C.cell (11c1c37f851c82e70ff6c80c92926a4b)
REM
REM compiler GCC version 9.2.1 20190827 (Red Hat 9.2.1-1)
REM options -cpp -mtune=generic -march=x86-64 -g -O0 -fpre-include=/usr/include/finclude/math-vector-fortran.h
REM seed 1966621490 357865389 1744350144 983806896 -159294628 421581321 -1925315951 1121526411 1226089966 -1334857277 1223943494 1309997652 -991880341 -1436948500 241298212 -1532101057 405949574 1964067266 1582552568 1028211395 -606794517 -1934475163 -655320125 -1348671962 -1700325760 -1296164670 -623138353 -1715667758 -1042426611 719558696 -409945290 -589047744 -152445625
REM
CELL 1.54180   50.00000   50.00000   50.00000   90.00000   90.00000   90.00000
LATT -1
SFAC C  
C      1  0.4892620000000  0.5466090000000  0.4340300000000 1.0
C      1  0.5359170000000  0.4551930000000  0.5247250000000 1.0
C      1  0.5968290000000  0.5151230000000  0.5674290000000 1.0
C      1  0.5150600000000  0.4780340000000  0.4161110000000 1.0
C      1  0.4651630000000  0.5621180000000  0.4242820000000 1.0
C      1  0.4896540000000  0.5616960000000  0.5517210000000 1.0
C      1  0.4098840000000  0.4916430000000  0.4745730000000 1.0
C      1  0.4019290000000  0.4907320000000  0.5027820000000 1.0
C      1  0.4441890000000  0.5374590000000  0.5902440000000 1.0
C      1  0.4846130000000  0.5171950000000  0.4274140000000 1.0
C      1  0.5884100000000  0.5356710000000  0.4402500000000 1.0
C      1  0.5823920000000  0.4772450000000  0.5251470000000 1.0
C      1  0.4433240000000  0.5255760000000  0.4635740000000 1.0
C      1  0.5463410000000  0.5799350000000  0.5445460000000 1.0
C      1  0.5465470000000  0.5417620000000  0.5683660000000 1.0
C      1  0.5043730000000  0.5969020000000  0.4590340000000 1.0
C      1  0.5855830000000  0.4960190000000  0.4783240000000 1.0
C      1  0.5686700000000  0.4462440000000  0.5636190000000 1.0
C      1  0.5977950000000  0.4889440000000  0.4530920000000 1.0
C      1  0.4679130000000  0.5299240000000  0.4808660000000 1.0
C      1  0.4301080000000  0.4434440000000  0.5493460000000 1.0
C      1  0.5561460000000  0.5588770000000  0.5280890000000 1.0
C      1  0.5157740000000  0.5478990000000  0.4817830000000 1.0
C      1  0.4603350000000  0.4910670000000  0.5917180000000 1.0
C      1  0.5292430000000  0.5378370000000  0.4038030000000 1.0
C      1  0.4429540000000  0.5193360000000  0.4007710000000 1.0
C      1  0.4722150000000  0.4766630000000  0.4048340000000 1.0
C      1  0.5514220000000  0.4825520000000  0.4875890000000 1.0
C      1  0.5346680000000  0.4612920000000  0.4294210000000 1.0
C      1  0.4347080000000  0.5754190000000  0.4537920000000 1.0
C      1  0.4959420000000  0.4454260000000  0.4952090000000 1.0
C      1  0.4374900000000  0.4539180000000  0.5741930000000 1.0
C      1  0.4213610000000  0.5582140000000  0.5021550000000 1.0
C      1  0.4803470000000  0.4452390000000  0.4480320000000 1.0
C      1  0.5215770000000  0.5123250000000  0.5086960000000 1.0
C      1  0.5323630000000  0.5740030000000  0.4870740000000 1.0
C      1  0.5016440000000  0.3983520000000  0.4892390000000 1.0
C      1  0.4804520000000  0.5814160000000  0.4655990000000 1.0
C      1  0.4376530000000  0.5659410000000  0.5475010000000 1.0
C      1  0.4372300000000  0.5573680000000  0.5737740000000 1.0
C      1  0.4960970000000  0.3993090000000  0.4415100000000 1.0
C      1  0.4879290000000  0.5379700000000  0.5315630000000 1.0
C      1  0.4266210000000  0.4350840000000  0.5013030000000 1.0
C      1  0.4983590000000  0.4260380000000  0.4316490000000 1.0
C      1  0.4129960000000  0.5221340000000  0.4677560000000 1.0
C      1  0.4230010000000  0.4815150000000  0.5198950000000 1.0
C      1  0.4310380000000  0.4718310000000  0.4672960000000 1.0
C      1  0.4196020000000  0.5139170000000  0.4185070000000 1.0
C      1  0.4807190000000  0.5024330000000  0.4812540000000 1.0
C      1  0.5380740000000  0.5693990000000  0.5693560000000 1.0
C      1  0.5280850000000  0.5185620000000  0.4372780000000 1.0
C      1  0.4611820000000  0.4094860000000  0.5117640000000 1.0
C      1  0.4650160000000  0.4657600000000  0.4315230000000 1.0
C      1  0.4370950000000  0.4444010000000  0.4757490000000 1.0
C      1  0.5927140000000  0.5072050000000  0.5206490000000 1.0
C      1  0.5572050000000  0.4254720000000  0.4744910000000 1.0
C      1  0.5187230000000  0.4088480000000  0.5127540000000 1.0
C      1  0.5394100000000  0.4740000000000  0.5944900000000 1.0
C      1  0.4606830000000  0.5327210000000  0.5153380000000 1.0
C      1  0.5188830000000  0.5920330000000  0.5044300000000 1.0
C      1  0.4608010000000  0.5838620000000  0.4429140000000 1.0
C      1  0.5285990000000  0.5019040000000  0.4817940000000 1.0
C      1  0.4840990000000  0.4719560000000  0.5898530000000 1.0
C      1  0.5549990000000  0.4345230000000  0.5395500000000 1.0
C      1  0.4442750000000  0.5079790000000  0.4381140000000 1.0
C      1  0.4083000000000  0.5339820000000  0.4379000000000 1.0
C      1  0.5867120000000  0.4522200000000  0.5046790000000 1.0
C      1  0.5097750000000  0.5376490000000  0.5101690000000 1.0
C      1  0.4636300000000  0.5861700000000  0.4906860000000 1.0
C      1  0.5171390000000  0.5571130000000  0.4223700000000 1.0
C      1  0.4755300000000  0.4498920000000  0.5703660000000 1.0
C      1  0.3981810000000  0.5178320000000  0.5138820000000 1.0
C      1  0.5030890000000  0.4897250000000  0.4666230000000 1.0
C      1  0.4270850000000  0.4535450000000  0.5235870000000 1.0
C      1  0.4652540000000  0.5197260000000  0.5942130000000 1.0
C      1  0.4996370000000  0.5950270000000  0.5236880000000 1.0
C      1  0.4902100000000  0.5126930000000  0.5517970000000 1.0
C      1  0.5715550000000  0.5430110000000  0.4844570000000 1.0
C      1  0.5383510000000  0.5051200000000  0.5312980000000 1.0
C      1  0.5524240000000  0.4802460000000  0.5178250000000 1.0
C      1  0.4347830000000  0.4832890000000  0.5778310000000 1.0
C      1  0.5877740000000  0.5196660000000  0.4940470000000 1.0
C      1  0.4340140000000  0.5456400000000  0.5264870000000 1.0
C      1  0.5616700000000  0.4717580000000  0.4295600000000 1.0
C      1  0.4885990000000  0.5510640000000  0.4661470000000 1.0
C      1  0.5157680000000  0.4940090000000  0.5502760000000 1.0
C      1  0.4703190000000  0.5076340000000  0.4029390000000 1.0
C      1  0.5556180000000  0.4132350000000  0.5010640000000 1.0
C      1  0.5132180000000  0.5139160000000  0.5954980000000 1.0
C      1  0.4732260000000  0.5855320000000  0.5178170000000 1.0
C      1  0.4743020000000  0.4885220000000  0.5052980000000 1.0
C      1  0.5147770000000  0.3995150000000  0.4631190000000 1.0
C      1  0.4786330000000  0.4190840000000  0.4898590000000 1.0
C      1  0.5647490000000  0.4998590000000  0.4228300000000 1.0
C      1  0.5350640000000  0.5273240000000  0.4659380000000 1.0
C      1  0.5251350000000  0.4376060000000  0.5018010000000 1.0
C      1  0.4905580000000  0.5261270000000  0.5805490000000 1.0
C      1  0.4856290000000  0.4637300000000  0.5190240000000 1.0
C      1  0.5105500000000  0.4658770000000  0.5392690000000 1.0
C      1  0.5832830000000  0.4920180000000  0.5755620000000 1.0
C      1  0.5901540000000  0.5090510000000  0.4319990000000 1.0
C      1  0.5273390000000  0.4334660000000  0.4341160000000 1.0
C      1  0.5753440000000  0.4277010000000  0.5182340000000 1.0
C      1  0.4544510000000  0.5026680000000  0.5212730000000 1.0
C      1  0.5579530000000  0.5320420000000  0.5421140000000 1.0
C      1  0.5416940000000  0.5215520000000  0.5891180000000 1.0
C      1  0.4223970000000  0.5018440000000  0.5581260000000 1.0
C      1  0.5060580000000  0.4992640000000  0.4364010000000 1.0
C      1  0.5322500000000  0.4227120000000  0.4605430000000 1.0
C      1  0.5457740000000  0.4475730000000  0.5833250000000 1.0
C      1  0.5826040000000  0.4629990000000  0.4489460000000 1.0
C      1  0.5498880000000  0.5176210000000  0.4051120000000 1.0
C      1  0.5584550000000  0.5636980000000  0.4996550000000 1.0
C      1  0.4335860000000  0.4086880000000  0.5079870000000 1.0
C      1  0.4974110000000  0.4598900000000  0.4687520000000 1.0
C      1  0.4976900000000  0.4297770000000  0.5610130000000 1.0
C      1  0.5720010000000  0.4516250000000  0.4762900000000 1.0
C      1  0.5845100000000  0.4699900000000  0.5557100000000 1.0
C      1  0.4287600000000  0.5548770000000  0.4336950000000 1.0
C      1  0.5379460000000  0.5662410000000  0.4412780000000 1.0
C      1  0.4974460000000  0.4119950000000  0.5370180000000 1.0
C      1  0.4171770000000  0.5219770000000  0.5368900000000 1.0
C      1  0.5119490000000  0.4849850000000  0.5882530000000 1.0
C      1  0.5246410000000  0.4391780000000  0.5643950000000 1.0
C      1  0.5673930000000  0.5471770000000  0.4555480000000 1.0
C      1  0.4972540000000  0.4661200000000  0.3976500000000 1.0
C      1  0.5083900000000  0.5838750000000  0.5488070000000 1.0
C      1  0.5871940000000  0.5249830000000  0.5431380000000 1.0
C      1  0.4925020000000  0.5544710000000  0.5784330000000 1.0
C      1  0.4548820000000  0.5857290000000  0.5388170000000 1.0
C      1  0.4397060000000  0.5708950000000  0.4827740000000 1.0
C      1  0.4733940000000  0.3981020000000  0.5338250000000 1.0
C      1  0.4613420000000  0.4292110000000  0.4659110000000 1.0
C      1  0.4027390000000  0.5379480000000  0.4917960000000 1.0
C      1  0.5307130000000  0.5864520000000  0.4603700000000 1.0
C      1  0.4647750000000  0.4956410000000  0.5479490000000 1.0
C      1  0.4433840000000  0.4795520000000  0.4433630000000 1.0
C      1  0.4646260000000  0.4641650000000  0.5441120000000 1.0
C      1  0.5560020000000  0.4959570000000  0.5852830000000 1.0
END
