TITL C-950529-3362-152 -1.38555570823806e-06 125000 -352.257698974126 0 0 60 (C1) n - 1
REM
REM in /home/bkarasulu/work/CARBON/AIRSS/Generating-Clusters/EDIP-Nigel-Params/with-SteepDescent/Only-C1/SD-CG/HFTN-CG
REM
REM
REM
REM
REM
REM ./C.cell (11c1c37f851c82e70ff6c80c92926a4b)
REM
REM compiler GCC version 9.2.1 20190827 (Red Hat 9.2.1-1)
REM options -cpp -mtune=generic -march=x86-64 -g -O0 -fpre-include=/usr/include/finclude/math-vector-fortran.h
REM seed -1421744982 -435013905 513986729 -1172849496 235019265 128681984 850935281 1249736872 502144327 -1850828886 -1189159482 1545664445 -1154993695 1428821232 1004298293 -1619229423 -1225472624 992492291 434196123 616549003 -507295354 1602012591 -908457377 1800030974 1205804826 -709381487 1356364788 -886410165 1296815655 -846057580 -975401103 -1345220266 -933791120
REM
CELL 1.54180   50.00000   50.00000   50.00000   90.00000   90.00000   90.00000
LATT -1
SFAC C  
C      1  0.4703720000000  0.5421840000000  0.5624820000000 1.0
C      1  0.5506890000000  0.4609060000000  0.4710320000000 1.0
C      1  0.4341950000000  0.5416710000000  0.4552450000000 1.0
C      1  0.5334160000000  0.5143080000000  0.5142950000000 1.0
C      1  0.4524480000000  0.5271340000000  0.5070040000000 1.0
C      1  0.5123550000000  0.4270080000000  0.4743150000000 1.0
C      1  0.5538610000000  0.4422560000000  0.5042750000000 1.0
C      1  0.5115280000000  0.5140590000000  0.5708000000000 1.0
C      1  0.5111450000000  0.5493680000000  0.4496290000000 1.0
C      1  0.4802320000000  0.4503430000000  0.4470700000000 1.0
C      1  0.5169870000000  0.5438360000000  0.4775670000000 1.0
C      1  0.4582790000000  0.4756330000000  0.4828230000000 1.0
C      1  0.4572920000000  0.4652480000000  0.5195870000000 1.0
C      1  0.4883200000000  0.5490210000000  0.5415820000000 1.0
C      1  0.4374270000000  0.4845420000000  0.5260300000000 1.0
C      1  0.5515940000000  0.5192130000000  0.4901110000000 1.0
C      1  0.5275550000000  0.5358830000000  0.5674580000000 1.0
C      1  0.4835070000000  0.5673120000000  0.5020720000000 1.0
C      1  0.4542730000000  0.5562030000000  0.4976870000000 1.0
C      1  0.5003400000000  0.5240840000000  0.5255810000000 1.0
C      1  0.4220740000000  0.4878890000000  0.5028930000000 1.0
C      1  0.5574190000000  0.4691650000000  0.5138190000000 1.0
C      1  0.5279080000000  0.5588090000000  0.5240690000000 1.0
C      1  0.4661360000000  0.5144860000000  0.5583600000000 1.0
C      1  0.4311380000000  0.5153580000000  0.4646970000000 1.0
C      1  0.5636540000000  0.5020080000000  0.5521660000000 1.0
C      1  0.5153190000000  0.5639290000000  0.4990350000000 1.0
C      1  0.4448380000000  0.5093900000000  0.5394420000000 1.0
C      1  0.5123410000000  0.4855690000000  0.4350050000000 1.0
C      1  0.5544850000000  0.5221410000000  0.5344250000000 1.0
C      1  0.5100980000000  0.4407540000000  0.4991070000000 1.0
C      1  0.4430720000000  0.5603650000000  0.4724940000000 1.0
C      1  0.5745270000000  0.4815690000000  0.4941040000000 1.0
C      1  0.4836270000000  0.5742480000000  0.5301100000000 1.0
C      1  0.4817520000000  0.5168900000000  0.5011880000000 1.0
C      1  0.4286240000000  0.5136230000000  0.4934400000000 1.0
C      1  0.4844560000000  0.4875150000000  0.4930460000000 1.0
C      1  0.5064410000000  0.4585780000000  0.4421100000000 1.0
C      1  0.5081920000000  0.4709570000000  0.4997970000000 1.0
C      1  0.4619440000000  0.4500130000000  0.4680160000000 1.0
C      1  0.5311320000000  0.4305150000000  0.5151380000000 1.0
C      1  0.5561020000000  0.4866260000000  0.4543290000000 1.0
C      1  0.5550110000000  0.4757970000000  0.5528260000000 1.0
C      1  0.5299210000000  0.4834370000000  0.5166880000000 1.0
C      1  0.4882430000000  0.5361090000000  0.4786500000000 1.0
C      1  0.4512430000000  0.4953520000000  0.4596760000000 1.0
C      1  0.4523740000000  0.4272050000000  0.4775120000000 1.0
C      1  0.5777030000000  0.5091350000000  0.4943250000000 1.0
C      1  0.5415950000000  0.5455760000000  0.5451910000000 1.0
C      1  0.5271120000000  0.4770790000000  0.5455920000000 1.0
C      1  0.5398500000000  0.4906890000000  0.4308370000000 1.0
C      1  0.5428380000000  0.5103660000000  0.4645240000000 1.0
C      1  0.4825290000000  0.4642430000000  0.5624570000000 1.0
C      1  0.4922270000000  0.5049840000000  0.4284550000000 1.0
C      1  0.5081170000000  0.4570100000000  0.5539480000000 1.0
C      1  0.5267460000000  0.4452720000000  0.4582530000000 1.0
C      1  0.4665340000000  0.4981590000000  0.4364570000000 1.0
C      1  0.4935430000000  0.5056340000000  0.5501510000000 1.0
C      1  0.5002540000000  0.5314200000000  0.4316780000000 1.0
C      1  0.4730680000000  0.4519270000000  0.5393450000000 1.0
END
