TITL C-951343-2256-34 5.29488657472947e-06 125000 -1204.74050232562 0 0 191 (C1) n - 1
REM
REM in /home/bkarasulu/work/CARBON/AIRSS/Generating-Clusters/EDIP-Nigel-Params/with-SteepDescent/Only-C1/SD-CG/HFTN-CG
REM
REM
REM
REM
REM
REM ./C.cell (11c1c37f851c82e70ff6c80c92926a4b)
REM
REM compiler GCC version 9.2.1 20190827 (Red Hat 9.2.1-1)
REM options -cpp -mtune=generic -march=x86-64 -g -O0 -fpre-include=/usr/include/finclude/math-vector-fortran.h
REM seed -2076938163 -1643489189 -1005041330 -199599994 -28546589 -1508372357 1122869242 65016158 132487988 -1635503405 -298964544 1256999005 754474491 994677545 119304063 -1116644236 -562985487 -241431916 532618170 -264970926 -1008709043 462418734 1243581903 2062269266 1424668045 -1481373 -1618828182 1719853275 853763306 475412470 787793213 1936556880 -265703931
REM
CELL 1.54180   50.00000   50.00000   50.00000   90.00000   90.00000   90.00000
LATT -1
SFAC C  
C      1  0.4127700000000  0.4265440000000  0.5457580000000 1.0
C      1  0.5533410000000  0.5967050000000  0.5075870000000 1.0
C      1  0.4739280000000  0.5461370000000  0.5971640000000 1.0
C      1  0.5033660000000  0.5576340000000  0.3992690000000 1.0
C      1  0.4925930000000  0.4616990000000  0.4487220000000 1.0
C      1  0.5056720000000  0.3792970000000  0.5042930000000 1.0
C      1  0.4753540000000  0.4754650000000  0.4933110000000 1.0
C      1  0.5373900000000  0.4341540000000  0.4201960000000 1.0
C      1  0.5211780000000  0.4006780000000  0.4523020000000 1.0
C      1  0.5183920000000  0.4889400000000  0.5627990000000 1.0
C      1  0.5347740000000  0.5083330000000  0.4798050000000 1.0
C      1  0.4858630000000  0.4475730000000  0.5290300000000 1.0
C      1  0.5544410000000  0.4402850000000  0.4892650000000 1.0
C      1  0.5598770000000  0.4711340000000  0.4779940000000 1.0
C      1  0.4005680000000  0.4507190000000  0.5570830000000 1.0
C      1  0.5210110000000  0.5185270000000  0.5510770000000 1.0
C      1  0.5645550000000  0.4366070000000  0.4335750000000 1.0
C      1  0.5311830000000  0.4491720000000  0.3959570000000 1.0
C      1  0.5484520000000  0.5637090000000  0.4135080000000 1.0
C      1  0.4629040000000  0.4475920000000  0.5904260000000 1.0
C      1  0.5636760000000  0.4477130000000  0.5765100000000 1.0
C      1  0.4735740000000  0.5773430000000  0.5922070000000 1.0
C      1  0.5135340000000  0.5538020000000  0.4852300000000 1.0
C      1  0.5318770000000  0.4819140000000  0.4363520000000 1.0
C      1  0.5716740000000  0.5516420000000  0.4276020000000 1.0
C      1  0.5551950000000  0.4798740000000  0.4168610000000 1.0
C      1  0.4253030000000  0.5055490000000  0.5038070000000 1.0
C      1  0.4559300000000  0.4890560000000  0.4730120000000 1.0
C      1  0.5435690000000  0.6028980000000  0.4790410000000 1.0
C      1  0.5308520000000  0.5187110000000  0.3993200000000 1.0
C      1  0.5702500000000  0.5846160000000  0.5795930000000 1.0
C      1  0.5466540000000  0.4507680000000  0.5197890000000 1.0
C      1  0.4164110000000  0.4556040000000  0.5796460000000 1.0
C      1  0.4944100000000  0.3902030000000  0.4598430000000 1.0
C      1  0.4202420000000  0.5567150000000  0.5154540000000 1.0
C      1  0.4501470000000  0.3950190000000  0.5459110000000 1.0
C      1  0.4144590000000  0.5485320000000  0.4857380000000 1.0
C      1  0.6071130000000  0.5543380000000  0.5515160000000 1.0
C      1  0.4186510000000  0.5107940000000  0.5754290000000 1.0
C      1  0.4656360000000  0.5542300000000  0.4729120000000 1.0
C      1  0.5397240000000  0.5001180000000  0.5077770000000 1.0
C      1  0.5118210000000  0.5186930000000  0.6093030000000 1.0
C      1  0.5168060000000  0.6013080000000  0.5296060000000 1.0
C      1  0.4784610000000  0.5466820000000  0.4045200000000 1.0
C      1  0.5115880000000  0.5928580000000  0.4268770000000 1.0
C      1  0.4628960000000  0.4514870000000  0.5096450000000 1.0
C      1  0.5060990000000  0.5631710000000  0.5323320000000 1.0
C      1  0.5760670000000  0.4632650000000  0.4310690000000 1.0
C      1  0.5473160000000  0.6055390000000  0.5376220000000 1.0
C      1  0.4885860000000  0.4338580000000  0.4418560000000 1.0
C      1  0.4396370000000  0.5378070000000  0.4710310000000 1.0
C      1  0.5055410000000  0.5014680000000  0.3957120000000 1.0
C      1  0.4621780000000  0.5125690000000  0.6058120000000 1.0
C      1  0.5767960000000  0.5594460000000  0.5122530000000 1.0
C      1  0.5432070000000  0.5444250000000  0.5889210000000 1.0
C      1  0.4405550000000  0.4429280000000  0.4224180000000 1.0
C      1  0.4790540000000  0.4965940000000  0.5150760000000 1.0
C      1  0.4894440000000  0.3987270000000  0.5208470000000 1.0
C      1  0.4497130000000  0.5871810000000  0.5815590000000 1.0
C      1  0.5261340000000  0.5506530000000  0.5131230000000 1.0
C      1  0.4408000000000  0.4964610000000  0.5908480000000 1.0
C      1  0.4893900000000  0.5000660000000  0.6059390000000 1.0
C      1  0.5109210000000  0.4187040000000  0.5565840000000 1.0
C      1  0.4759740000000  0.5357210000000  0.5678390000000 1.0
C      1  0.4455630000000  0.4222320000000  0.5033310000000 1.0
C      1  0.5682540000000  0.4904340000000  0.5027270000000 1.0
C      1  0.4401180000000  0.4240650000000  0.4713720000000 1.0
C      1  0.5327710000000  0.5232110000000  0.5251030000000 1.0
C      1  0.5249440000000  0.5444800000000  0.4130620000000 1.0
C      1  0.5362650000000  0.5161160000000  0.5927560000000 1.0
C      1  0.5863470000000  0.5130580000000  0.5584900000000 1.0
C      1  0.5898920000000  0.5393060000000  0.5706240000000 1.0
C      1  0.4107760000000  0.4994550000000  0.5479390000000 1.0
C      1  0.3945740000000  0.4980700000000  0.4405390000000 1.0
C      1  0.5133120000000  0.4184390000000  0.4284080000000 1.0
C      1  0.4901260000000  0.4569340000000  0.5838220000000 1.0
C      1  0.5326000000000  0.4812340000000  0.4665570000000 1.0
C      1  0.4742200000000  0.5057830000000  0.5637540000000 1.0
C      1  0.5840580000000  0.4756130000000  0.4569320000000 1.0
C      1  0.4961250000000  0.4132910000000  0.4042900000000 1.0
C      1  0.5508660000000  0.4676400000000  0.3905990000000 1.0
C      1  0.4071330000000  0.4711440000000  0.5360450000000 1.0
C      1  0.5768310000000  0.5322950000000  0.5013400000000 1.0
C      1  0.5536950000000  0.4211100000000  0.5688790000000 1.0
C      1  0.4794150000000  0.5173920000000  0.3973300000000 1.0
C      1  0.5167890000000  0.4460770000000  0.5932980000000 1.0
C      1  0.5585900000000  0.4136080000000  0.5401010000000 1.0
C      1  0.5683730000000  0.5560390000000  0.5813730000000 1.0
C      1  0.6005750000000  0.4537460000000  0.4822930000000 1.0
C      1  0.5857110000000  0.5063340000000  0.4498030000000 1.0
C      1  0.4096590000000  0.5429240000000  0.5388690000000 1.0
C      1  0.5988130000000  0.4947980000000  0.5102310000000 1.0
C      1  0.5255120000000  0.4199120000000  0.5807620000000 1.0
C      1  0.4466770000000  0.5134790000000  0.4870990000000 1.0
C      1  0.5039040000000  0.4317430000000  0.4854790000000 1.0
C      1  0.4936580000000  0.5215800000000  0.4533640000000 1.0
C      1  0.4960910000000  0.3953280000000  0.5495740000000 1.0
C      1  0.4573770000000  0.6115700000000  0.4847080000000 1.0
C      1  0.4202690000000  0.5868270000000  0.5075510000000 1.0
C      1  0.4546270000000  0.4207210000000  0.5821570000000 1.0
C      1  0.5026780000000  0.4637970000000  0.4771620000000 1.0
C      1  0.4852760000000  0.4396380000000  0.3982200000000 1.0
C      1  0.5764540000000  0.4220310000000  0.4546130000000 1.0
C      1  0.6044200000000  0.4654640000000  0.5095330000000 1.0
C      1  0.4138630000000  0.4892290000000  0.4191990000000 1.0
C      1  0.5566860000000  0.5081820000000  0.4102970000000 1.0
C      1  0.5263810000000  0.4737510000000  0.5130480000000 1.0
C      1  0.5527920000000  0.4919810000000  0.5894060000000 1.0
C      1  0.5507540000000  0.5678770000000  0.5087360000000 1.0
C      1  0.5448280000000  0.3947350000000  0.5252250000000 1.0
C      1  0.5300460000000  0.4157180000000  0.4794890000000 1.0
C      1  0.5483040000000  0.5794990000000  0.4571810000000 1.0
C      1  0.4567670000000  0.4484220000000  0.3973220000000 1.0
C      1  0.4519230000000  0.5475110000000  0.5525480000000 1.0
C      1  0.5886030000000  0.5732020000000  0.5358140000000 1.0
C      1  0.5018760000000  0.5460560000000  0.6062400000000 1.0
C      1  0.6011620000000  0.5240330000000  0.4656650000000 1.0
C      1  0.5169790000000  0.5590530000000  0.5838880000000 1.0
C      1  0.4046500000000  0.4865930000000  0.4651670000000 1.0
C      1  0.4741010000000  0.5777250000000  0.4901030000000 1.0
C      1  0.5577550000000  0.5288380000000  0.4730150000000 1.0
C      1  0.4618310000000  0.4859210000000  0.4284540000000 1.0
C      1  0.5767630000000  0.5683140000000  0.4515150000000 1.0
C      1  0.5173960000000  0.5376590000000  0.4418680000000 1.0
C      1  0.4430770000000  0.4672260000000  0.5783550000000 1.0
C      1  0.5073280000000  0.4696700000000  0.5354580000000 1.0
C      1  0.4165430000000  0.4266310000000  0.5155810000000 1.0
C      1  0.4234770000000  0.5389150000000  0.5645380000000 1.0
C      1  0.4354660000000  0.5598560000000  0.4336190000000 1.0
C      1  0.4382840000000  0.4185220000000  0.5577730000000 1.0
C      1  0.4890360000000  0.5353920000000  0.4794840000000 1.0
C      1  0.4300340000000  0.4723350000000  0.4620700000000 1.0
C      1  0.5779010000000  0.4276760000000  0.5249070000000 1.0
C      1  0.4945880000000  0.3712740000000  0.4801240000000 1.0
C      1  0.5679960000000  0.5886380000000  0.5516450000000 1.0
C      1  0.5282230000000  0.4523680000000  0.5511140000000 1.0
C      1  0.5910720000000  0.5517780000000  0.4709870000000 1.0
C      1  0.5396660000000  0.5876210000000  0.4291150000000 1.0
C      1  0.5050550000000  0.5442010000000  0.5582160000000 1.0
C      1  0.4602430000000  0.4963010000000  0.5395170000000 1.0
C      1  0.3960950000000  0.5267700000000  0.4475310000000 1.0
C      1  0.3987960000000  0.4996140000000  0.4912320000000 1.0
C      1  0.4559350000000  0.4997430000000  0.4031380000000 1.0
C      1  0.4359440000000  0.4588120000000  0.5270290000000 1.0
C      1  0.5689510000000  0.5225300000000  0.4317390000000 1.0
C      1  0.5165650000000  0.6044200000000  0.4956850000000 1.0
C      1  0.4514380000000  0.4235620000000  0.4432430000000 1.0
C      1  0.4220650000000  0.4467580000000  0.4740460000000 1.0
C      1  0.3920170000000  0.4727450000000  0.5092260000000 1.0
C      1  0.6053750000000  0.5075160000000  0.5378380000000 1.0
C      1  0.5047980000000  0.4780160000000  0.4260790000000 1.0
C      1  0.4326420000000  0.5790510000000  0.4564810000000 1.0
C      1  0.6148540000000  0.5379020000000  0.5052390000000 1.0
C      1  0.3922060000000  0.5290110000000  0.4778880000000 1.0
C      1  0.4533600000000  0.4752430000000  0.3865220000000 1.0
C      1  0.4319120000000  0.5121770000000  0.5312840000000 1.0
C      1  0.4354640000000  0.4709950000000  0.4326200000000 1.0
C      1  0.4454280000000  0.6034040000000  0.5106500000000 1.0
C      1  0.4493360000000  0.5773610000000  0.5554000000000 1.0
C      1  0.4989620000000  0.5890900000000  0.4516040000000 1.0
C      1  0.4829380000000  0.4172120000000  0.4671370000000 1.0
C      1  0.4991140000000  0.4262380000000  0.5144610000000 1.0
C      1  0.4775820000000  0.5682460000000  0.5195200000000 1.0
C      1  0.4972680000000  0.5878670000000  0.5768010000000 1.0
C      1  0.5417370000000  0.4639550000000  0.5883480000000 1.0
C      1  0.5888310000000  0.4526780000000  0.5318510000000 1.0
C      1  0.4722790000000  0.3911620000000  0.5647240000000 1.0
C      1  0.4627010000000  0.5642670000000  0.4233360000000 1.0
C      1  0.5818680000000  0.4311340000000  0.4807050000000 1.0
C      1  0.4528430000000  0.4694000000000  0.5489590000000 1.0
C      1  0.4289150000000  0.5134920000000  0.4105400000000 1.0
C      1  0.4657680000000  0.5912950000000  0.5352940000000 1.0
C      1  0.4922670000000  0.6010700000000  0.5496630000000 1.0
C      1  0.5018140000000  0.5822100000000  0.4808350000000 1.0
C      1  0.4591330000000  0.3980190000000  0.5175070000000 1.0
C      1  0.5318700000000  0.3921840000000  0.5004550000000 1.0
C      1  0.4117380000000  0.5778060000000  0.4773530000000 1.0
C      1  0.4704880000000  0.5221540000000  0.5035630000000 1.0
C      1  0.4043880000000  0.4474750000000  0.4978910000000 1.0
C      1  0.6188130000000  0.5332330000000  0.5331020000000 1.0
C      1  0.5346520000000  0.5505340000000  0.4637210000000 1.0
C      1  0.4616220000000  0.5437140000000  0.5235630000000 1.0
C      1  0.4526200000000  0.5998910000000  0.4579650000000 1.0
C      1  0.6142530000000  0.5131070000000  0.4897910000000 1.0
C      1  0.4734350000000  0.5909150000000  0.4360730000000 1.0
C      1  0.4244050000000  0.5316260000000  0.4355430000000 1.0
C      1  0.5797990000000  0.4639740000000  0.5582650000000 1.0
C      1  0.4925990000000  0.4869590000000  0.5795090000000 1.0
C      1  0.4718160000000  0.5008070000000  0.4506600000000 1.0
C      1  0.5049940000000  0.4627000000000  0.3976590000000 1.0
C      1  0.5750390000000  0.4903830000000  0.5704970000000 1.0
END
