TITL C-950533-5798-300 2.89674590210824e-06 125000 -1073.34269143754 0 0 170 (C1) n - 1
REM
REM in /home/bkarasulu/work/CARBON/AIRSS/Generating-Clusters/EDIP-Nigel-Params/with-SteepDescent/Only-C1/SD-CG/HFTN-CG
REM
REM
REM
REM
REM
REM ./C.cell (11c1c37f851c82e70ff6c80c92926a4b)
REM
REM compiler GCC version 9.2.1 20190827 (Red Hat 9.2.1-1)
REM options -cpp -mtune=generic -march=x86-64 -g -O0 -fpre-include=/usr/include/finclude/math-vector-fortran.h
REM seed -211077063 859165014 195528741 -1938716606 2109027882 -1060201462 -1105809839 -1814904272 -1028098416 1971433081 995935539 -427708082 1819561919 -1963217747 -444202011 447215383 -184090874 -1128031182 338673605 -1389993662 -918611452 1529963590 -702731287 1472771876 -1967843115 -1573783885 -1277117269 -323241321 -330310098 1697603606 -396536352 349375175 1081739418
REM
CELL 1.54180   50.00000   50.00000   50.00000   90.00000   90.00000   90.00000
LATT -1
SFAC C  
C      1  0.5417840000000  0.4714460000000  0.4884400000000 1.0
C      1  0.4811430000000  0.4548460000000  0.4771890000000 1.0
C      1  0.5157610000000  0.6100590000000  0.4522880000000 1.0
C      1  0.4200920000000  0.4309300000000  0.5238280000000 1.0
C      1  0.4346200000000  0.4786550000000  0.4087820000000 1.0
C      1  0.5716160000000  0.5716370000000  0.5207230000000 1.0
C      1  0.5325920000000  0.6041760000000  0.5323380000000 1.0
C      1  0.5052320000000  0.4504980000000  0.4589690000000 1.0
C      1  0.5605830000000  0.5467820000000  0.5732060000000 1.0
C      1  0.4283750000000  0.4561210000000  0.4796790000000 1.0
C      1  0.4391080000000  0.5235020000000  0.4943960000000 1.0
C      1  0.4715160000000  0.4996520000000  0.5936390000000 1.0
C      1  0.4243310000000  0.4678600000000  0.5688600000000 1.0
C      1  0.5511950000000  0.4445660000000  0.5007420000000 1.0
C      1  0.4624900000000  0.5174980000000  0.4064050000000 1.0
C      1  0.4085950000000  0.5416860000000  0.4514210000000 1.0
C      1  0.5105620000000  0.5112120000000  0.5596060000000 1.0
C      1  0.4464380000000  0.5427880000000  0.5793250000000 1.0
C      1  0.5528950000000  0.4891060000000  0.4131150000000 1.0
C      1  0.6017740000000  0.4610230000000  0.5195340000000 1.0
C      1  0.5191870000000  0.4481070000000  0.5397010000000 1.0
C      1  0.4048880000000  0.4891120000000  0.4427300000000 1.0
C      1  0.5297580000000  0.5503380000000  0.4705740000000 1.0
C      1  0.4630720000000  0.4851860000000  0.5023090000000 1.0
C      1  0.5131600000000  0.5646250000000  0.4948740000000 1.0
C      1  0.5235030000000  0.4476320000000  0.4102760000000 1.0
C      1  0.4713460000000  0.5936830000000  0.4608390000000 1.0
C      1  0.5745900000000  0.4263780000000  0.5422850000000 1.0
C      1  0.4190560000000  0.4297100000000  0.4726170000000 1.0
C      1  0.5039880000000  0.5103170000000  0.4542740000000 1.0
C      1  0.5757270000000  0.5352670000000  0.4561930000000 1.0
C      1  0.5219560000000  0.4163320000000  0.4510870000000 1.0
C      1  0.4581890000000  0.4907930000000  0.4641570000000 1.0
C      1  0.5408970000000  0.5173120000000  0.4770140000000 1.0
C      1  0.4610070000000  0.5329010000000  0.4474250000000 1.0
C      1  0.5201360000000  0.5544970000000  0.5227230000000 1.0
C      1  0.4166380000000  0.5153580000000  0.4337810000000 1.0
C      1  0.5059630000000  0.4913190000000  0.4006020000000 1.0
C      1  0.5085450000000  0.5388780000000  0.4519950000000 1.0
C      1  0.4425750000000  0.4458200000000  0.5667540000000 1.0
C      1  0.4331570000000  0.4295570000000  0.4445660000000 1.0
C      1  0.4798800000000  0.5393650000000  0.5507500000000 1.0
C      1  0.5928390000000  0.5315500000000  0.5051960000000 1.0
C      1  0.6114570000000  0.4884940000000  0.4819760000000 1.0
C      1  0.6105680000000  0.5075430000000  0.5055350000000 1.0
C      1  0.4470890000000  0.5118890000000  0.5821230000000 1.0
C      1  0.5031390000000  0.5742960000000  0.4259930000000 1.0
C      1  0.4171810000000  0.5663990000000  0.5388280000000 1.0
C      1  0.5612510000000  0.4474390000000  0.4424960000000 1.0
C      1  0.4437260000000  0.4977070000000  0.5544340000000 1.0
C      1  0.6111440000000  0.4593810000000  0.4919620000000 1.0
C      1  0.5517570000000  0.4582030000000  0.4165390000000 1.0
C      1  0.5853690000000  0.5099350000000  0.4462830000000 1.0
C      1  0.4611320000000  0.4706150000000  0.4013290000000 1.0
C      1  0.5309390000000  0.5063300000000  0.4009660000000 1.0
C      1  0.4725620000000  0.4052390000000  0.4685110000000 1.0
C      1  0.4873320000000  0.4248010000000  0.5778940000000 1.0
C      1  0.5762010000000  0.5018500000000  0.4214290000000 1.0
C      1  0.5289530000000  0.5355810000000  0.4038920000000 1.0
C      1  0.3991190000000  0.5253950000000  0.4749430000000 1.0
C      1  0.4952310000000  0.5558150000000  0.5349520000000 1.0
C      1  0.5187900000000  0.4470240000000  0.6087290000000 1.0
C      1  0.4075670000000  0.4737600000000  0.5462580000000 1.0
C      1  0.5837770000000  0.5393930000000  0.5569540000000 1.0
C      1  0.5344980000000  0.4043630000000  0.5488630000000 1.0
C      1  0.4789630000000  0.4987690000000  0.4423260000000 1.0
C      1  0.5283850000000  0.4949810000000  0.4488500000000 1.0
C      1  0.5651400000000  0.4008600000000  0.5018240000000 1.0
C      1  0.4095920000000  0.5103670000000  0.5150720000000 1.0
C      1  0.5460020000000  0.5715300000000  0.4542980000000 1.0
C      1  0.5565810000000  0.5187830000000  0.5392710000000 1.0
C      1  0.5041220000000  0.3886690000000  0.5149590000000 1.0
C      1  0.5416200000000  0.5075840000000  0.5645470000000 1.0
C      1  0.5654600000000  0.4242470000000  0.4833200000000 1.0
C      1  0.4772860000000  0.4705130000000  0.5970220000000 1.0
C      1  0.4097090000000  0.5212360000000  0.5600970000000 1.0
C      1  0.4685680000000  0.4470330000000  0.5312190000000 1.0
C      1  0.4318870000000  0.5919930000000  0.5364120000000 1.0
C      1  0.5639770000000  0.5546600000000  0.4378900000000 1.0
C      1  0.4770160000000  0.5826390000000  0.4350940000000 1.0
C      1  0.4696690000000  0.5111100000000  0.5399770000000 1.0
C      1  0.4771840000000  0.4945220000000  0.3982050000000 1.0
C      1  0.4671150000000  0.4459640000000  0.5831970000000 1.0
C      1  0.5197760000000  0.4825050000000  0.5062020000000 1.0
C      1  0.4460010000000  0.5517340000000  0.4297600000000 1.0
C      1  0.4075090000000  0.4742560000000  0.4897910000000 1.0
C      1  0.5929440000000  0.4409090000000  0.4759230000000 1.0
C      1  0.4776810000000  0.4319700000000  0.5035840000000 1.0
C      1  0.5206180000000  0.5547770000000  0.6000920000000 1.0
C      1  0.5624990000000  0.4944400000000  0.4884090000000 1.0
C      1  0.4954810000000  0.6072150000000  0.4714040000000 1.0
C      1  0.5194710000000  0.5125100000000  0.5013720000000 1.0
C      1  0.5672880000000  0.4674500000000  0.5656620000000 1.0
C      1  0.4281510000000  0.4155840000000  0.4977440000000 1.0
C      1  0.5597630000000  0.4034700000000  0.5304120000000 1.0
C      1  0.4020430000000  0.5021640000000  0.5411250000000 1.0
C      1  0.5847640000000  0.5463220000000  0.4816160000000 1.0
C      1  0.4297630000000  0.5639880000000  0.4519750000000 1.0
C      1  0.5604700000000  0.4722670000000  0.5368780000000 1.0
C      1  0.4742630000000  0.5435860000000  0.4047390000000 1.0
C      1  0.4826140000000  0.5518180000000  0.4579580000000 1.0
C      1  0.4906430000000  0.5223220000000  0.4948510000000 1.0
C      1  0.4199790000000  0.4615680000000  0.5222770000000 1.0
C      1  0.4442050000000  0.5856260000000  0.4728610000000 1.0
C      1  0.4015700000000  0.4957770000000  0.4708280000000 1.0
C      1  0.4616630000000  0.4191470000000  0.4451420000000 1.0
C      1  0.5045070000000  0.6024030000000  0.5438120000000 1.0
C      1  0.5285760000000  0.4690930000000  0.4628280000000 1.0
C      1  0.5845720000000  0.4596110000000  0.4551420000000 1.0
C      1  0.5100850000000  0.4239740000000  0.4243370000000 1.0
C      1  0.4847160000000  0.4089410000000  0.5532070000000 1.0
C      1  0.4116580000000  0.5598060000000  0.5094520000000 1.0
C      1  0.5273600000000  0.5261720000000  0.5272860000000 1.0
C      1  0.5502990000000  0.4843130000000  0.5803970000000 1.0
C      1  0.5046080000000  0.4151020000000  0.5020380000000 1.0
C      1  0.4344420000000  0.5087080000000  0.4101790000000 1.0
C      1  0.5317400000000  0.4735540000000  0.5330670000000 1.0
C      1  0.5513460000000  0.4227830000000  0.4560540000000 1.0
C      1  0.5150570000000  0.4290880000000  0.5873550000000 1.0
C      1  0.5049680000000  0.4710550000000  0.6063080000000 1.0
C      1  0.5624940000000  0.4380390000000  0.5672980000000 1.0
C      1  0.5506330000000  0.5821830000000  0.5389030000000 1.0
C      1  0.5254810000000  0.4341210000000  0.5132570000000 1.0
C      1  0.4864380000000  0.5509840000000  0.4888420000000 1.0
C      1  0.5231710000000  0.5766200000000  0.5806730000000 1.0
C      1  0.4627500000000  0.5860060000000  0.5194480000000 1.0
C      1  0.4938070000000  0.5424770000000  0.5976040000000 1.0
C      1  0.4407770000000  0.5150210000000  0.4644220000000 1.0
C      1  0.4230940000000  0.4656200000000  0.4335580000000 1.0
C      1  0.4914610000000  0.4604970000000  0.5448670000000 1.0
C      1  0.4877280000000  0.6023690000000  0.5193220000000 1.0
C      1  0.4799950000000  0.4253960000000  0.4229380000000 1.0
C      1  0.4383080000000  0.6007120000000  0.5076040000000 1.0
C      1  0.4983500000000  0.5844370000000  0.5672070000000 1.0
C      1  0.5525650000000  0.5468150000000  0.4137560000000 1.0
C      1  0.5260830000000  0.5880730000000  0.4383630000000 1.0
C      1  0.3972420000000  0.5340140000000  0.5036000000000 1.0
C      1  0.4446460000000  0.4649230000000  0.4564260000000 1.0
C      1  0.4759260000000  0.5550280000000  0.5763580000000 1.0
C      1  0.4370950000000  0.5537330000000  0.4934170000000 1.0
C      1  0.5021690000000  0.4085810000000  0.4725760000000 1.0
C      1  0.4631870000000  0.5610710000000  0.5044590000000 1.0
C      1  0.5152020000000  0.4989560000000  0.6091780000000 1.0
C      1  0.5711220000000  0.4966110000000  0.5228970000000 1.0
C      1  0.5448330000000  0.5367700000000  0.5975080000000 1.0
C      1  0.5074770000000  0.3949490000000  0.5416660000000 1.0
C      1  0.5109340000000  0.4726630000000  0.4222600000000 1.0
C      1  0.4905940000000  0.4739680000000  0.4984440000000 1.0
C      1  0.5331010000000  0.4306900000000  0.5630860000000 1.0
C      1  0.5870660000000  0.5483430000000  0.5292530000000 1.0
C      1  0.5609760000000  0.5882940000000  0.4729280000000 1.0
C      1  0.4926690000000  0.4911520000000  0.5440080000000 1.0
C      1  0.4580040000000  0.4080190000000  0.4978510000000 1.0
C      1  0.4491190000000  0.4710820000000  0.5261930000000 1.0
C      1  0.4844010000000  0.4661860000000  0.4384420000000 1.0
C      1  0.5424720000000  0.5092600000000  0.6086030000000 1.0
C      1  0.5069380000000  0.5969470000000  0.4967930000000 1.0
C      1  0.5315380000000  0.6111180000000  0.5046570000000 1.0
C      1  0.5027840000000  0.5498740000000  0.4096110000000 1.0
C      1  0.4657750000000  0.5132790000000  0.5089760000000 1.0
C      1  0.4704020000000  0.4443940000000  0.4048340000000 1.0
C      1  0.5712670000000  0.5699850000000  0.4913890000000 1.0
C      1  0.4367830000000  0.4235080000000  0.5475020000000 1.0
C      1  0.5732850000000  0.4493870000000  0.5231240000000 1.0
C      1  0.6011990000000  0.4902930000000  0.5273490000000 1.0
C      1  0.5478720000000  0.5715620000000  0.5655810000000 1.0
C      1  0.4974530000000  0.5140970000000  0.5906240000000 1.0
C      1  0.4601440000000  0.4088590000000  0.5368160000000 1.0
C      1  0.5856800000000  0.4883350000000  0.4668770000000 1.0
C      1  0.4266080000000  0.5436960000000  0.5569090000000 1.0
END
