TITL C-950529-3362-553 -4.74710075293902e-07 125000 -970.974452355241 0 0 156 (C1) n - 1
REM
REM in /home/bkarasulu/work/CARBON/AIRSS/Generating-Clusters/EDIP-Nigel-Params/with-SteepDescent/Only-C1/SD-CG/HFTN-CG
REM
REM
REM
REM
REM
REM ./C.cell (11c1c37f851c82e70ff6c80c92926a4b)
REM
REM compiler GCC version 9.2.1 20190827 (Red Hat 9.2.1-1)
REM options -cpp -mtune=generic -march=x86-64 -g -O0 -fpre-include=/usr/include/finclude/math-vector-fortran.h
REM seed 1283489324 -1887386313 1094464560 387511036 -2011064293 2102857808 -48525599 -1291691724 -950802818 388975636 -1179425661 523884562 1249916037 357476333 1898049046 -1247594845 -780828634 272655568 1819920192 758647684 -1643907138 513235269 -1119665617 223411829 308645835 -335507599 -1178003500 -1325639751 -140278434 2016365002 1875832285 -1360300698 379324919
REM
CELL 1.54180   50.00000   50.00000   50.00000   90.00000   90.00000   90.00000
LATT -1
SFAC C  
C      1  0.4294180000000  0.4715380000000  0.5651140000000 1.0
C      1  0.5228310000000  0.5311300000000  0.6028780000000 1.0
C      1  0.4842210000000  0.4409420000000  0.5841420000000 1.0
C      1  0.5809000000000  0.5662700000000  0.5427000000000 1.0
C      1  0.4595280000000  0.4917790000000  0.5145830000000 1.0
C      1  0.5787690000000  0.4449670000000  0.5303780000000 1.0
C      1  0.5762000000000  0.5140370000000  0.4219480000000 1.0
C      1  0.4512290000000  0.4267440000000  0.5520130000000 1.0
C      1  0.6093970000000  0.5194290000000  0.4754810000000 1.0
C      1  0.5000370000000  0.5473610000000  0.6050150000000 1.0
C      1  0.4256090000000  0.5308310000000  0.5271920000000 1.0
C      1  0.4533790000000  0.5731390000000  0.5414170000000 1.0
C      1  0.4186740000000  0.4947590000000  0.5512310000000 1.0
C      1  0.5586750000000  0.4843530000000  0.5070690000000 1.0
C      1  0.4166700000000  0.4833090000000  0.4449030000000 1.0
C      1  0.6039120000000  0.5143090000000  0.5038900000000 1.0
C      1  0.4754560000000  0.5820780000000  0.4674730000000 1.0
C      1  0.5203520000000  0.5881140000000  0.5283910000000 1.0
C      1  0.5471720000000  0.4939460000000  0.5823580000000 1.0
C      1  0.5489840000000  0.4732000000000  0.5604630000000 1.0
C      1  0.4740260000000  0.4878700000000  0.5994210000000 1.0
C      1  0.4093760000000  0.4331760000000  0.4690750000000 1.0
C      1  0.5896250000000  0.4897310000000  0.5441370000000 1.0
C      1  0.4070770000000  0.4544370000000  0.5083670000000 1.0
C      1  0.5766940000000  0.4266570000000  0.4731620000000 1.0
C      1  0.4335180000000  0.5115990000000  0.4799300000000 1.0
C      1  0.5372760000000  0.4016460000000  0.4906270000000 1.0
C      1  0.5978040000000  0.4573140000000  0.5091260000000 1.0
C      1  0.5388010000000  0.4851230000000  0.5325570000000 1.0
C      1  0.4723630000000  0.5451100000000  0.6084680000000 1.0
C      1  0.4717540000000  0.5615790000000  0.5629570000000 1.0
C      1  0.5198720000000  0.5792280000000  0.5575050000000 1.0
C      1  0.4390620000000  0.5583590000000  0.4438070000000 1.0
C      1  0.4966710000000  0.5163680000000  0.4461370000000 1.0
C      1  0.4751110000000  0.5398770000000  0.5205830000000 1.0
C      1  0.4982020000000  0.4093480000000  0.5193130000000 1.0
C      1  0.4767450000000  0.5157310000000  0.5018800000000 1.0
C      1  0.5331680000000  0.5528680000000  0.5604310000000 1.0
C      1  0.5455880000000  0.4222590000000  0.5331630000000 1.0
C      1  0.5924460000000  0.5470290000000  0.4560920000000 1.0
C      1  0.5505500000000  0.4289900000000  0.4881770000000 1.0
C      1  0.4909940000000  0.4596700000000  0.4832030000000 1.0
C      1  0.5016450000000  0.4420500000000  0.4614890000000 1.0
C      1  0.4381470000000  0.5113660000000  0.6061920000000 1.0
C      1  0.5162410000000  0.4704970000000  0.5194170000000 1.0
C      1  0.5440610000000  0.5523850000000  0.4280410000000 1.0
C      1  0.4438820000000  0.4830460000000  0.6055760000000 1.0
C      1  0.4941800000000  0.5793470000000  0.5690900000000 1.0
C      1  0.4633910000000  0.4841780000000  0.4188770000000 1.0
C      1  0.5455290000000  0.4543140000000  0.4590590000000 1.0
C      1  0.4393440000000  0.5263440000000  0.5794760000000 1.0
C      1  0.4699760000000  0.5288100000000  0.4527440000000 1.0
C      1  0.4911780000000  0.5543320000000  0.4239620000000 1.0
C      1  0.5138820000000  0.4019820000000  0.4466580000000 1.0
C      1  0.5491520000000  0.4562000000000  0.4046420000000 1.0
C      1  0.4463000000000  0.4834820000000  0.4883410000000 1.0
C      1  0.5137360000000  0.4855120000000  0.3979060000000 1.0
C      1  0.4746960000000  0.4890390000000  0.5689100000000 1.0
C      1  0.5371770000000  0.5676290000000  0.4521720000000 1.0
C      1  0.4223750000000  0.5117390000000  0.4520070000000 1.0
C      1  0.4673640000000  0.5930940000000  0.5257260000000 1.0
C      1  0.5733970000000  0.5383370000000  0.5377590000000 1.0
C      1  0.5133130000000  0.5623420000000  0.5169700000000 1.0
C      1  0.4934880000000  0.6023490000000  0.5151980000000 1.0
C      1  0.5601880000000  0.5831270000000  0.4653210000000 1.0
C      1  0.5454470000000  0.6004830000000  0.4847100000000 1.0
C      1  0.4468090000000  0.5790090000000  0.4616310000000 1.0
C      1  0.4367180000000  0.4704110000000  0.4273180000000 1.0
C      1  0.4128220000000  0.5233990000000  0.5631670000000 1.0
C      1  0.4769650000000  0.4915160000000  0.4459410000000 1.0
C      1  0.5850810000000  0.5692360000000  0.4738180000000 1.0
C      1  0.4595700000000  0.3921390000000  0.4874780000000 1.0
C      1  0.4312860000000  0.4576590000000  0.4901600000000 1.0
C      1  0.4986230000000  0.5089330000000  0.3899660000000 1.0
C      1  0.5911690000000  0.5652410000000  0.5038090000000 1.0
C      1  0.4583240000000  0.4638220000000  0.5576570000000 1.0
C      1  0.4125280000000  0.4516620000000  0.5703580000000 1.0
C      1  0.5301030000000  0.4520590000000  0.5700510000000 1.0
C      1  0.4197650000000  0.6106290000000  0.4909820000000 1.0
C      1  0.5897460000000  0.4869880000000  0.5139020000000 1.0
C      1  0.4241970000000  0.4058950000000  0.5107000000000 1.0
C      1  0.4654070000000  0.5376440000000  0.4151220000000 1.0
C      1  0.5274280000000  0.5116960000000  0.5384000000000 1.0
C      1  0.4777580000000  0.4250970000000  0.5621800000000 1.0
C      1  0.4317130000000  0.3865270000000  0.4912020000000 1.0
C      1  0.5423550000000  0.4836960000000  0.4010600000000 1.0
C      1  0.4319680000000  0.5330910000000  0.4334930000000 1.0
C      1  0.4427570000000  0.5062880000000  0.5356810000000 1.0
C      1  0.5401650000000  0.4123110000000  0.4390380000000 1.0
C      1  0.5180170000000  0.6051640000000  0.4713920000000 1.0
C      1  0.4482450000000  0.4152480000000  0.5255740000000 1.0
C      1  0.5196080000000  0.5046190000000  0.5876960000000 1.0
C      1  0.5749010000000  0.5845830000000  0.5215100000000 1.0
C      1  0.4860370000000  0.5649610000000  0.5068310000000 1.0
C      1  0.5066800000000  0.4576710000000  0.5866540000000 1.0
C      1  0.5147400000000  0.5319180000000  0.3899690000000 1.0
C      1  0.4373700000000  0.4279230000000  0.4580940000000 1.0
C      1  0.5273880000000  0.4026570000000  0.5173760000000 1.0
C      1  0.5134110000000  0.4795730000000  0.4918870000000 1.0
C      1  0.4817670000000  0.5346000000000  0.5506880000000 1.0
C      1  0.4708800000000  0.5106460000000  0.4012710000000 1.0
C      1  0.5057850000000  0.5107820000000  0.5593870000000 1.0
C      1  0.5045420000000  0.5079230000000  0.4918900000000 1.0
C      1  0.4705780000000  0.3998140000000  0.5143150000000 1.0
C      1  0.4282500000000  0.5847560000000  0.4828420000000 1.0
C      1  0.4470090000000  0.5509620000000  0.5223270000000 1.0
C      1  0.5944200000000  0.4455270000000  0.4838700000000 1.0
C      1  0.4137630000000  0.5208040000000  0.5008800000000 1.0
C      1  0.5585370000000  0.5273330000000  0.4962940000000 1.0
C      1  0.4602630000000  0.5141190000000  0.5593380000000 1.0
C      1  0.5191830000000  0.3912070000000  0.4718330000000 1.0
C      1  0.5451640000000  0.5420530000000  0.5859180000000 1.0
C      1  0.5831220000000  0.5352560000000  0.5098440000000 1.0
C      1  0.5522560000000  0.4464720000000  0.5141100000000 1.0
C      1  0.4020790000000  0.5947970000000  0.4782190000000 1.0
C      1  0.5179520000000  0.5483540000000  0.4122010000000 1.0
C      1  0.4017660000000  0.4647470000000  0.4655770000000 1.0
C      1  0.5251790000000  0.4300850000000  0.5525280000000 1.0
C      1  0.5364020000000  0.5499700000000  0.4994680000000 1.0
C      1  0.5643420000000  0.5174350000000  0.5807150000000 1.0
C      1  0.4622110000000  0.4131930000000  0.4664200000000 1.0
C      1  0.4695690000000  0.4764020000000  0.4710860000000 1.0
C      1  0.5471290000000  0.5904060000000  0.5124890000000 1.0
C      1  0.5038930000000  0.4827190000000  0.6014750000000 1.0
C      1  0.4684530000000  0.4682720000000  0.5298870000000 1.0
C      1  0.5955220000000  0.4989130000000  0.4357520000000 1.0
C      1  0.5817580000000  0.5164960000000  0.5562980000000 1.0
C      1  0.5725960000000  0.5409080000000  0.4332890000000 1.0
C      1  0.5207070000000  0.4545320000000  0.4439130000000 1.0
C      1  0.4916540000000  0.4530550000000  0.5208530000000 1.0
C      1  0.5894140000000  0.5036180000000  0.4630410000000 1.0
C      1  0.5425400000000  0.5377980000000  0.5361340000000 1.0
C      1  0.4978730000000  0.4290920000000  0.5405760000000 1.0
C      1  0.5626420000000  0.4296980000000  0.4460950000000 1.0
C      1  0.5410220000000  0.5031380000000  0.4590250000000 1.0
C      1  0.5172570000000  0.5889940000000  0.4463890000000 1.0
C      1  0.5242800000000  0.5483150000000  0.4723290000000 1.0
C      1  0.5165060000000  0.5196280000000  0.4670950000000 1.0
C      1  0.4863490000000  0.4203200000000  0.4478520000000 1.0
C      1  0.4771360000000  0.4583550000000  0.4098130000000 1.0
C      1  0.3908000000000  0.4747850000000  0.4933240000000 1.0
C      1  0.5636890000000  0.5168730000000  0.4695250000000 1.0
C      1  0.4036090000000  0.4252160000000  0.5001730000000 1.0
C      1  0.4429260000000  0.4414390000000  0.4328060000000 1.0
C      1  0.4906860000000  0.5775470000000  0.4425770000000 1.0
C      1  0.5508970000000  0.5009440000000  0.4220500000000 1.0
C      1  0.3939120000000  0.5014100000000  0.5012410000000 1.0
C      1  0.5416650000000  0.4791860000000  0.4781080000000 1.0
C      1  0.4698290000000  0.4335100000000  0.4235360000000 1.0
C      1  0.4590860000000  0.5268130000000  0.4801010000000 1.0
C      1  0.4549720000000  0.5525170000000  0.5859300000000 1.0
C      1  0.5035300000000  0.4588570000000  0.3984160000000 1.0
C      1  0.5243760000000  0.4457180000000  0.4151650000000 1.0
C      1  0.4916130000000  0.6017890000000  0.4844180000000 1.0
C      1  0.4635180000000  0.5197790000000  0.6181720000000 1.0
C      1  0.5772620000000  0.4646740000000  0.5540440000000 1.0
END
