TITL C-950536-5891-79 -1.11805238059335e-06 125000 -113.483655201979 0 0 20 (C1) n - 1
REM
REM in /home/bkarasulu/work/CARBON/AIRSS/Generating-Clusters/EDIP-Nigel-Params/with-SteepDescent/Only-C1/SD-CG/HFTN-CG
REM
REM
REM
REM
REM
REM ./C.cell (11c1c37f851c82e70ff6c80c92926a4b)
REM
REM compiler GCC version 9.2.1 20190827 (Red Hat 9.2.1-1)
REM options -cpp -mtune=generic -march=x86-64 -g -O0 -fpre-include=/usr/include/finclude/math-vector-fortran.h
REM seed -176330928 -1772384651 -1654728035 -491137961 1882004418 239748351 1114925061 -1422972045 617076236 1209531079 -995942989 -1836463009 -76101418 -1575060171 -1967355834 -1974069920 -1240370966 -235753217 -2057981172 -1503566361 -1650540133 -425402746 -1867102147 -1394917866 -659273611 -840624077 -348151293 -1804441894 -1050297941 -1600589448 670446048 892126972 1651804438
REM
CELL 1.54180   50.00000   50.00000   50.00000   90.00000   90.00000   90.00000
LATT -1
SFAC C  
C      1  0.4851990000000  0.5193260000000  0.5311370000000 1.0
C      1  0.4955840000000  0.5129910000000  0.4359220000000 1.0
C      1  0.5018990000000  0.4859930000000  0.4315660000000 1.0
C      1  0.5000280000000  0.5148470000000  0.4654740000000 1.0
C      1  0.4571260000000  0.5222560000000  0.5281160000000 1.0
C      1  0.4871430000000  0.5386430000000  0.4513810000000 1.0
C      1  0.4602390000000  0.4776790000000  0.5057000000000 1.0
C      1  0.5071380000000  0.4848210000000  0.5165710000000 1.0
C      1  0.5599200000000  0.5004900000000  0.5366040000000 1.0
C      1  0.5234920000000  0.5061700000000  0.5021660000000 1.0
C      1  0.4929900000000  0.4613270000000  0.4755860000000 1.0
C      1  0.4902820000000  0.5382470000000  0.4827070000000 1.0
C      1  0.5488440000000  0.5090970000000  0.5135620000000 1.0
C      1  0.4998240000000  0.4668400000000  0.4503050000000 1.0
C      1  0.5420410000000  0.4866420000000  0.5513390000000 1.0
C      1  0.4485950000000  0.4995150000000  0.5161150000000 1.0
C      1  0.5029430000000  0.5272380000000  0.5079650000000 1.0
C      1  0.4862000000000  0.4690760000000  0.5012940000000 1.0
C      1  0.4948590000000  0.4994490000000  0.5502520000000 1.0
C      1  0.5156560000000  0.4793520000000  0.5462380000000 1.0
END
