TITL C-951344-124-531 -1.47779475684665e-06 125000 -802.198855343216 0 0 129 (C1) n - 1
REM
REM in /home/bkarasulu/work/CARBON/AIRSS/Generating-Clusters/EDIP-Nigel-Params/with-SteepDescent/Only-C1/SD-CG/HFTN-CG
REM
REM
REM
REM
REM
REM ./C.cell (11c1c37f851c82e70ff6c80c92926a4b)
REM
REM compiler GCC version 9.2.1 20190827 (Red Hat 9.2.1-1)
REM options -cpp -mtune=generic -march=x86-64 -g -O0 -fpre-include=/usr/include/finclude/math-vector-fortran.h
REM seed 1015405202 1102514750 -1738764848 -1092231671 -760116784 -420458372 2093935322 1373434913 -1907992331 -875052882 1956365099 -1021067091 -842433064 -1951301422 899722084 -1757031004 -935421458 -769834583 -780381328 1908490317 -1727882158 -35015774 -44673298 2070795306 -1480312712 673974759 -2080314120 1139383449 -519421728 292414153 1182129524 -987938662 -84820520
REM
CELL 1.54180   50.00000   50.00000   50.00000   90.00000   90.00000   90.00000
LATT -1
SFAC C  
C      1  0.5158600000000  0.4721220000000  0.4672810000000 1.0
C      1  0.5373580000000  0.5114520000000  0.4603320000000 1.0
C      1  0.5653520000000  0.5116780000000  0.4950700000000 1.0
C      1  0.5392650000000  0.5251160000000  0.5092960000000 1.0
C      1  0.4826660000000  0.4201460000000  0.5445240000000 1.0
C      1  0.5283180000000  0.5476000000000  0.4923000000000 1.0
C      1  0.5779560000000  0.5363290000000  0.4608670000000 1.0
C      1  0.4704450000000  0.4493690000000  0.4824600000000 1.0
C      1  0.4723750000000  0.5318880000000  0.5765720000000 1.0
C      1  0.4294520000000  0.5637980000000  0.4819430000000 1.0
C      1  0.5937070000000  0.5214480000000  0.5265250000000 1.0
C      1  0.5137960000000  0.3982930000000  0.5151190000000 1.0
C      1  0.4421430000000  0.4142160000000  0.5002750000000 1.0
C      1  0.5529960000000  0.5827190000000  0.5036770000000 1.0
C      1  0.4675820000000  0.4004540000000  0.4607900000000 1.0
C      1  0.5300640000000  0.4137750000000  0.5594160000000 1.0
C      1  0.4842680000000  0.5522030000000  0.4116320000000 1.0
C      1  0.4505050000000  0.5435360000000  0.5612710000000 1.0
C      1  0.5710200000000  0.5200950000000  0.5462620000000 1.0
C      1  0.4787610000000  0.4993070000000  0.4114000000000 1.0
C      1  0.5473070000000  0.5384130000000  0.5369640000000 1.0
C      1  0.4544670000000  0.4221820000000  0.4738970000000 1.0
C      1  0.5061530000000  0.4545040000000  0.5703280000000 1.0
C      1  0.5166670000000  0.4790540000000  0.5239990000000 1.0
C      1  0.5011510000000  0.4492680000000  0.4792980000000 1.0
C      1  0.5375420000000  0.4917510000000  0.4173780000000 1.0
C      1  0.5091950000000  0.4062210000000  0.5426480000000 1.0
C      1  0.5430730000000  0.4281090000000  0.5003250000000 1.0
C      1  0.5372740000000  0.4540860000000  0.4251520000000 1.0
C      1  0.3961340000000  0.4699460000000  0.5223540000000 1.0
C      1  0.5804020000000  0.4917160000000  0.4521830000000 1.0
C      1  0.4905980000000  0.4029720000000  0.4997970000000 1.0
C      1  0.4382170000000  0.5283010000000  0.5390410000000 1.0
C      1  0.4847690000000  0.5924660000000  0.4872330000000 1.0
C      1  0.5093800000000  0.4862450000000  0.4087960000000 1.0
C      1  0.5622470000000  0.4455360000000  0.5415840000000 1.0
C      1  0.5059150000000  0.4282460000000  0.4571740000000 1.0
C      1  0.4593160000000  0.5105520000000  0.5259320000000 1.0
C      1  0.4318530000000  0.4843000000000  0.4343010000000 1.0
C      1  0.5519580000000  0.4417430000000  0.4729760000000 1.0
C      1  0.5292770000000  0.6004030000000  0.4980610000000 1.0
C      1  0.5400630000000  0.5634660000000  0.4439230000000 1.0
C      1  0.4549970000000  0.5011570000000  0.4748750000000 1.0
C      1  0.3998550000000  0.4998540000000  0.5325990000000 1.0
C      1  0.4426860000000  0.4995160000000  0.5020910000000 1.0
C      1  0.5265830000000  0.5207670000000  0.6012480000000 1.0
C      1  0.4167500000000  0.4497600000000  0.5317850000000 1.0
C      1  0.4865640000000  0.5536010000000  0.5209560000000 1.0
C      1  0.5867090000000  0.4725890000000  0.5159630000000 1.0
C      1  0.4961730000000  0.4676490000000  0.5430900000000 1.0
C      1  0.4757470000000  0.5785840000000  0.5358820000000 1.0
C      1  0.4933540000000  0.5460800000000  0.4546180000000 1.0
C      1  0.4966770000000  0.5096710000000  0.4869610000000 1.0
C      1  0.4212020000000  0.4574750000000  0.4811840000000 1.0
C      1  0.5503400000000  0.5697380000000  0.5312350000000 1.0
C      1  0.5461940000000  0.5160550000000  0.4322110000000 1.0
C      1  0.4201900000000  0.5070320000000  0.5519510000000 1.0
C      1  0.4843840000000  0.6027890000000  0.5161800000000 1.0
C      1  0.4510220000000  0.5716830000000  0.5541480000000 1.0
C      1  0.5145370000000  0.4561150000000  0.4063800000000 1.0
C      1  0.4461410000000  0.5973050000000  0.5149350000000 1.0
C      1  0.4300740000000  0.4561220000000  0.5565270000000 1.0
C      1  0.5673570000000  0.4317240000000  0.5171040000000 1.0
C      1  0.5111130000000  0.5905970000000  0.4749840000000 1.0
C      1  0.4810820000000  0.5040720000000  0.5682600000000 1.0
C      1  0.4374120000000  0.5929640000000  0.4868350000000 1.0
C      1  0.4863470000000  0.4389180000000  0.4358590000000 1.0
C      1  0.5225580000000  0.5344010000000  0.5552800000000 1.0
C      1  0.5767790000000  0.4698860000000  0.5422780000000 1.0
C      1  0.4611930000000  0.5975140000000  0.4696000000000 1.0
C      1  0.4624480000000  0.4553520000000  0.5106280000000 1.0
C      1  0.4582180000000  0.5786910000000  0.4462300000000 1.0
C      1  0.5979490000000  0.4976890000000  0.5101410000000 1.0
C      1  0.4821800000000  0.4352420000000  0.5718170000000 1.0
C      1  0.4620840000000  0.4571560000000  0.5783220000000 1.0
C      1  0.4121950000000  0.5003380000000  0.5033750000000 1.0
C      1  0.5142400000000  0.4475300000000  0.5078060000000 1.0
C      1  0.5760250000000  0.5167360000000  0.4387450000000 1.0
C      1  0.5578790000000  0.4939980000000  0.4720600000000 1.0
C      1  0.4342080000000  0.4431740000000  0.5078020000000 1.0
C      1  0.5115300000000  0.5061990000000  0.5573110000000 1.0
C      1  0.5357800000000  0.4334790000000  0.4474220000000 1.0
C      1  0.4758390000000  0.5298720000000  0.4784210000000 1.0
C      1  0.5007180000000  0.5193580000000  0.4368540000000 1.0
C      1  0.5427620000000  0.4555400000000  0.5830930000000 1.0
C      1  0.5814050000000  0.4429420000000  0.4729150000000 1.0
C      1  0.4001780000000  0.4743870000000  0.4912910000000 1.0
C      1  0.5377480000000  0.3995920000000  0.5006770000000 1.0
C      1  0.5690430000000  0.5770430000000  0.4811630000000 1.0
C      1  0.4652590000000  0.4037510000000  0.5146680000000 1.0
C      1  0.5187230000000  0.5615420000000  0.4658270000000 1.0
C      1  0.4442840000000  0.5324570000000  0.4395530000000 1.0
C      1  0.5119080000000  0.5076950000000  0.5127220000000 1.0
C      1  0.4840070000000  0.5694790000000  0.4356790000000 1.0
C      1  0.5123160000000  0.5661050000000  0.5096610000000 1.0
C      1  0.4350070000000  0.5082730000000  0.4529770000000 1.0
C      1  0.5143110000000  0.6066900000000  0.5238380000000 1.0
C      1  0.5954420000000  0.5326470000000  0.4835950000000 1.0
C      1  0.4938920000000  0.4027090000000  0.4702710000000 1.0
C      1  0.5491460000000  0.4837630000000  0.5791040000000 1.0
C      1  0.4945020000000  0.4363850000000  0.4092570000000 1.0
C      1  0.4667170000000  0.5284080000000  0.4186880000000 1.0
C      1  0.4603160000000  0.4706490000000  0.4650260000000 1.0
C      1  0.5353400000000  0.5427250000000  0.4225600000000 1.0
C      1  0.5115220000000  0.5449200000000  0.4064450000000 1.0
C      1  0.5637560000000  0.4920550000000  0.5548770000000 1.0
C      1  0.5235570000000  0.4972670000000  0.5844020000000 1.0
C      1  0.5044460000000  0.4753810000000  0.5931200000000 1.0
C      1  0.5863710000000  0.4471930000000  0.5008680000000 1.0
C      1  0.4342030000000  0.5752210000000  0.5297480000000 1.0
C      1  0.5188760000000  0.5419400000000  0.5839860000000 1.0
C      1  0.4894890000000  0.5231360000000  0.5287760000000 1.0
C      1  0.5456860000000  0.4364210000000  0.5627020000000 1.0
C      1  0.5425600000000  0.4694040000000  0.4770840000000 1.0
C      1  0.4664380000000  0.5482250000000  0.5006190000000 1.0
C      1  0.5933340000000  0.5440110000000  0.5092840000000 1.0
C      1  0.4255990000000  0.4604410000000  0.4519370000000 1.0
C      1  0.4370510000000  0.5511190000000  0.5104240000000 1.0
C      1  0.4762790000000  0.4661950000000  0.4409240000000 1.0
C      1  0.4765290000000  0.4820160000000  0.5892750000000 1.0
C      1  0.4596080000000  0.4781550000000  0.4207600000000 1.0
C      1  0.5099480000000  0.5006930000000  0.4626510000000 1.0
C      1  0.4646470000000  0.4901000000000  0.5468510000000 1.0
C      1  0.4861090000000  0.4450060000000  0.5262660000000 1.0
C      1  0.5670590000000  0.5627390000000  0.4570590000000 1.0
C      1  0.5262800000000  0.5844530000000  0.5397320000000 1.0
C      1  0.4457410000000  0.5553530000000  0.4580030000000 1.0
C      1  0.4918200000000  0.5485540000000  0.5882200000000 1.0
C      1  0.4386260000000  0.4837650000000  0.5611130000000 1.0
END
