TITL C-950526-5686-510 -4.17898747226527e-06 125000 -749.627857645541 0 0 120 (C1) n - 1
REM
REM in /home/bkarasulu/work/CARBON/AIRSS/Generating-Clusters/EDIP-Nigel-Params/with-SteepDescent/Only-C1/SD-CG/HFTN-CG
REM
REM
REM
REM
REM
REM ./C.cell (11c1c37f851c82e70ff6c80c92926a4b)
REM
REM compiler GCC version 9.2.1 20190827 (Red Hat 9.2.1-1)
REM options -cpp -mtune=generic -march=x86-64 -g -O0 -fpre-include=/usr/include/finclude/math-vector-fortran.h
REM seed 738221861 -1449648448 33513195 -713279181 24509050 -2053696028 -1389827594 47199289 -453432546 -2098607154 1054511567 -1452057278 -309427645 -161330914 63605460 -911095629 662209575 1228666875 1599204699 -439244311 1809669321 -881693309 219799525 992138380 -501149636 -716714038 1681484712 2128893332 -718273890 1006955281 1433073379 1883968529 -218513223
REM
CELL 1.54180   50.00000   50.00000   50.00000   90.00000   90.00000   90.00000
LATT -1
SFAC C  
C      1  0.4524730000000  0.4250750000000  0.4598000000000 1.0
C      1  0.5569780000000  0.5437480000000  0.4480930000000 1.0
C      1  0.4999460000000  0.5943100000000  0.5300750000000 1.0
C      1  0.5162030000000  0.5815470000000  0.5511550000000 1.0
C      1  0.4311370000000  0.4426760000000  0.5032010000000 1.0
C      1  0.4667660000000  0.4891020000000  0.5364260000000 1.0
C      1  0.5057630000000  0.4973030000000  0.5996070000000 1.0
C      1  0.4179890000000  0.5446960000000  0.4748090000000 1.0
C      1  0.5116450000000  0.5847970000000  0.5037700000000 1.0
C      1  0.4837850000000  0.4949990000000  0.3985250000000 1.0
C      1  0.5570890000000  0.5577470000000  0.4975280000000 1.0
C      1  0.4527100000000  0.4599730000000  0.4966640000000 1.0
C      1  0.5014380000000  0.6035690000000  0.4835370000000 1.0
C      1  0.5431010000000  0.5775130000000  0.5389230000000 1.0
C      1  0.4787810000000  0.4490470000000  0.4271600000000 1.0
C      1  0.4642870000000  0.5701310000000  0.4303950000000 1.0
C      1  0.4989910000000  0.4947840000000  0.5063320000000 1.0
C      1  0.5227520000000  0.4741920000000  0.5950920000000 1.0
C      1  0.4169340000000  0.5035160000000  0.4980590000000 1.0
C      1  0.4977160000000  0.4458610000000  0.5084130000000 1.0
C      1  0.6001080000000  0.5105660000000  0.5111480000000 1.0
C      1  0.5612550000000  0.5609960000000  0.4693720000000 1.0
C      1  0.4219890000000  0.5292360000000  0.4515460000000 1.0
C      1  0.5465150000000  0.4177080000000  0.5003050000000 1.0
C      1  0.4658330000000  0.5766730000000  0.4614440000000 1.0
C      1  0.4714830000000  0.5869910000000  0.5318030000000 1.0
C      1  0.5453180000000  0.5240960000000  0.5818210000000 1.0
C      1  0.5563090000000  0.4674740000000  0.4408460000000 1.0
C      1  0.4557840000000  0.4686450000000  0.4273520000000 1.0
C      1  0.4915830000000  0.5629190000000  0.4644040000000 1.0
C      1  0.4551840000000  0.5420350000000  0.5578240000000 1.0
C      1  0.4632370000000  0.5385380000000  0.4250060000000 1.0
C      1  0.5616820000000  0.4734360000000  0.5464290000000 1.0
C      1  0.5096500000000  0.4831530000000  0.4050770000000 1.0
C      1  0.4451640000000  0.4798070000000  0.5561200000000 1.0
C      1  0.4823540000000  0.4103910000000  0.5112860000000 1.0
C      1  0.5137290000000  0.4682170000000  0.4626400000000 1.0
C      1  0.4448190000000  0.4706390000000  0.4543090000000 1.0
C      1  0.4825150000000  0.5404180000000  0.5173620000000 1.0
C      1  0.5406120000000  0.5320890000000  0.5020680000000 1.0
C      1  0.5625870000000  0.5005630000000  0.5805530000000 1.0
C      1  0.4758410000000  0.4977110000000  0.5931350000000 1.0
C      1  0.5018500000000  0.5567320000000  0.5565360000000 1.0
C      1  0.5593260000000  0.4583870000000  0.4739350000000 1.0
C      1  0.4709830000000  0.4223780000000  0.4381670000000 1.0
C      1  0.5168530000000  0.4468930000000  0.5348110000000 1.0
C      1  0.4932770000000  0.5690320000000  0.4186750000000 1.0
C      1  0.5531360000000  0.5500670000000  0.5468170000000 1.0
C      1  0.4306710000000  0.4554860000000  0.5456910000000 1.0
C      1  0.4616750000000  0.4515260000000  0.4701030000000 1.0
C      1  0.5021390000000  0.5179600000000  0.5275730000000 1.0
C      1  0.4908490000000  0.4046850000000  0.4454510000000 1.0
C      1  0.5863870000000  0.4942610000000  0.4918460000000 1.0
C      1  0.5112500000000  0.5676920000000  0.4421270000000 1.0
C      1  0.5350190000000  0.4867120000000  0.5364360000000 1.0
C      1  0.5344830000000  0.5248700000000  0.5306850000000 1.0
C      1  0.5015940000000  0.4952270000000  0.4566990000000 1.0
C      1  0.4982320000000  0.5414160000000  0.5811590000000 1.0
C      1  0.4994470000000  0.5574830000000  0.4937150000000 1.0
C      1  0.4129290000000  0.4454660000000  0.4823820000000 1.0
C      1  0.5724520000000  0.4556660000000  0.5228780000000 1.0
C      1  0.4026930000000  0.5091150000000  0.4504580000000 1.0
C      1  0.5535470000000  0.4956710000000  0.4333350000000 1.0
C      1  0.5047070000000  0.4049540000000  0.4930080000000 1.0
C      1  0.4193950000000  0.5438410000000  0.5231590000000 1.0
C      1  0.4661730000000  0.4727890000000  0.5791570000000 1.0
C      1  0.5071320000000  0.4561400000000  0.4176640000000 1.0
C      1  0.5111170000000  0.4817100000000  0.5585890000000 1.0
C      1  0.5309850000000  0.5463900000000  0.4360880000000 1.0
C      1  0.4603410000000  0.4954220000000  0.4169780000000 1.0
C      1  0.5807930000000  0.4962500000000  0.5559290000000 1.0
C      1  0.5183960000000  0.4156180000000  0.5542510000000 1.0
C      1  0.5052530000000  0.4191690000000  0.4662560000000 1.0
C      1  0.4506230000000  0.5196840000000  0.4468020000000 1.0
C      1  0.4718500000000  0.4229800000000  0.5355490000000 1.0
C      1  0.4762070000000  0.5578470000000  0.5414370000000 1.0
C      1  0.5450680000000  0.4249460000000  0.5492040000000 1.0
C      1  0.4910190000000  0.4593100000000  0.5680620000000 1.0
C      1  0.5527480000000  0.4290310000000  0.4742760000000 1.0
C      1  0.5808820000000  0.5451280000000  0.5373040000000 1.0
C      1  0.4907930000000  0.5116250000000  0.4328760000000 1.0
C      1  0.5848070000000  0.5550860000000  0.5098140000000 1.0
C      1  0.5550900000000  0.5491720000000  0.5756830000000 1.0
C      1  0.4947760000000  0.5103690000000  0.4803730000000 1.0
C      1  0.5303170000000  0.5025750000000  0.4156900000000 1.0
C      1  0.4035140000000  0.4911270000000  0.4721350000000 1.0
C      1  0.4107030000000  0.5327490000000  0.4990810000000 1.0
C      1  0.5293990000000  0.3955660000000  0.5023960000000 1.0
C      1  0.5246330000000  0.4807230000000  0.5083860000000 1.0
C      1  0.5181120000000  0.5225210000000  0.5913410000000 1.0
C      1  0.6015260000000  0.5355610000000  0.4953190000000 1.0
C      1  0.4439470000000  0.4307700000000  0.5371890000000 1.0
C      1  0.4576080000000  0.5138730000000  0.5206050000000 1.0
C      1  0.4916470000000  0.4306740000000  0.5565830000000 1.0
C      1  0.5319180000000  0.4255350000000  0.4537650000000 1.0
C      1  0.5286150000000  0.4529470000000  0.4398810000000 1.0
C      1  0.4644040000000  0.5171050000000  0.4748350000000 1.0
C      1  0.5416440000000  0.5812230000000  0.5094230000000 1.0
C      1  0.4092070000000  0.4912180000000  0.5269700000000 1.0
C      1  0.5792190000000  0.4662990000000  0.4953030000000 1.0
C      1  0.4749860000000  0.4665390000000  0.5152140000000 1.0
C      1  0.5844560000000  0.5165130000000  0.5348110000000 1.0
C      1  0.4615090000000  0.5950150000000  0.5067120000000 1.0
C      1  0.5667980000000  0.5164360000000  0.4499280000000 1.0
C      1  0.4159270000000  0.4659240000000  0.4627150000000 1.0
C      1  0.5344230000000  0.4725560000000  0.4826090000000 1.0
C      1  0.5241700000000  0.5313600000000  0.4126030000000 1.0
C      1  0.5158570000000  0.5333740000000  0.4862020000000 1.0
C      1  0.5481820000000  0.4752150000000  0.5821890000000 1.0
C      1  0.5885900000000  0.5114460000000  0.4683840000000 1.0
C      1  0.5564030000000  0.4312500000000  0.5237890000000 1.0
C      1  0.4476280000000  0.5039290000000  0.4952310000000 1.0
C      1  0.4728270000000  0.5993020000000  0.4811710000000 1.0
C      1  0.4899000000000  0.5031530000000  0.5512590000000 1.0
C      1  0.4944010000000  0.4473670000000  0.4750930000000 1.0
C      1  0.4244170000000  0.5028230000000  0.5499220000000 1.0
C      1  0.4750390000000  0.5237710000000  0.5742070000000 1.0
C      1  0.4064940000000  0.4635200000000  0.5328420000000 1.0
C      1  0.4373700000000  0.5271970000000  0.5387030000000 1.0
C      1  0.4972270000000  0.5417770000000  0.4061610000000 1.0
END
