TITL C-950521-2237-495 1.34877141062e-07 125000 -631.557729507493 0 0 102 (C1) n - 1
REM
REM in /home/bkarasulu/work/CARBON/AIRSS/Generating-Clusters/EDIP-Nigel-Params/with-SteepDescent/Only-C1/SD-CG/HFTN-CG
REM
REM
REM
REM
REM
REM ./C.cell (11c1c37f851c82e70ff6c80c92926a4b)
REM
REM compiler GCC version 9.2.1 20190827 (Red Hat 9.2.1-1)
REM options -cpp -mtune=generic -march=x86-64 -g -O0 -fpre-include=/usr/include/finclude/math-vector-fortran.h
REM seed 1451885991 1781021785 -359697560 746482968 -41604949 907459434 1495560291 -793287978 -1401860623 689410916 -1470971793 1781293197 -1657038976 -1777480064 -1006260236 2143916152 -2085053176 872770664 1792596751 1612502614 -869538557 -1054525929 -1407118283 -818862241 1051164339 368926767 -1860479643 761304794 601301039 1203603733 392420121 -170256837 1352394778
REM
CELL 1.54180   50.00000   50.00000   50.00000   90.00000   90.00000   90.00000
LATT -1
SFAC C  
C      1  0.5536990000000  0.4023740000000  0.4851650000000 1.0
C      1  0.4462260000000  0.4727290000000  0.5574640000000 1.0
C      1  0.4574760000000  0.4847540000000  0.5118700000000 1.0
C      1  0.4938020000000  0.4702450000000  0.5821750000000 1.0
C      1  0.4938160000000  0.4982590000000  0.5840860000000 1.0
C      1  0.5629000000000  0.5151730000000  0.4434300000000 1.0
C      1  0.5491980000000  0.5387400000000  0.4523590000000 1.0
C      1  0.5781390000000  0.4655760000000  0.5224100000000 1.0
C      1  0.5468190000000  0.5489390000000  0.4952040000000 1.0
C      1  0.4617460000000  0.5383170000000  0.4125680000000 1.0
C      1  0.5294220000000  0.4017030000000  0.4712890000000 1.0
C      1  0.5397500000000  0.5255750000000  0.5449240000000 1.0
C      1  0.4724380000000  0.5125620000000  0.5705950000000 1.0
C      1  0.5179860000000  0.4669550000000  0.5096450000000 1.0
C      1  0.5372950000000  0.4875450000000  0.4981910000000 1.0
C      1  0.4893350000000  0.5351530000000  0.4075860000000 1.0
C      1  0.4856880000000  0.4342730000000  0.5478380000000 1.0
C      1  0.4908570000000  0.4130380000000  0.5032100000000 1.0
C      1  0.5070330000000  0.5834550000000  0.4898230000000 1.0
C      1  0.5012520000000  0.5100520000000  0.4472110000000 1.0
C      1  0.5197910000000  0.5105460000000  0.5814630000000 1.0
C      1  0.4845930000000  0.5903670000000  0.5326240000000 1.0
C      1  0.5906150000000  0.5030830000000  0.4869740000000 1.0
C      1  0.4490040000000  0.4331440000000  0.4771460000000 1.0
C      1  0.5050890000000  0.4586910000000  0.4609750000000 1.0
C      1  0.5687170000000  0.4440800000000  0.4678220000000 1.0
C      1  0.5670540000000  0.5467550000000  0.5171010000000 1.0
C      1  0.5011110000000  0.5540850000000  0.5656160000000 1.0
C      1  0.5033760000000  0.4801110000000  0.5297650000000 1.0
C      1  0.4486610000000  0.5290470000000  0.4914690000000 1.0
C      1  0.5791370000000  0.5205810000000  0.5184720000000 1.0
C      1  0.4519550000000  0.4344190000000  0.5265530000000 1.0
C      1  0.5325550000000  0.4467730000000  0.5616020000000 1.0
C      1  0.5292410000000  0.5515310000000  0.4356230000000 1.0
C      1  0.4654780000000  0.5432900000000  0.5363420000000 1.0
C      1  0.4205270000000  0.5406500000000  0.5470470000000 1.0
C      1  0.5475190000000  0.5030320000000  0.4233230000000 1.0
C      1  0.5929330000000  0.4811270000000  0.5042780000000 1.0
C      1  0.4391040000000  0.5563550000000  0.5332280000000 1.0
C      1  0.4750110000000  0.5414800000000  0.5645000000000 1.0
C      1  0.4556180000000  0.5157650000000  0.4286360000000 1.0
C      1  0.5314360000000  0.5740020000000  0.5035050000000 1.0
C      1  0.4633670000000  0.4630290000000  0.5349800000000 1.0
C      1  0.5476120000000  0.4431370000000  0.4462490000000 1.0
C      1  0.5031310000000  0.4207590000000  0.5282830000000 1.0
C      1  0.4963910000000  0.5109750000000  0.4797560000000 1.0
C      1  0.4970730000000  0.4620280000000  0.4889080000000 1.0
C      1  0.4362710000000  0.5582900000000  0.5037920000000 1.0
C      1  0.4986240000000  0.4327120000000  0.4491380000000 1.0
C      1  0.4875680000000  0.5479050000000  0.5141150000000 1.0
C      1  0.4563750000000  0.5775510000000  0.4913580000000 1.0
C      1  0.5270310000000  0.4381070000000  0.5246260000000 1.0
C      1  0.4221930000000  0.4757620000000  0.5270610000000 1.0
C      1  0.5054650000000  0.5768700000000  0.5467080000000 1.0
C      1  0.4256370000000  0.4474030000000  0.5173620000000 1.0
C      1  0.4841820000000  0.5583460000000  0.4533780000000 1.0
C      1  0.5013520000000  0.5389780000000  0.4350330000000 1.0
C      1  0.5680980000000  0.4258980000000  0.4899700000000 1.0
C      1  0.5055930000000  0.3974190000000  0.4852080000000 1.0
C      1  0.4776070000000  0.4838470000000  0.4857730000000 1.0
C      1  0.4308040000000  0.5148180000000  0.5457750000000 1.0
C      1  0.5616480000000  0.5547680000000  0.4711590000000 1.0
C      1  0.5483600000000  0.4715210000000  0.5655140000000 1.0
C      1  0.4118760000000  0.5217760000000  0.5024570000000 1.0
C      1  0.5317470000000  0.4688860000000  0.4526870000000 1.0
C      1  0.5149390000000  0.5256140000000  0.5232460000000 1.0
C      1  0.5641780000000  0.5087730000000  0.5397260000000 1.0
C      1  0.4088820000000  0.5423570000000  0.4821120000000 1.0
C      1  0.5272090000000  0.5782340000000  0.4443830000000 1.0
C      1  0.4764640000000  0.4954120000000  0.4346740000000 1.0
C      1  0.5221090000000  0.5402350000000  0.5815660000000 1.0
C      1  0.4631580000000  0.4763230000000  0.4581300000000 1.0
C      1  0.5252220000000  0.4929270000000  0.4366780000000 1.0
C      1  0.4943390000000  0.5096320000000  0.3964840000000 1.0
C      1  0.4274800000000  0.4906490000000  0.4564380000000 1.0
C      1  0.5405860000000  0.4920180000000  0.5831580000000 1.0
C      1  0.5522370000000  0.4768790000000  0.4742940000000 1.0
C      1  0.5260860000000  0.4212710000000  0.4492900000000 1.0
C      1  0.5628170000000  0.4804870000000  0.5421600000000 1.0
C      1  0.4461300000000  0.5003940000000  0.5652150000000 1.0
C      1  0.4945420000000  0.5058350000000  0.5327730000000 1.0
C      1  0.5252360000000  0.5159830000000  0.4955830000000 1.0
C      1  0.4565900000000  0.5630900000000  0.4648140000000 1.0
C      1  0.5707290000000  0.4374810000000  0.5171870000000 1.0
C      1  0.4783740000000  0.5333430000000  0.4894090000000 1.0
C      1  0.4154300000000  0.4932930000000  0.5038290000000 1.0
C      1  0.4304310000000  0.5442410000000  0.4604910000000 1.0
C      1  0.4632820000000  0.4461150000000  0.4547450000000 1.0
C      1  0.5312320000000  0.5757900000000  0.5329340000000 1.0
C      1  0.5043030000000  0.5781760000000  0.4608910000000 1.0
C      1  0.4631080000000  0.4222290000000  0.5014090000000 1.0
C      1  0.4646920000000  0.5111530000000  0.5268670000000 1.0
C      1  0.4856710000000  0.4861180000000  0.4082280000000 1.0
C      1  0.5484030000000  0.5496600000000  0.5730490000000 1.0
C      1  0.5524240000000  0.5573710000000  0.5430690000000 1.0
C      1  0.4375350000000  0.5169950000000  0.4504040000000 1.0
C      1  0.4261490000000  0.4788990000000  0.4819570000000 1.0
C      1  0.5030470000000  0.4474870000000  0.5685040000000 1.0
C      1  0.4272880000000  0.4502880000000  0.4878690000000 1.0
C      1  0.5725090000000  0.4967830000000  0.4650180000000 1.0
C      1  0.5523630000000  0.4261690000000  0.5362680000000 1.0
C      1  0.4834220000000  0.5771780000000  0.5067510000000 1.0
END
