TITL C-951335-1172-275 -8.2791075199097e-09 125000 -286.50841199816 0 0 47 (C1) n - 1
REM
REM in /home/bkarasulu/work/CARBON/AIRSS/Generating-Clusters/EDIP-Nigel-Params/with-SteepDescent/Only-C1/SD-CG/HFTN-CG
REM
REM
REM
REM
REM
REM ./C.cell (11c1c37f851c82e70ff6c80c92926a4b)
REM
REM compiler GCC version 9.2.1 20190827 (Red Hat 9.2.1-1)
REM options -cpp -mtune=generic -march=x86-64 -g -O0 -fpre-include=/usr/include/finclude/math-vector-fortran.h
REM seed -774866846 -716977283 -1531527170 656402024 -1710718260 1883787769 -1386731504 1608397532 1927110602 -1355036383 -1685198544 1707554089 1625766711 -331312220 -1252008411 1527226196 1508796546 -359133031 1792998244 1802270943 288222945 647497469 -2001971208 1126907793 73426883 2012456583 -81457266 1012007849 13087559 24633671 269571702 934149215 331811032
REM
CELL 1.54180   50.00000   50.00000   50.00000   90.00000   90.00000   90.00000
LATT -1
SFAC C  
C      1  0.5295320000000  0.4578430000000  0.5031930000000 1.0
C      1  0.4997930000000  0.5413470000000  0.5620470000000 1.0
C      1  0.4446420000000  0.5159270000000  0.5429380000000 1.0
C      1  0.4679760000000  0.4901940000000  0.4991100000000 1.0
C      1  0.4872480000000  0.5432990000000  0.4678330000000 1.0
C      1  0.4618900000000  0.5214190000000  0.4999140000000 1.0
C      1  0.4852730000000  0.5014760000000  0.4537820000000 1.0
C      1  0.5341280000000  0.5315940000000  0.5218050000000 1.0
C      1  0.5211750000000  0.4606540000000  0.5502580000000 1.0
C      1  0.4668380000000  0.5096890000000  0.5572850000000 1.0
C      1  0.5258730000000  0.4752250000000  0.4357400000000 1.0
C      1  0.4866110000000  0.5390940000000  0.5140080000000 1.0
C      1  0.4762700000000  0.4535270000000  0.4726800000000 1.0
C      1  0.5213390000000  0.5650640000000  0.4946050000000 1.0
C      1  0.4488710000000  0.4555280000000  0.4773120000000 1.0
C      1  0.4354210000000  0.4953550000000  0.4591950000000 1.0
C      1  0.4311280000000  0.4770360000000  0.4796160000000 1.0
C      1  0.5093540000000  0.5188880000000  0.5077190000000 1.0
C      1  0.5422560000000  0.4651040000000  0.5293790000000 1.0
C      1  0.5565760000000  0.4917190000000  0.5283840000000 1.0
C      1  0.4996760000000  0.4445570000000  0.5367470000000 1.0
C      1  0.4598130000000  0.5328300000000  0.4716370000000 1.0
C      1  0.5090590000000  0.4373600000000  0.5089670000000 1.0
C      1  0.4297180000000  0.4891010000000  0.5059870000000 1.0
C      1  0.4938980000000  0.5142520000000  0.5634020000000 1.0
C      1  0.4741220000000  0.4566150000000  0.5355460000000 1.0
C      1  0.4366630000000  0.5159110000000  0.5160780000000 1.0
C      1  0.5068550000000  0.4905390000000  0.5216670000000 1.0
C      1  0.4931990000000  0.4907530000000  0.4274270000000 1.0
C      1  0.5103410000000  0.5228040000000  0.4748960000000 1.0
C      1  0.4982680000000  0.5555500000000  0.5381490000000 1.0
C      1  0.5159350000000  0.4967540000000  0.5509750000000 1.0
C      1  0.5545300000000  0.5303320000000  0.4994840000000 1.0
C      1  0.5186680000000  0.4814020000000  0.4856750000000 1.0
C      1  0.4877120000000  0.4808100000000  0.4766580000000 1.0
C      1  0.5183270000000  0.4930470000000  0.4156940000000 1.0
C      1  0.4921100000000  0.5596750000000  0.4917780000000 1.0
C      1  0.5368090000000  0.4831350000000  0.4609310000000 1.0
C      1  0.5410250000000  0.5118650000000  0.5443300000000 1.0
C      1  0.5250100000000  0.5607470000000  0.5254320000000 1.0
C      1  0.4566870000000  0.5118500000000  0.4521480000000 1.0
C      1  0.4790360000000  0.4821740000000  0.5248680000000 1.0
C      1  0.5613800000000  0.5018930000000  0.5009010000000 1.0
C      1  0.5795220000000  0.4899470000000  0.4828840000000 1.0
C      1  0.5642120000000  0.4786240000000  0.4636020000000 1.0
C      1  0.5356490000000  0.5421800000000  0.4786070000000 1.0
C      1  0.4895830000000  0.4353130000000  0.4887250000000 1.0
END
