TITL C-951341-1326-650 2.91296373797906e-06 125000 -908.180961732198 0 0 145 (C1) n - 1
REM
REM in /home/bkarasulu/work/CARBON/AIRSS/Generating-Clusters/EDIP-Nigel-Params/with-SteepDescent/Only-C1/SD-CG/HFTN-CG
REM
REM
REM
REM
REM
REM ./C.cell (11c1c37f851c82e70ff6c80c92926a4b)
REM
REM compiler GCC version 9.2.1 20190827 (Red Hat 9.2.1-1)
REM options -cpp -mtune=generic -march=x86-64 -g -O0 -fpre-include=/usr/include/finclude/math-vector-fortran.h
REM seed -1689897890 2000046188 1402116351 -829150008 264033687 1531347396 -304785161 -858811261 -401280076 1514129976 -1275004609 1581693778 1239859002 -1919894813 1624013691 -1155294406 -1548343525 -1052194867 1944898635 70316988 -1878660635 1895627996 1649292342 888801205 -1724716573 -1683697108 1069275582 377478058 -297703584 717966637 -994756958 1251431582 -1453464403
REM
CELL 1.54180   50.00000   50.00000   50.00000   90.00000   90.00000   90.00000
LATT -1
SFAC C  
C      1  0.5851550000000  0.4855180000000  0.5483500000000 1.0
C      1  0.5253670000000  0.4477430000000  0.5631410000000 1.0
C      1  0.5499890000000  0.5145470000000  0.4167640000000 1.0
C      1  0.4196490000000  0.4930710000000  0.4475190000000 1.0
C      1  0.3943170000000  0.4908400000000  0.5065090000000 1.0
C      1  0.5372550000000  0.4940810000000  0.4919910000000 1.0
C      1  0.5383830000000  0.5783200000000  0.5143220000000 1.0
C      1  0.5722040000000  0.4757000000000  0.5188250000000 1.0
C      1  0.3983950000000  0.4655450000000  0.4937400000000 1.0
C      1  0.5746270000000  0.5318160000000  0.5152640000000 1.0
C      1  0.5110000000000  0.4896670000000  0.4448300000000 1.0
C      1  0.4621540000000  0.4934430000000  0.4608990000000 1.0
C      1  0.4781810000000  0.5057840000000  0.4103120000000 1.0
C      1  0.4955170000000  0.5404030000000  0.5808570000000 1.0
C      1  0.4175020000000  0.5598840000000  0.4902670000000 1.0
C      1  0.5504600000000  0.4575310000000  0.5519320000000 1.0
C      1  0.5001240000000  0.4535060000000  0.5479750000000 1.0
C      1  0.4354110000000  0.5100520000000  0.4301600000000 1.0
C      1  0.4350470000000  0.4331640000000  0.4874160000000 1.0
C      1  0.4589250000000  0.4324440000000  0.5586230000000 1.0
C      1  0.5020960000000  0.4634710000000  0.4540940000000 1.0
C      1  0.5534230000000  0.5173310000000  0.4475350000000 1.0
C      1  0.5144270000000  0.4207350000000  0.4772040000000 1.0
C      1  0.5218340000000  0.5123980000000  0.4086880000000 1.0
C      1  0.5407930000000  0.5082560000000  0.5367610000000 1.0
C      1  0.4465060000000  0.5276100000000  0.4831060000000 1.0
C      1  0.4944970000000  0.5970300000000  0.5314960000000 1.0
C      1  0.5010240000000  0.5766470000000  0.4457170000000 1.0
C      1  0.5954730000000  0.5374350000000  0.4504030000000 1.0
C      1  0.5006840000000  0.4658650000000  0.5176310000000 1.0
C      1  0.5456760000000  0.5244320000000  0.5844180000000 1.0
C      1  0.4127280000000  0.4500830000000  0.4746600000000 1.0
C      1  0.5161270000000  0.5216560000000  0.5918300000000 1.0
C      1  0.4210160000000  0.4629080000000  0.4488130000000 1.0
C      1  0.5806420000000  0.4894500000000  0.4457170000000 1.0
C      1  0.4191840000000  0.5648150000000  0.5415090000000 1.0
C      1  0.4703040000000  0.4690310000000  0.5035040000000 1.0
C      1  0.5521610000000  0.5345690000000  0.5361290000000 1.0
C      1  0.4880350000000  0.4630480000000  0.4080680000000 1.0
C      1  0.4979420000000  0.4452940000000  0.4304660000000 1.0
C      1  0.5006050000000  0.4772690000000  0.5911770000000 1.0
C      1  0.5449180000000  0.4141230000000  0.4670760000000 1.0
C      1  0.4670760000000  0.5885210000000  0.4904330000000 1.0
C      1  0.5509300000000  0.4103340000000  0.5403940000000 1.0
C      1  0.4821070000000  0.4152610000000  0.4650550000000 1.0
C      1  0.4844850000000  0.5051980000000  0.4406990000000 1.0
C      1  0.5972630000000  0.4577210000000  0.5516870000000 1.0
C      1  0.4873230000000  0.5540580000000  0.5341930000000 1.0
C      1  0.5828870000000  0.5428540000000  0.5592650000000 1.0
C      1  0.5679740000000  0.5419670000000  0.4547360000000 1.0
C      1  0.4848090000000  0.4285270000000  0.5462140000000 1.0
C      1  0.5646410000000  0.4883980000000  0.4180380000000 1.0
C      1  0.5292300000000  0.5062240000000  0.4638590000000 1.0
C      1  0.5230420000000  0.5093190000000  0.5135300000000 1.0
C      1  0.6065310000000  0.5035680000000  0.5355170000000 1.0
C      1  0.4271140000000  0.5051650000000  0.4734500000000 1.0
C      1  0.6116630000000  0.4923370000000  0.5071310000000 1.0
C      1  0.5270880000000  0.4650620000000  0.4972560000000 1.0
C      1  0.5990850000000  0.5106580000000  0.4584440000000 1.0
C      1  0.4752600000000  0.4943130000000  0.4879300000000 1.0
C      1  0.4511340000000  0.4467130000000  0.4315230000000 1.0
C      1  0.4056940000000  0.4856910000000  0.5572620000000 1.0
C      1  0.5861210000000  0.4504120000000  0.4810820000000 1.0
C      1  0.4246370000000  0.4576740000000  0.5285890000000 1.0
C      1  0.4586610000000  0.4657090000000  0.4090450000000 1.0
C      1  0.4243130000000  0.5758930000000  0.5142780000000 1.0
C      1  0.5396450000000  0.4724830000000  0.4249990000000 1.0
C      1  0.4089960000000  0.5315570000000  0.5335070000000 1.0
C      1  0.5637540000000  0.4309820000000  0.4878140000000 1.0
C      1  0.6089360000000  0.4475180000000  0.5277920000000 1.0
C      1  0.5218030000000  0.4516770000000  0.4710210000000 1.0
C      1  0.5741860000000  0.4424590000000  0.5603980000000 1.0
C      1  0.5757220000000  0.5584690000000  0.5009650000000 1.0
C      1  0.5340450000000  0.4268920000000  0.5248780000000 1.0
C      1  0.4863620000000  0.5422480000000  0.5070440000000 1.0
C      1  0.5142550000000  0.5362560000000  0.4982990000000 1.0
C      1  0.5465190000000  0.4552710000000  0.4504190000000 1.0
C      1  0.4269040000000  0.4308820000000  0.5161380000000 1.0
C      1  0.4656970000000  0.5453450000000  0.4665200000000 1.0
C      1  0.4906440000000  0.5337850000000  0.4502680000000 1.0
C      1  0.5436650000000  0.4877420000000  0.5602760000000 1.0
C      1  0.5006490000000  0.4943400000000  0.5241640000000 1.0
C      1  0.4612290000000  0.5535030000000  0.4236320000000 1.0
C      1  0.4444540000000  0.4127050000000  0.5303820000000 1.0
C      1  0.5526690000000  0.5469570000000  0.5651020000000 1.0
C      1  0.5485620000000  0.4268160000000  0.4396530000000 1.0
C      1  0.4397210000000  0.4720270000000  0.5865460000000 1.0
C      1  0.5043670000000  0.5005980000000  0.6053750000000 1.0
C      1  0.3995490000000  0.5026720000000  0.5340200000000 1.0
C      1  0.5102280000000  0.6097600000000  0.4842360000000 1.0
C      1  0.4788500000000  0.5617280000000  0.4867580000000 1.0
C      1  0.4508690000000  0.5866600000000  0.5146990000000 1.0
C      1  0.5250250000000  0.4651340000000  0.5862000000000 1.0
C      1  0.4586270000000  0.4058100000000  0.4817310000000 1.0
C      1  0.4557410000000  0.5051530000000  0.5300080000000 1.0
C      1  0.4755460000000  0.4269670000000  0.4381770000000 1.0
C      1  0.5962650000000  0.5315850000000  0.5353530000000 1.0
C      1  0.4714210000000  0.5787080000000  0.4383710000000 1.0
C      1  0.5310020000000  0.4551330000000  0.4024340000000 1.0
C      1  0.4672670000000  0.5389100000000  0.5920040000000 1.0
C      1  0.4660810000000  0.5177080000000  0.5034440000000 1.0
C      1  0.4245190000000  0.4942770000000  0.5788190000000 1.0
C      1  0.4670830000000  0.5801060000000  0.5392820000000 1.0
C      1  0.4585860000000  0.4633560000000  0.4574420000000 1.0
C      1  0.4607420000000  0.4493810000000  0.4831950000000 1.0
C      1  0.4521070000000  0.5862800000000  0.4611080000000 1.0
C      1  0.4871270000000  0.4178370000000  0.5194940000000 1.0
C      1  0.4505520000000  0.4953180000000  0.4086580000000 1.0
C      1  0.5186400000000  0.5774300000000  0.5363510000000 1.0
C      1  0.5078850000000  0.5387040000000  0.4103980000000 1.0
C      1  0.4365750000000  0.5407770000000  0.4346400000000 1.0
C      1  0.4433890000000  0.5707660000000  0.5583090000000 1.0
C      1  0.5080810000000  0.5664540000000  0.5806040000000 1.0
C      1  0.4844520000000  0.4743540000000  0.5660450000000 1.0
C      1  0.5308410000000  0.5645530000000  0.4891290000000 1.0
C      1  0.4904940000000  0.5318260000000  0.5534200000000 1.0
C      1  0.4466210000000  0.5570900000000  0.5839300000000 1.0
C      1  0.4370660000000  0.5244510000000  0.5440180000000 1.0
C      1  0.4791590000000  0.5359070000000  0.4070630000000 1.0
C      1  0.5155930000000  0.5564080000000  0.4314220000000 1.0
C      1  0.4486230000000  0.4758150000000  0.5235330000000 1.0
C      1  0.4598940000000  0.4586860000000  0.5725510000000 1.0
C      1  0.5709860000000  0.4670700000000  0.4628060000000 1.0
C      1  0.5737950000000  0.4148590000000  0.5543530000000 1.0
C      1  0.5660260000000  0.5779380000000  0.5190310000000 1.0
C      1  0.4644810000000  0.4022900000000  0.5109730000000 1.0
C      1  0.5978320000000  0.4645360000000  0.5068410000000 1.0
C      1  0.6011560000000  0.5100370000000  0.4869460000000 1.0
C      1  0.5139290000000  0.5845150000000  0.4722260000000 1.0
C      1  0.5638710000000  0.5006420000000  0.5771150000000 1.0
C      1  0.5132480000000  0.4151290000000  0.5074440000000 1.0
C      1  0.4065430000000  0.4583210000000  0.5510830000000 1.0
C      1  0.4823280000000  0.5031910000000  0.5459060000000 1.0
C      1  0.5125610000000  0.5285160000000  0.4701230000000 1.0
C      1  0.5301240000000  0.5698920000000  0.5635540000000 1.0
C      1  0.4893040000000  0.6057330000000  0.5023550000000 1.0
C      1  0.5667980000000  0.5003250000000  0.5013860000000 1.0
C      1  0.5584210000000  0.5578020000000  0.4777250000000 1.0
C      1  0.4390160000000  0.5205970000000  0.5734560000000 1.0
C      1  0.4312030000000  0.5627340000000  0.4611980000000 1.0
C      1  0.5492510000000  0.4479560000000  0.5093040000000 1.0
C      1  0.5082000000000  0.4851650000000  0.3972450000000 1.0
C      1  0.4080110000000  0.5356160000000  0.5035520000000 1.0
C      1  0.5248200000000  0.4309800000000  0.4197710000000 1.0
C      1  0.4019890000000  0.5118470000000  0.4882580000000 1.0
END
