TITL C-950536-5891-732 -4.2836875391627e-08 125000 -984.597277597979 0 0 158 (C1) n - 1
REM
REM in /home/bkarasulu/work/CARBON/AIRSS/Generating-Clusters/EDIP-Nigel-Params/with-SteepDescent/Only-C1/SD-CG/HFTN-CG
REM
REM
REM
REM
REM
REM ./C.cell (11c1c37f851c82e70ff6c80c92926a4b)
REM
REM compiler GCC version 9.2.1 20190827 (Red Hat 9.2.1-1)
REM options -cpp -mtune=generic -march=x86-64 -g -O0 -fpre-include=/usr/include/finclude/math-vector-fortran.h
REM seed -117889628 -966871425 764409616 -137791351 -1207382899 675490536 597072216 -906286181 -1312122342 1624071342 277331093 1791690679 -1211856240 -1614422568 1438191109 1143755465 1262774281 -1979474647 -1432903829 -1551004185 -181325390 196355175 -60231596 -1898480763 576752050 -1506469964 -549592502 880351990 -809513028 -1436290592 1626992913 -2065211968 650993793
REM
CELL 1.54180   50.00000   50.00000   50.00000   90.00000   90.00000   90.00000
LATT -1
SFAC C  
C      1  0.5430150000000  0.5392840000000  0.4029820000000 1.0
C      1  0.4355750000000  0.4932270000000  0.4093020000000 1.0
C      1  0.5067790000000  0.5924360000000  0.4660110000000 1.0
C      1  0.5276350000000  0.4850910000000  0.4869590000000 1.0
C      1  0.5741670000000  0.4729850000000  0.4282520000000 1.0
C      1  0.5055780000000  0.4739930000000  0.3924360000000 1.0
C      1  0.5517970000000  0.4934560000000  0.5280290000000 1.0
C      1  0.4685750000000  0.5825390000000  0.5407110000000 1.0
C      1  0.5675620000000  0.4775720000000  0.5938600000000 1.0
C      1  0.4558910000000  0.3984660000000  0.4668710000000 1.0
C      1  0.5142610000000  0.5910060000000  0.5539960000000 1.0
C      1  0.4632410000000  0.4432930000000  0.5006130000000 1.0
C      1  0.5327110000000  0.5537180000000  0.5833310000000 1.0
C      1  0.4200640000000  0.5329160000000  0.4624710000000 1.0
C      1  0.5016910000000  0.6085990000000  0.5105410000000 1.0
C      1  0.4599070000000  0.5180460000000  0.5451770000000 1.0
C      1  0.4860680000000  0.4258340000000  0.5758410000000 1.0
C      1  0.4958120000000  0.5410060000000  0.4070390000000 1.0
C      1  0.5670880000000  0.4997760000000  0.4989270000000 1.0
C      1  0.4595140000000  0.5059480000000  0.4761680000000 1.0
C      1  0.4338260000000  0.4666840000000  0.5726810000000 1.0
C      1  0.5395410000000  0.4925080000000  0.4609730000000 1.0
C      1  0.4181270000000  0.5064850000000  0.5550780000000 1.0
C      1  0.5716440000000  0.4198190000000  0.5082310000000 1.0
C      1  0.4051950000000  0.5075800000000  0.4669300000000 1.0
C      1  0.4943980000000  0.5073700000000  0.4397020000000 1.0
C      1  0.4696840000000  0.5401340000000  0.5902990000000 1.0
C      1  0.4007970000000  0.5375270000000  0.5038560000000 1.0
C      1  0.5636690000000  0.4477330000000  0.5926420000000 1.0
C      1  0.5272430000000  0.5787550000000  0.4837000000000 1.0
C      1  0.4577400000000  0.4903130000000  0.5286680000000 1.0
C      1  0.4156700000000  0.4619550000000  0.4834060000000 1.0
C      1  0.4948090000000  0.4982750000000  0.5793010000000 1.0
C      1  0.5751740000000  0.5317030000000  0.5660500000000 1.0
C      1  0.5107730000000  0.5304510000000  0.4516770000000 1.0
C      1  0.5118110000000  0.4072380000000  0.5260890000000 1.0
C      1  0.5177300000000  0.4243450000000  0.4500200000000 1.0
C      1  0.4377910000000  0.5130820000000  0.5763380000000 1.0
C      1  0.5051680000000  0.4365390000000  0.5957140000000 1.0
C      1  0.5335290000000  0.4444280000000  0.5835300000000 1.0
C      1  0.4687890000000  0.4424120000000  0.4498310000000 1.0
C      1  0.5572480000000  0.4520880000000  0.4632830000000 1.0
C      1  0.4946760000000  0.5781530000000  0.4437600000000 1.0
C      1  0.5247990000000  0.4506140000000  0.4612350000000 1.0
C      1  0.5201680000000  0.4605180000000  0.4150500000000 1.0
C      1  0.4052300000000  0.5283170000000  0.5409720000000 1.0
C      1  0.5066470000000  0.4585170000000  0.5442430000000 1.0
C      1  0.5571890000000  0.5691470000000  0.5409010000000 1.0
C      1  0.5362700000000  0.4749030000000  0.5904680000000 1.0
C      1  0.5317530000000  0.5332320000000  0.5032050000000 1.0
C      1  0.5146860000000  0.5000850000000  0.3864800000000 1.0
C      1  0.5385520000000  0.5614110000000  0.4234460000000 1.0
C      1  0.4520400000000  0.4609260000000  0.5484810000000 1.0
C      1  0.4621380000000  0.6122180000000  0.4773250000000 1.0
C      1  0.4224510000000  0.5738710000000  0.5342030000000 1.0
C      1  0.5552680000000  0.5692820000000  0.4729970000000 1.0
C      1  0.4784350000000  0.4894440000000  0.4584200000000 1.0
C      1  0.5218030000000  0.5059620000000  0.5068430000000 1.0
C      1  0.5918190000000  0.5152640000000  0.4539760000000 1.0
C      1  0.5545340000000  0.4906360000000  0.4136920000000 1.0
C      1  0.5548280000000  0.5274010000000  0.4873210000000 1.0
C      1  0.5099340000000  0.5544190000000  0.4314270000000 1.0
C      1  0.4276590000000  0.5458980000000  0.5372950000000 1.0
C      1  0.4338020000000  0.4550440000000  0.4113380000000 1.0
C      1  0.3906220000000  0.5124280000000  0.4915560000000 1.0
C      1  0.5339220000000  0.4150860000000  0.5435820000000 1.0
C      1  0.5671050000000  0.5291290000000  0.4425550000000 1.0
C      1  0.5051610000000  0.4113540000000  0.4723210000000 1.0
C      1  0.4943240000000  0.4628470000000  0.4700040000000 1.0
C      1  0.4531530000000  0.5616210000000  0.4261710000000 1.0
C      1  0.5345800000000  0.5854270000000  0.5341250000000 1.0
C      1  0.5771470000000  0.4662530000000  0.4850950000000 1.0
C      1  0.4579860000000  0.5595530000000  0.5023250000000 1.0
C      1  0.4867230000000  0.4606310000000  0.4989260000000 1.0
C      1  0.5501040000000  0.5129010000000  0.5740880000000 1.0
C      1  0.4804810000000  0.4464580000000  0.5552220000000 1.0
C      1  0.5342590000000  0.5259490000000  0.5964330000000 1.0
C      1  0.5644350000000  0.4237860000000  0.4602510000000 1.0
C      1  0.4350300000000  0.4378290000000  0.4886530000000 1.0
C      1  0.4833710000000  0.5685710000000  0.5870680000000 1.0
C      1  0.5105920000000  0.5084510000000  0.6041690000000 1.0
C      1  0.5421080000000  0.4407660000000  0.4094120000000 1.0
C      1  0.5174260000000  0.4805680000000  0.6134520000000 1.0
C      1  0.4666640000000  0.5510770000000  0.4718660000000 1.0
C      1  0.4836150000000  0.3925910000000  0.4692220000000 1.0
C      1  0.4475750000000  0.4863640000000  0.5895390000000 1.0
C      1  0.5532730000000  0.4145990000000  0.4863780000000 1.0
C      1  0.5969700000000  0.5032560000000  0.4989330000000 1.0
C      1  0.5661870000000  0.4435320000000  0.4266650000000 1.0
C      1  0.5313760000000  0.4838950000000  0.4332980000000 1.0
C      1  0.4390240000000  0.5362630000000  0.5110930000000 1.0
C      1  0.5076940000000  0.4297340000000  0.4225510000000 1.0
C      1  0.4325840000000  0.4443420000000  0.5324470000000 1.0
C      1  0.5141020000000  0.5290060000000  0.5432740000000 1.0
C      1  0.4459630000000  0.5826730000000  0.5208490000000 1.0
C      1  0.5848610000000  0.4469610000000  0.5081900000000 1.0
C      1  0.4473740000000  0.5077750000000  0.5040470000000 1.0
C      1  0.4339620000000  0.4754330000000  0.4334170000000 1.0
C      1  0.5432190000000  0.5211490000000  0.4602280000000 1.0
C      1  0.4890680000000  0.5300490000000  0.5277430000000 1.0
C      1  0.4657700000000  0.5726420000000  0.4500580000000 1.0
C      1  0.4762060000000  0.4766320000000  0.5871750000000 1.0
C      1  0.5602960000000  0.5593490000000  0.4447120000000 1.0
C      1  0.4622050000000  0.4483370000000  0.4036580000000 1.0
C      1  0.4703070000000  0.4144390000000  0.4987600000000 1.0
C      1  0.5174480000000  0.5279170000000  0.3919790000000 1.0
C      1  0.5836150000000  0.4942460000000  0.5739660000000 1.0
C      1  0.5494910000000  0.4632820000000  0.5292280000000 1.0
C      1  0.5289850000000  0.5970070000000  0.5080960000000 1.0
C      1  0.5786860000000  0.4586010000000  0.5349120000000 1.0
C      1  0.3804460000000  0.4904980000000  0.5054250000000 1.0
C      1  0.4079800000000  0.4602460000000  0.5325540000000 1.0
C      1  0.4767750000000  0.5199600000000  0.4180970000000 1.0
C      1  0.4874330000000  0.6032000000000  0.4852030000000 1.0
C      1  0.6039170000000  0.5222360000000  0.4788100000000 1.0
C      1  0.4865920000000  0.5572420000000  0.5163390000000 1.0
C      1  0.4545560000000  0.5340660000000  0.4309580000000 1.0
C      1  0.4105840000000  0.4781350000000  0.5570540000000 1.0
C      1  0.4936850000000  0.4619650000000  0.6076470000000 1.0
C      1  0.4494090000000  0.5292490000000  0.4598150000000 1.0
C      1  0.5746780000000  0.5554030000000  0.5220380000000 1.0
C      1  0.5913900000000  0.4846580000000  0.5459620000000 1.0
C      1  0.5347460000000  0.4576640000000  0.4995980000000 1.0
C      1  0.5091660000000  0.5687530000000  0.5728530000000 1.0
C      1  0.4478640000000  0.5924970000000  0.4636500000000 1.0
C      1  0.4336230000000  0.4175290000000  0.5213810000000 1.0
C      1  0.4630520000000  0.4988700000000  0.4000940000000 1.0
C      1  0.4466390000000  0.4257580000000  0.4631240000000 1.0
C      1  0.4595970000000  0.4021210000000  0.5238220000000 1.0
C      1  0.4014230000000  0.4721600000000  0.5068690000000 1.0
C      1  0.5320300000000  0.5065460000000  0.5499290000000 1.0
C      1  0.5591070000000  0.4118230000000  0.5320170000000 1.0
C      1  0.4946670000000  0.5380510000000  0.4760220000000 1.0
C      1  0.5222140000000  0.4158930000000  0.4966130000000 1.0
C      1  0.5091630000000  0.4488850000000  0.5132960000000 1.0
C      1  0.5117370000000  0.5538010000000  0.4951400000000 1.0
C      1  0.5622190000000  0.5198210000000  0.4147070000000 1.0
C      1  0.4844460000000  0.4110800000000  0.5401870000000 1.0
C      1  0.4443790000000  0.5507990000000  0.5775960000000 1.0
C      1  0.5750740000000  0.5595510000000  0.4927370000000 1.0
C      1  0.4913140000000  0.6023340000000  0.5385420000000 1.0
C      1  0.5916890000000  0.4863780000000  0.4485040000000 1.0
C      1  0.4268450000000  0.5790060000000  0.4768280000000 1.0
C      1  0.5317440000000  0.4432110000000  0.5531090000000 1.0
C      1  0.4927370000000  0.5110590000000  0.5046440000000 1.0
C      1  0.4779260000000  0.4736980000000  0.4016720000000 1.0
C      1  0.4799620000000  0.5216700000000  0.5699170000000 1.0
C      1  0.4611180000000  0.4707370000000  0.4425910000000 1.0
C      1  0.6017060000000  0.4704570000000  0.4693860000000 1.0
C      1  0.4768230000000  0.4303540000000  0.4234290000000 1.0
C      1  0.4128630000000  0.5544600000000  0.4807970000000 1.0
C      1  0.5843050000000  0.5320410000000  0.5373460000000 1.0
C      1  0.5575540000000  0.5563150000000  0.5671960000000 1.0
C      1  0.4149790000000  0.4798810000000  0.4593370000000 1.0
C      1  0.4592870000000  0.5770490000000  0.5692230000000 1.0
C      1  0.4833280000000  0.4850960000000  0.5148790000000 1.0
C      1  0.5111700000000  0.4868920000000  0.5566200000000 1.0
C      1  0.5990360000000  0.5082660000000  0.5281650000000 1.0
END
