TITL C-951336-9012-197 1.89507922336657 125000 -78.1067378869277 0 0 16 (Cs) n - 1
REM
REM in /home/bkarasulu/work/CARBON/AIRSS/Generating-Clusters/EDIP-Nigel-Params/with-SteepDescent/Only-C1/SD-CG/HFTN-CG
REM
REM
REM
REM
REM
REM ./C.cell (11c1c37f851c82e70ff6c80c92926a4b)
REM
REM compiler GCC version 9.2.1 20190827 (Red Hat 9.2.1-1)
REM options -cpp -mtune=generic -march=x86-64 -g -O0 -fpre-include=/usr/include/finclude/math-vector-fortran.h
REM seed -1545654061 -992999317 -336826287 -1399540061 167983753 -74159876 581386273 -700404519 -281383583 1951528851 -1660453861 963771521 367031036 -505558352 620523663 -596011930 1549861373 -700277761 -1449778199 -885010699 -1485318768 1853930822 2044139592 -1011257823 579820975 520438312 -1896249942 848060057 -1288051193 -235572774 1896028026 1345065049 -499949918
REM
CELL 1.54180   50.00000   50.00000   50.00000   90.00000   90.00000   90.00000
LATT -1
SFAC C  
C      1  0.4887860000000  0.4949960000000  0.5166970000000 1.0
C      1  0.5159350000000  0.5036890000000  0.4759340000000 1.0
C      1  0.4749380000000  0.4966950000000  0.5639250000000 1.0
C      1  0.5421200000000  0.5240060000000  0.4386630000000 1.0
C      1  0.4521250000000  0.4992940000000  0.5492960000000 1.0
C      1  0.4903110000000  0.5400890000000  0.4969580000000 1.0
C      1  0.4738650000000  0.4828610000000  0.5378090000000 1.0
C      1  0.4699990000000  0.4546520000000  0.5388240000000 1.0
C      1  0.5305060000000  0.5000580000000  0.4525870000000 1.0
C      1  0.5381260000000  0.5492570000000  0.4492950000000 1.0
C      1  0.5131190000000  0.5375080000000  0.5115980000000 1.0
C      1  0.5457010000000  0.4975000000000  0.4284550000000 1.0
C      1  0.5021420000000  0.5130730000000  0.4990760000000 1.0
C      1  0.4655370000000  0.4286900000000  0.5410210000000 1.0
C      1  0.4603430000000  0.4037920000000  0.5436630000000 1.0
C      1  0.5364480000000  0.5738400000000  0.4561990000000 1.0
END
