TITL C-951334-9093-504 -6.14650759549878e-07 125000 -438.137119921454 0 0 72 (C1) n - 1
REM
REM in /home/bkarasulu/work/CARBON/AIRSS/Generating-Clusters/EDIP-Nigel-Params/with-SteepDescent/Only-C1/SD-CG/HFTN-CG
REM
REM
REM
REM
REM
REM ./C.cell (11c1c37f851c82e70ff6c80c92926a4b)
REM
REM compiler GCC version 9.2.1 20190827 (Red Hat 9.2.1-1)
REM options -cpp -mtune=generic -march=x86-64 -g -O0 -fpre-include=/usr/include/finclude/math-vector-fortran.h
REM seed 1864430044 1489357550 -2101864306 -2137752677 -893330671 958304537 -1799738245 1639063600 428431637 589180371 831940125 -1973491220 -1364188599 1035621724 771234604 1067139147 1570825418 -1342837860 119642973 -1315780880 367658889 -211527692 902543969 404955810 1691801254 -1485173744 1298626388 1717038831 -583296866 -1791529943 -1694616088 -70237296 1325682462
REM
CELL 1.54180   50.00000   50.00000   50.00000   90.00000   90.00000   90.00000
LATT -1
SFAC C  
C      1  0.4970000000000  0.4489860000000  0.5656560000000 1.0
C      1  0.5022770000000  0.4839930000000  0.4828100000000 1.0
C      1  0.4986770000000  0.4779570000000  0.5692430000000 1.0
C      1  0.5076950000000  0.5532270000000  0.4465760000000 1.0
C      1  0.5242450000000  0.4925870000000  0.5705960000000 1.0
C      1  0.5426510000000  0.4647930000000  0.5336580000000 1.0
C      1  0.4433470000000  0.5321650000000  0.4520580000000 1.0
C      1  0.5607540000000  0.5351040000000  0.5220850000000 1.0
C      1  0.4829480000000  0.5506090000000  0.5273200000000 1.0
C      1  0.4834150000000  0.5789820000000  0.4858880000000 1.0
C      1  0.5347870000000  0.5512820000000  0.4573300000000 1.0
C      1  0.4606130000000  0.4933810000000  0.5061860000000 1.0
C      1  0.4889060000000  0.5133040000000  0.4424100000000 1.0
C      1  0.4962320000000  0.5722590000000  0.5108620000000 1.0
C      1  0.4532370000000  0.5449490000000  0.5256540000000 1.0
C      1  0.5658690000000  0.5067860000000  0.5267220000000 1.0
C      1  0.4273030000000  0.4650230000000  0.5111490000000 1.0
C      1  0.5053700000000  0.4291080000000  0.4897910000000 1.0
C      1  0.5177510000000  0.4838050000000  0.5100720000000 1.0
C      1  0.5521410000000  0.4398670000000  0.4636640000000 1.0
C      1  0.4467990000000  0.5695970000000  0.4829330000000 1.0
C      1  0.5014990000000  0.5341620000000  0.4271070000000 1.0
C      1  0.4700770000000  0.4408500000000  0.5682620000000 1.0
C      1  0.5413400000000  0.5594330000000  0.4846350000000 1.0
C      1  0.5253430000000  0.5206380000000  0.5723400000000 1.0
C      1  0.4708680000000  0.4676280000000  0.4532910000000 1.0
C      1  0.5487430000000  0.4913500000000  0.5061830000000 1.0
C      1  0.4929210000000  0.4207690000000  0.5254830000000 1.0
C      1  0.5018620000000  0.5028000000000  0.5263030000000 1.0
C      1  0.5643050000000  0.5421730000000  0.4929720000000 1.0
C      1  0.5340520000000  0.5450760000000  0.5299440000000 1.0
C      1  0.5398920000000  0.5022160000000  0.4312830000000 1.0
C      1  0.4486770000000  0.4852460000000  0.4460180000000 1.0
C      1  0.4670450000000  0.4312990000000  0.5139470000000 1.0
C      1  0.5477300000000  0.4807320000000  0.5578790000000 1.0
C      1  0.4855520000000  0.5594460000000  0.4643100000000 1.0
C      1  0.5232210000000  0.4427810000000  0.4709510000000 1.0
C      1  0.4783780000000  0.4394510000000  0.4885460000000 1.0
C      1  0.4752080000000  0.4907640000000  0.5340050000000 1.0
C      1  0.5571550000000  0.5331920000000  0.4478000000000 1.0
C      1  0.4592340000000  0.5118530000000  0.4365160000000 1.0
C      1  0.4518070000000  0.4544200000000  0.5253920000000 1.0
C      1  0.5236260000000  0.5612300000000  0.5081860000000 1.0
C      1  0.4339420000000  0.5188580000000  0.4771090000000 1.0
C      1  0.4954370000000  0.5275270000000  0.5104500000000 1.0
C      1  0.5431720000000  0.4818910000000  0.4522560000000 1.0
C      1  0.5823640000000  0.4723700000000  0.4801800000000 1.0
C      1  0.4936690000000  0.5509710000000  0.5544110000000 1.0
C      1  0.4945470000000  0.5126260000000  0.4741650000000 1.0
C      1  0.4241860000000  0.5063870000000  0.5386010000000 1.0
C      1  0.4954730000000  0.4695230000000  0.4387050000000 1.0
C      1  0.5093140000000  0.4372350000000  0.5421040000000 1.0
C      1  0.5157270000000  0.4697490000000  0.4602000000000 1.0
C      1  0.4297740000000  0.4946880000000  0.5135500000000 1.0
C      1  0.5203840000000  0.5425550000000  0.5557040000000 1.0
C      1  0.5586530000000  0.5198160000000  0.4220880000000 1.0
C      1  0.5720790000000  0.4470890000000  0.4821870000000 1.0
C      1  0.5369410000000  0.4373590000000  0.5380670000000 1.0
C      1  0.4695340000000  0.5195510000000  0.4931350000000 1.0
C      1  0.5683020000000  0.4990760000000  0.5537970000000 1.0
C      1  0.4748400000000  0.4688680000000  0.4833870000000 1.0
C      1  0.5705770000000  0.5209120000000  0.4719930000000 1.0
C      1  0.4720670000000  0.4898560000000  0.5749140000000 1.0
C      1  0.4254070000000  0.4633900000000  0.4828330000000 1.0
C      1  0.4464710000000  0.5228310000000  0.5433100000000 1.0
C      1  0.4385510000000  0.5481550000000  0.5006300000000 1.0
C      1  0.4310690000000  0.4884970000000  0.4695290000000 1.0
C      1  0.5612450000000  0.4919880000000  0.4775290000000 1.0
C      1  0.4661050000000  0.5152440000000  0.5626250000000 1.0
C      1  0.5564190000000  0.4577750000000  0.4415930000000 1.0
C      1  0.4563650000000  0.4613530000000  0.5538870000000 1.0
C      1  0.4568350000000  0.5585870000000  0.4570460000000 1.0
END
