TITL C-950526-5686-386 -1.38661301944708e-06 125000 -1148.57042947595 0 0 185 (C1) n - 1
REM
REM in /home/bkarasulu/work/CARBON/AIRSS/Generating-Clusters/EDIP-Nigel-Params/with-SteepDescent/Only-C1/SD-CG/HFTN-CG
REM
REM
REM
REM
REM
REM ./C.cell (11c1c37f851c82e70ff6c80c92926a4b)
REM
REM compiler GCC version 9.2.1 20190827 (Red Hat 9.2.1-1)
REM options -cpp -mtune=generic -march=x86-64 -g -O0 -fpre-include=/usr/include/finclude/math-vector-fortran.h
REM seed 758469225 -1793284139 -155586305 -2141140149 1552862115 -1321748541 261858978 -1384698238 1771005321 -1529002454 -2104617076 1657093773 230292524 1149413799 1568834359 1662120110 -262718430 -461639445 -1915746059 1390310632 1953490336 -1809061385 -1393025261 1078823648 -1417811571 -1664847390 40295370 420037308 -1735558732 246244594 -717852031 1036473816 -1765754102
REM
CELL 1.54180   50.00000   50.00000   50.00000   90.00000   90.00000   90.00000
LATT -1
SFAC C  
C      1  0.4885200000000  0.5172570000000  0.5559640000000 1.0
C      1  0.4508200000000  0.5823260000000  0.4615110000000 1.0
C      1  0.5944640000000  0.4345860000000  0.5114750000000 1.0
C      1  0.4385160000000  0.4614460000000  0.4332510000000 1.0
C      1  0.5484390000000  0.4512980000000  0.5031550000000 1.0
C      1  0.5711690000000  0.5046310000000  0.5754740000000 1.0
C      1  0.5186650000000  0.4364400000000  0.4681610000000 1.0
C      1  0.4917800000000  0.5689320000000  0.4948070000000 1.0
C      1  0.5742480000000  0.5672220000000  0.5197490000000 1.0
C      1  0.5552390000000  0.5395490000000  0.4718260000000 1.0
C      1  0.4778230000000  0.4574550000000  0.6031150000000 1.0
C      1  0.5524820000000  0.5140360000000  0.4194450000000 1.0
C      1  0.4957140000000  0.4481390000000  0.4496750000000 1.0
C      1  0.3877500000000  0.4734940000000  0.4871450000000 1.0
C      1  0.5563460000000  0.4702390000000  0.5252610000000 1.0
C      1  0.4845030000000  0.4765200000000  0.4569180000000 1.0
C      1  0.5599780000000  0.4562850000000  0.5542630000000 1.0
C      1  0.5972810000000  0.5055730000000  0.4296290000000 1.0
C      1  0.5126650000000  0.4593720000000  0.5651540000000 1.0
C      1  0.4486360000000  0.4358820000000  0.5309640000000 1.0
C      1  0.4791830000000  0.5620100000000  0.5748970000000 1.0
C      1  0.6142590000000  0.5112970000000  0.4852350000000 1.0
C      1  0.4896190000000  0.4785190000000  0.5006740000000 1.0
C      1  0.5198820000000  0.5537500000000  0.5339900000000 1.0
C      1  0.4777150000000  0.5284100000000  0.5290540000000 1.0
C      1  0.5426450000000  0.5094890000000  0.5501020000000 1.0
C      1  0.5323730000000  0.4901840000000  0.5293000000000 1.0
C      1  0.5307170000000  0.4272060000000  0.5889430000000 1.0
C      1  0.5486590000000  0.5247950000000  0.4979060000000 1.0
C      1  0.4481000000000  0.5762420000000  0.5407110000000 1.0
C      1  0.4308360000000  0.4955300000000  0.5572660000000 1.0
C      1  0.5193550000000  0.4442540000000  0.4159910000000 1.0
C      1  0.5654660000000  0.5382890000000  0.4287640000000 1.0
C      1  0.4529020000000  0.4894580000000  0.4757780000000 1.0
C      1  0.4458880000000  0.5107100000000  0.6045520000000 1.0
C      1  0.5205450000000  0.4173710000000  0.4285750000000 1.0
C      1  0.5999750000000  0.5522830000000  0.4531660000000 1.0
C      1  0.4596150000000  0.5569140000000  0.4263110000000 1.0
C      1  0.5831150000000  0.4890610000000  0.5144520000000 1.0
C      1  0.4165210000000  0.4608510000000  0.5665000000000 1.0
C      1  0.5187600000000  0.5205630000000  0.5666280000000 1.0
C      1  0.5388240000000  0.4779990000000  0.5953560000000 1.0
C      1  0.4893450000000  0.6006820000000  0.5474690000000 1.0
C      1  0.5914660000000  0.5549500000000  0.4993850000000 1.0
C      1  0.5476930000000  0.5619740000000  0.4270930000000 1.0
C      1  0.5559640000000  0.5243980000000  0.5910810000000 1.0
C      1  0.4396810000000  0.4120740000000  0.5150900000000 1.0
C      1  0.4342270000000  0.5114660000000  0.4203550000000 1.0
C      1  0.5943270000000  0.4940730000000  0.4574860000000 1.0
C      1  0.5603290000000  0.4781810000000  0.5759510000000 1.0
C      1  0.5315270000000  0.5239700000000  0.4000340000000 1.0
C      1  0.3687310000000  0.5218150000000  0.5167050000000 1.0
C      1  0.4753030000000  0.5207680000000  0.6044390000000 1.0
C      1  0.5393640000000  0.4593710000000  0.4009960000000 1.0
C      1  0.5339430000000  0.4392470000000  0.5606200000000 1.0
C      1  0.5718980000000  0.5512670000000  0.5545280000000 1.0
C      1  0.4221560000000  0.5204770000000  0.5117610000000 1.0
C      1  0.4431000000000  0.5555280000000  0.4956780000000 1.0
C      1  0.5018330000000  0.5631780000000  0.4100130000000 1.0
C      1  0.5234710000000  0.4212430000000  0.5371890000000 1.0
C      1  0.4709990000000  0.5275530000000  0.3921600000000 1.0
C      1  0.4552260000000  0.4381340000000  0.4350890000000 1.0
C      1  0.4920200000000  0.6105620000000  0.5192160000000 1.0
C      1  0.4579200000000  0.3954250000000  0.5012680000000 1.0
C      1  0.4719410000000  0.5323820000000  0.5762270000000 1.0
C      1  0.4967370000000  0.4317990000000  0.5255990000000 1.0
C      1  0.4982810000000  0.5826880000000  0.4313370000000 1.0
C      1  0.5303710000000  0.5506540000000  0.4604050000000 1.0
C      1  0.5251900000000  0.5504020000000  0.5640880000000 1.0
C      1  0.5649840000000  0.4910390000000  0.4652660000000 1.0
C      1  0.4935790000000  0.5210920000000  0.4375790000000 1.0
C      1  0.5230100000000  0.3910570000000  0.5410250000000 1.0
C      1  0.5140450000000  0.4185050000000  0.4933050000000 1.0
C      1  0.6099120000000  0.4649460000000  0.4771410000000 1.0
C      1  0.4824540000000  0.5414710000000  0.4158450000000 1.0
C      1  0.4045250000000  0.4384730000000  0.5223230000000 1.0
C      1  0.5412140000000  0.4135160000000  0.4490830000000 1.0
C      1  0.4985360000000  0.5033270000000  0.6108780000000 1.0
C      1  0.5627470000000  0.4671840000000  0.4171340000000 1.0
C      1  0.5375580000000  0.6015510000000  0.5522850000000 1.0
C      1  0.4296010000000  0.6007260000000  0.5018770000000 1.0
C      1  0.4347850000000  0.5519300000000  0.5481590000000 1.0
C      1  0.5318840000000  0.4514210000000  0.6041930000000 1.0
C      1  0.4133970000000  0.4767900000000  0.5028530000000 1.0
C      1  0.5151730000000  0.5031190000000  0.3865390000000 1.0
C      1  0.4910040000000  0.5560310000000  0.5258690000000 1.0
C      1  0.4059210000000  0.5042600000000  0.4202550000000 1.0
C      1  0.5470190000000  0.5875900000000  0.4448450000000 1.0
C      1  0.4421270000000  0.5404480000000  0.4444480000000 1.0
C      1  0.5285540000000  0.4787090000000  0.3842210000000 1.0
C      1  0.5387060000000  0.5554170000000  0.5108690000000 1.0
C      1  0.4705040000000  0.4804140000000  0.4010320000000 1.0
C      1  0.5075930000000  0.3793800000000  0.5204050000000 1.0
C      1  0.5283650000000  0.5534790000000  0.4056880000000 1.0
C      1  0.4763710000000  0.5740830000000  0.5475310000000 1.0
C      1  0.6092890000000  0.4852660000000  0.4975720000000 1.0
C      1  0.4391500000000  0.5185480000000  0.5759670000000 1.0
C      1  0.4895900000000  0.4456770000000  0.5781600000000 1.0
C      1  0.5061540000000  0.4764100000000  0.5430930000000 1.0
C      1  0.4576480000000  0.5402440000000  0.4736370000000 1.0
C      1  0.5588890000000  0.4580860000000  0.4455880000000 1.0
C      1  0.5128760000000  0.5972720000000  0.5656560000000 1.0
C      1  0.5179710000000  0.5228660000000  0.4549770000000 1.0
C      1  0.5255360000000  0.6029550000000  0.4838480000000 1.0
C      1  0.5157550000000  0.4853460000000  0.4786980000000 1.0
C      1  0.4913260000000  0.4772270000000  0.6174210000000 1.0
C      1  0.4121690000000  0.5150030000000  0.4650430000000 1.0
C      1  0.3743210000000  0.4947170000000  0.5158920000000 1.0
C      1  0.3902710000000  0.5670920000000  0.5185850000000 1.0
C      1  0.4491520000000  0.4594590000000  0.6028470000000 1.0
C      1  0.4006910000000  0.4594970000000  0.5417530000000 1.0
C      1  0.6014590000000  0.4386490000000  0.4838280000000 1.0
C      1  0.4508020000000  0.4225870000000  0.4584740000000 1.0
C      1  0.5870610000000  0.4243650000000  0.4647920000000 1.0
C      1  0.4915120000000  0.4920230000000  0.4310150000000 1.0
C      1  0.5643800000000  0.5860800000000  0.4723230000000 1.0
C      1  0.4212670000000  0.5608550000000  0.4523540000000 1.0
C      1  0.5200220000000  0.6007100000000  0.4402340000000 1.0
C      1  0.5207560000000  0.4772570000000  0.4363560000000 1.0
C      1  0.4456020000000  0.4182040000000  0.5777560000000 1.0
C      1  0.4043190000000  0.5878240000000  0.5052090000000 1.0
C      1  0.4922730000000  0.4073490000000  0.4343490000000 1.0
C      1  0.4430220000000  0.5237710000000  0.3956100000000 1.0
C      1  0.4183360000000  0.4257060000000  0.5002240000000 1.0
C      1  0.5077150000000  0.5699710000000  0.5791060000000 1.0
C      1  0.4348290000000  0.4441920000000  0.5826010000000 1.0
C      1  0.6106760000000  0.5331400000000  0.5043830000000 1.0
C      1  0.5051920000000  0.3899630000000  0.4942940000000 1.0
C      1  0.5742210000000  0.4948270000000  0.4115370000000 1.0
C      1  0.5591230000000  0.3997970000000  0.5115580000000 1.0
C      1  0.5259900000000  0.5071900000000  0.5967450000000 1.0
C      1  0.5855530000000  0.4089160000000  0.5209460000000 1.0
C      1  0.4493040000000  0.5803890000000  0.5112370000000 1.0
C      1  0.4398940000000  0.4842310000000  0.6112100000000 1.0
C      1  0.4253080000000  0.5001850000000  0.4881060000000 1.0
C      1  0.5530110000000  0.5503740000000  0.5760380000000 1.0
C      1  0.5790060000000  0.5584930000000  0.4728830000000 1.0
C      1  0.4783530000000  0.4294770000000  0.4208210000000 1.0
C      1  0.4686060000000  0.5837450000000  0.4364110000000 1.0
C      1  0.4705210000000  0.4083910000000  0.5674840000000 1.0
C      1  0.3861970000000  0.5395360000000  0.5292980000000 1.0
C      1  0.4493630000000  0.4851310000000  0.4203270000000 1.0
C      1  0.3994640000000  0.4862860000000  0.5280620000000 1.0
C      1  0.4454740000000  0.5280120000000  0.5337510000000 1.0
C      1  0.5619120000000  0.5912700000000  0.5061630000000 1.0
C      1  0.5426270000000  0.6054810000000  0.5247900000000 1.0
C      1  0.4069560000000  0.5254310000000  0.5467870000000 1.0
C      1  0.4748930000000  0.5948820000000  0.4986730000000 1.0
C      1  0.4954320000000  0.4159710000000  0.5837090000000 1.0
C      1  0.5653530000000  0.4294460000000  0.4481460000000 1.0
C      1  0.4625320000000  0.4678760000000  0.4940740000000 1.0
C      1  0.5513390000000  0.3861170000000  0.5368710000000 1.0
C      1  0.4772120000000  0.4094800000000  0.4607970000000 1.0
C      1  0.5219570000000  0.5707920000000  0.4869000000000 1.0
C      1  0.4739360000000  0.4305270000000  0.5459940000000 1.0
C      1  0.4795300000000  0.5583920000000  0.4709000000000 1.0
C      1  0.3957370000000  0.5006390000000  0.4463800000000 1.0
C      1  0.4851460000000  0.5022630000000  0.3883580000000 1.0
C      1  0.5936340000000  0.5359850000000  0.4313110000000 1.0
C      1  0.6036040000000  0.4477220000000  0.5348020000000 1.0
C      1  0.5132970000000  0.6168350000000  0.4621280000000 1.0
C      1  0.4807060000000  0.4896030000000  0.5521800000000 1.0
C      1  0.4831700000000  0.5097820000000  0.5061690000000 1.0
C      1  0.5393450000000  0.4234230000000  0.5106870000000 1.0
C      1  0.4213080000000  0.4592120000000  0.4567310000000 1.0
C      1  0.4453150000000  0.6073980000000  0.4765420000000 1.0
C      1  0.5260610000000  0.5044940000000  0.5023470000000 1.0
C      1  0.5883550000000  0.5104210000000  0.5351260000000 1.0
C      1  0.4155720000000  0.5469240000000  0.4974680000000 1.0
C      1  0.4447480000000  0.4645750000000  0.5184140000000 1.0
C      1  0.4534020000000  0.4855170000000  0.5401430000000 1.0
C      1  0.4784660000000  0.3907100000000  0.4827200000000 1.0
C      1  0.5650900000000  0.5280720000000  0.5386890000000 1.0
C      1  0.4287710000000  0.4358000000000  0.4734350000000 1.0
C      1  0.5356950000000  0.4606560000000  0.4766780000000 1.0
C      1  0.5785610000000  0.4099810000000  0.5497270000000 1.0
C      1  0.5844950000000  0.4385250000000  0.5542830000000 1.0
C      1  0.6124360000000  0.5247570000000  0.5312910000000 1.0
C      1  0.4672660000000  0.5139010000000  0.4825560000000 1.0
C      1  0.5687710000000  0.5029600000000  0.4924240000000 1.0
C      1  0.5000410000000  0.4605030000000  0.5210940000000 1.0
C      1  0.5391170000000  0.5020000000000  0.4449250000000 1.0
C      1  0.5201960000000  0.6158460000000  0.5096470000000 1.0
C      1  0.3959280000000  0.4734390000000  0.4590180000000 1.0
C      1  0.4060880000000  0.5430240000000  0.4698610000000 1.0
END
