TITL C-951334-9093-374 -1.14869986350213e-06 125000 -178.61330945206 0 0 31 (C1) n - 1
REM
REM in /home/bkarasulu/work/CARBON/AIRSS/Generating-Clusters/EDIP-Nigel-Params/with-SteepDescent/Only-C1/SD-CG/HFTN-CG
REM
REM
REM
REM
REM
REM ./C.cell (11c1c37f851c82e70ff6c80c92926a4b)
REM
REM compiler GCC version 9.2.1 20190827 (Red Hat 9.2.1-1)
REM options -cpp -mtune=generic -march=x86-64 -g -O0 -fpre-include=/usr/include/finclude/math-vector-fortran.h
REM seed -145683483 134566362 -1648870621 -1390304651 -53393035 -631906434 2091293550 -2070185497 1022432010 322202024 1810209452 -1949140220 473803522 -1415765856 -361804270 1813728864 1381305574 -1179318927 -1885118892 -77185621 -985206932 1286386295 -596460707 170986986 -1496814352 -722296199 1491289503 861982585 -1393870402 388545557 -1802667921 -181434045 -158465119
REM
CELL 1.54180   50.00000   50.00000   50.00000   90.00000   90.00000   90.00000
LATT -1
SFAC C  
C      1  0.5066430000000  0.5300090000000  0.4690880000000 1.0
C      1  0.4970800000000  0.4531270000000  0.5208820000000 1.0
C      1  0.5168810000000  0.4498030000000  0.4735900000000 1.0
C      1  0.4510050000000  0.5125400000000  0.4723340000000 1.0
C      1  0.5534800000000  0.4889000000000  0.4729890000000 1.0
C      1  0.4603870000000  0.5414410000000  0.4767930000000 1.0
C      1  0.4552330000000  0.5196890000000  0.5156940000000 1.0
C      1  0.4844810000000  0.5590410000000  0.5198950000000 1.0
C      1  0.5247970000000  0.4963060000000  0.5531220000000 1.0
C      1  0.4615720000000  0.5471370000000  0.5072600000000 1.0
C      1  0.5052740000000  0.5405960000000  0.5121490000000 1.0
C      1  0.5153090000000  0.4455820000000  0.5012520000000 1.0
C      1  0.4377000000000  0.5069540000000  0.4969820000000 1.0
C      1  0.4694800000000  0.4674820000000  0.4834040000000 1.0
C      1  0.4851970000000  0.5477860000000  0.4628890000000 1.0
C      1  0.4833510000000  0.5089740000000  0.5139560000000 1.0
C      1  0.5370790000000  0.4904790000000  0.5282250000000 1.0
C      1  0.5470420000000  0.5150510000000  0.5171200000000 1.0
C      1  0.5389570000000  0.4658670000000  0.4651820000000 1.0
C      1  0.5162520000000  0.5498600000000  0.4865520000000 1.0
C      1  0.5050790000000  0.4569190000000  0.5472140000000 1.0
C      1  0.4901930000000  0.4577660000000  0.4618410000000 1.0
C      1  0.5202710000000  0.5238890000000  0.5561300000000 1.0
C      1  0.5281830000000  0.5343640000000  0.5307310000000 1.0
C      1  0.4781360000000  0.4722190000000  0.5110100000000 1.0
C      1  0.4794420000000  0.4409180000000  0.4434490000000 1.0
C      1  0.4748320000000  0.4933690000000  0.4678180000000 1.0
C      1  0.5104030000000  0.4759730000000  0.5655850000000 1.0
C      1  0.5208490000000  0.4883350000000  0.4940840000000 1.0
C      1  0.4967150000000  0.5063190000000  0.4849190000000 1.0
C      1  0.5486980000000  0.5133050000000  0.4878620000000 1.0
END
