TITL C-950530-3293-44 -6.42615437066861e-07 125000 -320.95413608326 0 0 54 (C1) n - 1
REM
REM in /home/bkarasulu/work/CARBON/AIRSS/Generating-Clusters/EDIP-Nigel-Params/with-SteepDescent/Only-C1/SD-CG/HFTN-CG
REM
REM
REM
REM
REM
REM ./C.cell (11c1c37f851c82e70ff6c80c92926a4b)
REM
REM compiler GCC version 9.2.1 20190827 (Red Hat 9.2.1-1)
REM options -cpp -mtune=generic -march=x86-64 -g -O0 -fpre-include=/usr/include/finclude/math-vector-fortran.h
REM seed 125692942 2146161280 -70382521 -782186652 -891570147 1620128770 -1714255841 322315059 -1584748672 -666301246 -330542629 1905506443 -696872603 145735137 1731340614 1482529142 -170123839 765267801 1577399550 411629019 -810118068 706552906 858285458 -330266093 -1137261850 -1764031740 -1266376754 2136649139 -689956631 338013856 -423853098 821546800 -460519335
REM
CELL 1.54180   50.00000   50.00000   50.00000   90.00000   90.00000   90.00000
LATT -1
SFAC C  
C      1  0.5384570000000  0.5374640000000  0.5209080000000 1.0
C      1  0.5074770000000  0.5189800000000  0.5676560000000 1.0
C      1  0.5283790000000  0.4492970000000  0.5476400000000 1.0
C      1  0.4868490000000  0.4990400000000  0.4843930000000 1.0
C      1  0.5401340000000  0.5367660000000  0.4495060000000 1.0
C      1  0.5061800000000  0.5723960000000  0.5269310000000 1.0
C      1  0.5604620000000  0.5215740000000  0.5321100000000 1.0
C      1  0.5245670000000  0.4957400000000  0.5744230000000 1.0
C      1  0.4675910000000  0.5105920000000  0.5382960000000 1.0
C      1  0.4792180000000  0.5475950000000  0.4890280000000 1.0
C      1  0.4687290000000  0.4809450000000  0.4959020000000 1.0
C      1  0.4343720000000  0.4766020000000  0.5237310000000 1.0
C      1  0.4500750000000  0.5293030000000  0.5240760000000 1.0
C      1  0.5440010000000  0.5168740000000  0.5801920000000 1.0
C      1  0.4592920000000  0.4747940000000  0.4504610000000 1.0
C      1  0.4583300000000  0.4824570000000  0.5388820000000 1.0
C      1  0.4780340000000  0.4604440000000  0.5423080000000 1.0
C      1  0.4399390000000  0.4887220000000  0.4967100000000 1.0
C      1  0.5384750000000  0.4400330000000  0.5224010000000 1.0
C      1  0.5024840000000  0.5663320000000  0.4799180000000 1.0
C      1  0.5386180000000  0.4377810000000  0.4701870000000 1.0
C      1  0.4353930000000  0.5179070000000  0.5016020000000 1.0
C      1  0.4992150000000  0.4448020000000  0.4904630000000 1.0
C      1  0.5202790000000  0.5734210000000  0.5025280000000 1.0
C      1  0.5619980000000  0.5231790000000  0.5600880000000 1.0
C      1  0.5004320000000  0.4445830000000  0.5531670000000 1.0
C      1  0.4638960000000  0.5396690000000  0.4623190000000 1.0
C      1  0.4993640000000  0.5235170000000  0.4909790000000 1.0
C      1  0.5386440000000  0.4617910000000  0.4403710000000 1.0
C      1  0.5420270000000  0.4519000000000  0.4964920000000 1.0
C      1  0.4655800000000  0.4317780000000  0.5056330000000 1.0
C      1  0.5117670000000  0.5440950000000  0.4587440000000 1.0
C      1  0.5441460000000  0.5583830000000  0.5028190000000 1.0
C      1  0.5620260000000  0.5163850000000  0.4414690000000 1.0
C      1  0.5139160000000  0.5198620000000  0.5175570000000 1.0
C      1  0.5326870000000  0.5077620000000  0.4443270000000 1.0
C      1  0.5096180000000  0.4376660000000  0.4633090000000 1.0
C      1  0.4894720000000  0.5063340000000  0.4341080000000 1.0
C      1  0.5539630000000  0.4945840000000  0.5241610000000 1.0
C      1  0.4655980000000  0.5532150000000  0.5168720000000 1.0
C      1  0.4875510000000  0.5323930000000  0.4445810000000 1.0
C      1  0.4868960000000  0.5550170000000  0.5374060000000 1.0
C      1  0.4686180000000  0.4347860000000  0.5334320000000 1.0
C      1  0.4711750000000  0.4532730000000  0.4871440000000 1.0
C      1  0.5249030000000  0.4915750000000  0.5184530000000 1.0
C      1  0.4854360000000  0.4792220000000  0.4400980000000 1.0
C      1  0.5096840000000  0.4619550000000  0.4464070000000 1.0
C      1  0.4379560000000  0.4877200000000  0.4644930000000 1.0
C      1  0.5359920000000  0.4775540000000  0.5532650000000 1.0
C      1  0.5528330000000  0.4868320000000  0.4380680000000 1.0
C      1  0.4348040000000  0.5155330000000  0.4569150000000 1.0
C      1  0.4292630000000  0.5332540000000  0.4783140000000 1.0
C      1  0.5188630000000  0.4709890000000  0.4972180000000 1.0
C      1  0.4943410000000  0.5253320000000  0.5415410000000 1.0
END
