TITL C-951345-2650-213 1.26937737151009e-05 125000 -913.685927808217 0 0 147 (C1) n - 1
REM
REM in /home/bkarasulu/work/CARBON/AIRSS/Generating-Clusters/EDIP-Nigel-Params/with-SteepDescent/Only-C1/SD-CG/HFTN-CG
REM
REM
REM
REM
REM
REM ./C.cell (11c1c37f851c82e70ff6c80c92926a4b)
REM
REM compiler GCC version 9.2.1 20190827 (Red Hat 9.2.1-1)
REM options -cpp -mtune=generic -march=x86-64 -g -O0 -fpre-include=/usr/include/finclude/math-vector-fortran.h
REM seed 621116147 1015621140 -1434157006 -1661002366 -1170520926 1579739013 965257522 -84496425 -182152330 -420268614 501248855 -870397679 -1677792440 -357087502 1465121929 384726196 1044960892 -1623440617 -349531718 -1546592682 1559728270 -2117062440 -1317601333 447697518 1254143140 1002597886 816297430 -1526225853 153701396 -277571538 -1409412984 1692066367 1762714289
REM
CELL 1.54180   50.00000   50.00000   50.00000   90.00000   90.00000   90.00000
LATT -1
SFAC C  
C      1  0.4398750000000  0.4933100000000  0.5032400000000 1.0
C      1  0.4961630000000  0.5942280000000  0.5498980000000 1.0
C      1  0.4940060000000  0.4555640000000  0.4073500000000 1.0
C      1  0.5453860000000  0.5644200000000  0.5574720000000 1.0
C      1  0.5100690000000  0.4120960000000  0.4267060000000 1.0
C      1  0.4148540000000  0.4911030000000  0.4860070000000 1.0
C      1  0.4338900000000  0.4330210000000  0.5438370000000 1.0
C      1  0.5570640000000  0.4177750000000  0.4968160000000 1.0
C      1  0.5066680000000  0.4328690000000  0.5803180000000 1.0
C      1  0.5296930000000  0.5643100000000  0.4928920000000 1.0
C      1  0.6027770000000  0.5206340000000  0.5333880000000 1.0
C      1  0.5928880000000  0.5001880000000  0.5536120000000 1.0
C      1  0.5241720000000  0.5420610000000  0.5930020000000 1.0
C      1  0.5808250000000  0.5706850000000  0.4915090000000 1.0
C      1  0.5907400000000  0.4655620000000  0.5164290000000 1.0
C      1  0.5179230000000  0.5425890000000  0.4634950000000 1.0
C      1  0.4403820000000  0.5066290000000  0.5315220000000 1.0
C      1  0.4521450000000  0.5093050000000  0.4127790000000 1.0
C      1  0.4642070000000  0.5960990000000  0.4561910000000 1.0
C      1  0.4799010000000  0.4042800000000  0.5493550000000 1.0
C      1  0.5330530000000  0.5733530000000  0.4364310000000 1.0
C      1  0.5515150000000  0.5859790000000  0.5315820000000 1.0
C      1  0.4639380000000  0.5099570000000  0.4612130000000 1.0
C      1  0.5238880000000  0.4560980000000  0.5864130000000 1.0
C      1  0.4644220000000  0.4067960000000  0.4857120000000 1.0
C      1  0.4887930000000  0.5547180000000  0.4618330000000 1.0
C      1  0.4632130000000  0.5290350000000  0.5804940000000 1.0
C      1  0.5138340000000  0.4039740000000  0.4851080000000 1.0
C      1  0.4290710000000  0.4458940000000  0.4937790000000 1.0
C      1  0.4911110000000  0.4877760000000  0.5327430000000 1.0
C      1  0.5243250000000  0.4570240000000  0.5028940000000 1.0
C      1  0.4810070000000  0.5922100000000  0.5009430000000 1.0
C      1  0.4228140000000  0.5413080000000  0.4938340000000 1.0
C      1  0.3939330000000  0.4893630000000  0.5099560000000 1.0
C      1  0.5632590000000  0.4560100000000  0.5568560000000 1.0
C      1  0.4492530000000  0.4655020000000  0.5048130000000 1.0
C      1  0.4066450000000  0.4718980000000  0.5544900000000 1.0
C      1  0.5652170000000  0.5142470000000  0.5073280000000 1.0
C      1  0.4830630000000  0.5509060000000  0.5183900000000 1.0
C      1  0.3963470000000  0.5114980000000  0.5296210000000 1.0
C      1  0.5076010000000  0.4120100000000  0.5598780000000 1.0
C      1  0.5528630000000  0.5167840000000  0.4796810000000 1.0
C      1  0.5769170000000  0.4775490000000  0.5394210000000 1.0
C      1  0.5679190000000  0.5397640000000  0.4622720000000 1.0
C      1  0.4640090000000  0.4288670000000  0.5406220000000 1.0
C      1  0.5040800000000  0.4997380000000  0.5962390000000 1.0
C      1  0.4145860000000  0.4387480000000  0.5196800000000 1.0
C      1  0.4308850000000  0.4568630000000  0.5614940000000 1.0
C      1  0.5733000000000  0.5013510000000  0.4354880000000 1.0
C      1  0.4759360000000  0.4630220000000  0.4947230000000 1.0
C      1  0.5156600000000  0.4938640000000  0.4022150000000 1.0
C      1  0.4545630000000  0.5757670000000  0.4390830000000 1.0
C      1  0.5737170000000  0.5299120000000  0.4343260000000 1.0
C      1  0.4124930000000  0.4630460000000  0.4757590000000 1.0
C      1  0.5106520000000  0.5620440000000  0.5181080000000 1.0
C      1  0.5467740000000  0.4372650000000  0.5396430000000 1.0
C      1  0.4415610000000  0.4232750000000  0.4770670000000 1.0
C      1  0.4694040000000  0.5430520000000  0.4072280000000 1.0
C      1  0.5056420000000  0.5124510000000  0.5073770000000 1.0
C      1  0.5265680000000  0.5462280000000  0.5384240000000 1.0
C      1  0.4792570000000  0.4519870000000  0.5525150000000 1.0
C      1  0.5374290000000  0.5007300000000  0.5460730000000 1.0
C      1  0.5328900000000  0.5568980000000  0.4119770000000 1.0
C      1  0.5479820000000  0.5000710000000  0.5747470000000 1.0
C      1  0.4635980000000  0.3900200000000  0.5079150000000 1.0
C      1  0.3881990000000  0.4540290000000  0.4663160000000 1.0
C      1  0.5553920000000  0.4919370000000  0.5251440000000 1.0
C      1  0.4093190000000  0.5012030000000  0.5541820000000 1.0
C      1  0.4751910000000  0.5135790000000  0.4312500000000 1.0
C      1  0.4573330000000  0.4717000000000  0.5653310000000 1.0
C      1  0.5828630000000  0.4287880000000  0.4930570000000 1.0
C      1  0.4625940000000  0.5704900000000  0.5097620000000 1.0
C      1  0.5614820000000  0.5393750000000  0.5238800000000 1.0
C      1  0.4433470000000  0.4338370000000  0.4506240000000 1.0
C      1  0.5156500000000  0.5177110000000  0.5376080000000 1.0
C      1  0.4765750000000  0.5578380000000  0.4325450000000 1.0
C      1  0.4886280000000  0.4046860000000  0.4697700000000 1.0
C      1  0.5386910000000  0.4509750000000  0.4266620000000 1.0
C      1  0.4470940000000  0.5551740000000  0.4873260000000 1.0
C      1  0.5497370000000  0.4689650000000  0.5797120000000 1.0
C      1  0.5068220000000  0.4722220000000  0.6033720000000 1.0
C      1  0.5043420000000  0.5915610000000  0.5223560000000 1.0
C      1  0.4721160000000  0.5550810000000  0.5692140000000 1.0
C      1  0.5044290000000  0.5179140000000  0.4173970000000 1.0
C      1  0.5951470000000  0.5145950000000  0.5030840000000 1.0
C      1  0.5749080000000  0.5146340000000  0.5735290000000 1.0
C      1  0.5975510000000  0.4384330000000  0.5143130000000 1.0
C      1  0.5281180000000  0.5147060000000  0.5930660000000 1.0
C      1  0.4799070000000  0.4380220000000  0.5881620000000 1.0
C      1  0.4786900000000  0.4798700000000  0.4684940000000 1.0
C      1  0.5124390000000  0.6008410000000  0.4646780000000 1.0
C      1  0.5079320000000  0.4773310000000  0.4616020000000 1.0
C      1  0.4366140000000  0.5217500000000  0.5715470000000 1.0
C      1  0.5727860000000  0.5441420000000  0.5662530000000 1.0
C      1  0.5343930000000  0.5952850000000  0.4848780000000 1.0
C      1  0.4860910000000  0.3896070000000  0.5247270000000 1.0
C      1  0.5242960000000  0.5217740000000  0.4851020000000 1.0
C      1  0.5540720000000  0.5663540000000  0.4559940000000 1.0
C      1  0.5393410000000  0.4144510000000  0.4744280000000 1.0
C      1  0.5940580000000  0.4708530000000  0.4722400000000 1.0
C      1  0.5228190000000  0.5651530000000  0.5780460000000 1.0
C      1  0.5071120000000  0.5441850000000  0.4033670000000 1.0
C      1  0.5207870000000  0.4548110000000  0.4738280000000 1.0
C      1  0.5452010000000  0.4466280000000  0.4575710000000 1.0
C      1  0.4962620000000  0.5724840000000  0.5676420000000 1.0
C      1  0.4696150000000  0.5364100000000  0.4775890000000 1.0
C      1  0.5661480000000  0.4674090000000  0.4676200000000 1.0
C      1  0.5572400000000  0.5647460000000  0.5099180000000 1.0
C      1  0.4311240000000  0.5390150000000  0.5496750000000 1.0
C      1  0.5635340000000  0.4899380000000  0.4117330000000 1.0
C      1  0.5553920000000  0.5395290000000  0.4147220000000 1.0
C      1  0.5370130000000  0.4806510000000  0.4195680000000 1.0
C      1  0.4369550000000  0.4912910000000  0.4311820000000 1.0
C      1  0.4483890000000  0.5613380000000  0.5530480000000 1.0
C      1  0.5564440000000  0.4938650000000  0.4593320000000 1.0
C      1  0.3967720000000  0.5505520000000  0.4967980000000 1.0
C      1  0.5204050000000  0.5982870000000  0.4380770000000 1.0
C      1  0.6004280000000  0.4843340000000  0.4962450000000 1.0
C      1  0.5110640000000  0.4021620000000  0.5147110000000 1.0
C      1  0.4959860000000  0.4607690000000  0.5182640000000 1.0
C      1  0.5862080000000  0.5444620000000  0.5401270000000 1.0
C      1  0.5158970000000  0.4369390000000  0.4150300000000 1.0
C      1  0.4324300000000  0.5076160000000  0.4568440000000 1.0
C      1  0.5316890000000  0.6030680000000  0.5157940000000 1.0
C      1  0.4812490000000  0.5276030000000  0.5031910000000 1.0
C      1  0.4795450000000  0.4608740000000  0.6053750000000 1.0
C      1  0.3969020000000  0.4629360000000  0.5277570000000 1.0
C      1  0.4551860000000  0.4685500000000  0.4399390000000 1.0
C      1  0.5262790000000  0.4147760000000  0.5378060000000 1.0
C      1  0.4637580000000  0.4929620000000  0.5454170000000 1.0
C      1  0.5527600000000  0.4447330000000  0.5117780000000 1.0
C      1  0.5630330000000  0.5881150000000  0.4727420000000 1.0
C      1  0.4760920000000  0.5080640000000  0.5965000000000 1.0
C      1  0.4888860000000  0.4168010000000  0.4439060000000 1.0
C      1  0.4869110000000  0.5867350000000  0.4717510000000 1.0
C      1  0.4235820000000  0.5343730000000  0.4502150000000 1.0
C      1  0.4322300000000  0.5599230000000  0.4459350000000 1.0
C      1  0.4473430000000  0.5799160000000  0.5323930000000 1.0
C      1  0.3676810000000  0.4451930000000  0.4538350000000 1.0
C      1  0.4665650000000  0.4506780000000  0.4165970000000 1.0
C      1  0.3966320000000  0.5394780000000  0.5222600000000 1.0
C      1  0.5918130000000  0.5433230000000  0.4816020000000 1.0
C      1  0.5293680000000  0.4928370000000  0.4466070000000 1.0
C      1  0.5208090000000  0.5206440000000  0.4411030000000 1.0
C      1  0.4639950000000  0.4259550000000  0.4324180000000 1.0
C      1  0.4981660000000  0.4767510000000  0.3894910000000 1.0
C      1  0.4615360000000  0.4818450000000  0.5948390000000 1.0
END
