TITL C-951335-1172-12 -2.72050583847637e-06 125000 -1181.26214994576 0 0 190 (C1) n - 1
REM
REM in /home/bkarasulu/work/CARBON/AIRSS/Generating-Clusters/EDIP-Nigel-Params/with-SteepDescent/Only-C1/SD-CG/HFTN-CG
REM
REM
REM
REM
REM
REM ./C.cell (11c1c37f851c82e70ff6c80c92926a4b)
REM
REM compiler GCC version 9.2.1 20190827 (Red Hat 9.2.1-1)
REM options -cpp -mtune=generic -march=x86-64 -g -O0 -fpre-include=/usr/include/finclude/math-vector-fortran.h
REM seed 1693545517 -1650245985 -417321932 -841594652 504626507 -451962040 -543885773 -1624564664 -2139866098 -880861719 -1739387169 -858073943 776253379 1113157393 662527376 -695210249 -237197322 -49430133 -2041997216 1830955918 956736344 322716081 1686962277 2070069666 729939266 1508915997 -1967760133 -331584166 678494623 -672249826 855898577 2146556580 38777150
REM
CELL 1.54180   50.00000   50.00000   50.00000   90.00000   90.00000   90.00000
LATT -1
SFAC C  
C      1  0.5022540000000  0.5490050000000  0.5991180000000 1.0
C      1  0.4401070000000  0.5042650000000  0.6032570000000 1.0
C      1  0.5844600000000  0.4409250000000  0.5271900000000 1.0
C      1  0.4380340000000  0.5332870000000  0.5002400000000 1.0
C      1  0.4471520000000  0.5708930000000  0.5623490000000 1.0
C      1  0.4633570000000  0.5393280000000  0.5166670000000 1.0
C      1  0.5853720000000  0.4401790000000  0.4502590000000 1.0
C      1  0.5414380000000  0.5886950000000  0.5628500000000 1.0
C      1  0.4033960000000  0.4559500000000  0.5437830000000 1.0
C      1  0.5718060000000  0.4244710000000  0.5465230000000 1.0
C      1  0.5887210000000  0.4915150000000  0.4036100000000 1.0
C      1  0.5523610000000  0.4578860000000  0.5822810000000 1.0
C      1  0.5011210000000  0.5648900000000  0.5320060000000 1.0
C      1  0.4056460000000  0.4868650000000  0.5450290000000 1.0
C      1  0.4807580000000  0.5058440000000  0.4937350000000 1.0
C      1  0.5733510000000  0.4768570000000  0.4860370000000 1.0
C      1  0.5447580000000  0.4861870000000  0.5797750000000 1.0
C      1  0.5451430000000  0.3919250000000  0.4767560000000 1.0
C      1  0.4955920000000  0.5613750000000  0.4601540000000 1.0
C      1  0.5835280000000  0.5569960000000  0.5532280000000 1.0
C      1  0.4771180000000  0.4257910000000  0.5571950000000 1.0
C      1  0.5461730000000  0.3966560000000  0.4493770000000 1.0
C      1  0.5093220000000  0.4395760000000  0.5206490000000 1.0
C      1  0.4349480000000  0.5774330000000  0.4506010000000 1.0
C      1  0.4776990000000  0.5303720000000  0.4757900000000 1.0
C      1  0.5436420000000  0.4281620000000  0.5459090000000 1.0
C      1  0.5566250000000  0.5844070000000  0.4629970000000 1.0
C      1  0.4065060000000  0.4529170000000  0.4209320000000 1.0
C      1  0.5861280000000  0.4642070000000  0.4114800000000 1.0
C      1  0.5221480000000  0.4888040000000  0.4365120000000 1.0
C      1  0.5741210000000  0.4320950000000  0.4982090000000 1.0
C      1  0.4738170000000  0.5442680000000  0.6015190000000 1.0
C      1  0.5657460000000  0.5028710000000  0.4163070000000 1.0
C      1  0.5080370000000  0.4491070000000  0.4644700000000 1.0
C      1  0.5323930000000  0.4968240000000  0.3877830000000 1.0
C      1  0.5616610000000  0.4063630000000  0.4940900000000 1.0
C      1  0.5029240000000  0.4487900000000  0.6075740000000 1.0
C      1  0.5426140000000  0.5326380000000  0.4487310000000 1.0
C      1  0.5959000000000  0.4350330000000  0.4777950000000 1.0
C      1  0.4970990000000  0.5061200000000  0.5207760000000 1.0
C      1  0.4653930000000  0.5343840000000  0.5459360000000 1.0
C      1  0.4568900000000  0.4585280000000  0.5915590000000 1.0
C      1  0.4561770000000  0.5848660000000  0.4314330000000 1.0
C      1  0.5419000000000  0.4860730000000  0.4137500000000 1.0
C      1  0.5315000000000  0.4985730000000  0.4833220000000 1.0
C      1  0.4625310000000  0.4084360000000  0.4508660000000 1.0
C      1  0.4452620000000  0.4957480000000  0.4526210000000 1.0
C      1  0.4309010000000  0.4562720000000  0.5072850000000 1.0
C      1  0.5594290000000  0.5813330000000  0.4341700000000 1.0
C      1  0.4350680000000  0.4760810000000  0.5966470000000 1.0
C      1  0.3933390000000  0.5209840000000  0.5306540000000 1.0
C      1  0.4626310000000  0.4696290000000  0.4583530000000 1.0
C      1  0.5310540000000  0.6052660000000  0.5412950000000 1.0
C      1  0.5340510000000  0.4932990000000  0.5427340000000 1.0
C      1  0.5108500000000  0.4085120000000  0.5233770000000 1.0
C      1  0.4563530000000  0.4071810000000  0.5315350000000 1.0
C      1  0.4116960000000  0.5448630000000  0.5270420000000 1.0
C      1  0.4919440000000  0.4500750000000  0.5425700000000 1.0
C      1  0.5610920000000  0.5419340000000  0.5957970000000 1.0
C      1  0.4481990000000  0.5345630000000  0.4714730000000 1.0
C      1  0.4394790000000  0.5987950000000  0.5235230000000 1.0
C      1  0.4786110000000  0.5068320000000  0.5461520000000 1.0
C      1  0.4980360000000  0.4608670000000  0.4903320000000 1.0
C      1  0.4191130000000  0.5157500000000  0.5857790000000 1.0
C      1  0.4934580000000  0.4032190000000  0.4439860000000 1.0
C      1  0.4231500000000  0.4001500000000  0.4981230000000 1.0
C      1  0.4084760000000  0.5648090000000  0.5044110000000 1.0
C      1  0.5641140000000  0.5266660000000  0.5279480000000 1.0
C      1  0.5471090000000  0.4473850000000  0.6084740000000 1.0
C      1  0.4968530000000  0.4714300000000  0.4398890000000 1.0
C      1  0.4080200000000  0.4913490000000  0.5746590000000 1.0
C      1  0.4582380000000  0.4863190000000  0.5423110000000 1.0
C      1  0.5258820000000  0.4646670000000  0.6179190000000 1.0
C      1  0.5523320000000  0.5621030000000  0.5516470000000 1.0
C      1  0.5345520000000  0.4590720000000  0.5152660000000 1.0
C      1  0.4096030000000  0.4129060000000  0.5195680000000 1.0
C      1  0.5557160000000  0.5168590000000  0.6097670000000 1.0
C      1  0.5759520000000  0.5460100000000  0.4131670000000 1.0
C      1  0.5854150000000  0.5392080000000  0.5773520000000 1.0
C      1  0.3950970000000  0.5060800000000  0.5064620000000 1.0
C      1  0.4797200000000  0.5016140000000  0.4354120000000 1.0
C      1  0.5135220000000  0.3961020000000  0.5511140000000 1.0
C      1  0.3807510000000  0.5136050000000  0.4834600000000 1.0
C      1  0.4324050000000  0.5291840000000  0.5649460000000 1.0
C      1  0.5816360000000  0.5110550000000  0.5695250000000 1.0
C      1  0.5539650000000  0.4540020000000  0.4910460000000 1.0
C      1  0.4641120000000  0.5621940000000  0.4152520000000 1.0
C      1  0.5261420000000  0.4925230000000  0.6047410000000 1.0
C      1  0.4984120000000  0.4111170000000  0.5725060000000 1.0
C      1  0.4811770000000  0.4807640000000  0.3914290000000 1.0
C      1  0.5376150000000  0.5666650000000  0.4207210000000 1.0
C      1  0.4317370000000  0.4865220000000  0.5267590000000 1.0
C      1  0.6134440000000  0.4984650000000  0.5062830000000 1.0
C      1  0.4490730000000  0.4272380000000  0.4313770000000 1.0
C      1  0.5521840000000  0.6017770000000  0.5091840000000 1.0
C      1  0.5263280000000  0.6124770000000  0.5033630000000 1.0
C      1  0.4702760000000  0.4640230000000  0.5305700000000 1.0
C      1  0.5912510000000  0.5375490000000  0.5278430000000 1.0
C      1  0.5605470000000  0.4971790000000  0.5251520000000 1.0
C      1  0.4836040000000  0.6121020000000  0.4824780000000 1.0
C      1  0.5889160000000  0.5736890000000  0.4956440000000 1.0
C      1  0.5838360000000  0.5707570000000  0.4247330000000 1.0
C      1  0.5988910000000  0.4639770000000  0.4382550000000 1.0
C      1  0.5194490000000  0.3870970000000  0.4856550000000 1.0
C      1  0.5679500000000  0.4984880000000  0.5908750000000 1.0
C      1  0.4373490000000  0.5934860000000  0.4755130000000 1.0
C      1  0.5314640000000  0.5514540000000  0.4948030000000 1.0
C      1  0.5167710000000  0.4815500000000  0.5034350000000 1.0
C      1  0.4448330000000  0.4472960000000  0.4780740000000 1.0
C      1  0.4271800000000  0.4881920000000  0.4768810000000 1.0
C      1  0.5278290000000  0.5243710000000  0.3952770000000 1.0
C      1  0.4803340000000  0.6054630000000  0.5527040000000 1.0
C      1  0.5108640000000  0.5766510000000  0.4171490000000 1.0
C      1  0.4615880000000  0.4211180000000  0.4805680000000 1.0
C      1  0.3964800000000  0.5566290000000  0.4805570000000 1.0
C      1  0.5395970000000  0.5470600000000  0.5753250000000 1.0
C      1  0.4555940000000  0.4699530000000  0.4030660000000 1.0
C      1  0.4058390000000  0.4691790000000  0.4668540000000 1.0
C      1  0.5418420000000  0.4007610000000  0.5543190000000 1.0
C      1  0.4079640000000  0.5278880000000  0.4436580000000 1.0
C      1  0.4364770000000  0.4937170000000  0.4090680000000 1.0
C      1  0.4948500000000  0.4196250000000  0.4704730000000 1.0
C      1  0.4888530000000  0.5536180000000  0.5563410000000 1.0
C      1  0.4910230000000  0.5824940000000  0.5710110000000 1.0
C      1  0.5178330000000  0.4293970000000  0.5889080000000 1.0
C      1  0.5196760000000  0.5800310000000  0.5833490000000 1.0
C      1  0.4283530000000  0.5855400000000  0.5016420000000 1.0
C      1  0.4206990000000  0.4345840000000  0.4372390000000 1.0
C      1  0.5026370000000  0.4627630000000  0.3975890000000 1.0
C      1  0.4276520000000  0.4102480000000  0.5431920000000 1.0
C      1  0.4573910000000  0.6128380000000  0.4762090000000 1.0
C      1  0.5922030000000  0.5464370000000  0.4995360000000 1.0
C      1  0.4917290000000  0.5566210000000  0.4081860000000 1.0
C      1  0.5391600000000  0.4168580000000  0.4313920000000 1.0
C      1  0.6090440000000  0.5127310000000  0.5302090000000 1.0
C      1  0.5685690000000  0.5254060000000  0.4342620000000 1.0
C      1  0.4017740000000  0.4749330000000  0.4381420000000 1.0
C      1  0.4311690000000  0.4387440000000  0.5528530000000 1.0
C      1  0.5091540000000  0.5361150000000  0.5733870000000 1.0
C      1  0.5752840000000  0.5283270000000  0.4810530000000 1.0
C      1  0.5517670000000  0.5475130000000  0.4728390000000 1.0
C      1  0.5011040000000  0.5037120000000  0.5700360000000 1.0
C      1  0.4199660000000  0.4982480000000  0.4339960000000 1.0
C      1  0.5564000000000  0.4590860000000  0.4152920000000 1.0
C      1  0.4765780000000  0.6034450000000  0.4373800000000 1.0
C      1  0.4656670000000  0.4477280000000  0.4198440000000 1.0
C      1  0.4533090000000  0.4359400000000  0.5740100000000 1.0
C      1  0.4523010000000  0.5173340000000  0.4036960000000 1.0
C      1  0.5544450000000  0.4411680000000  0.4403790000000 1.0
C      1  0.4524310000000  0.5956510000000  0.5481540000000 1.0
C      1  0.5124810000000  0.4685850000000  0.5562270000000 1.0
C      1  0.4999700000000  0.3915800000000  0.5036100000000 1.0
C      1  0.4802210000000  0.5081840000000  0.4047430000000 1.0
C      1  0.5028380000000  0.5953130000000  0.5336770000000 1.0
C      1  0.5093350000000  0.4226180000000  0.4286960000000 1.0
C      1  0.4836720000000  0.4673990000000  0.5965410000000 1.0
C      1  0.5054360000000  0.5670790000000  0.4878640000000 1.0
C      1  0.5594900000000  0.5008060000000  0.4926560000000 1.0
C      1  0.4472730000000  0.5403580000000  0.4209090000000 1.0
C      1  0.4493500000000  0.4448680000000  0.5267420000000 1.0
C      1  0.5061530000000  0.5976110000000  0.4899770000000 1.0
C      1  0.4675530000000  0.5153530000000  0.5992220000000 1.0
C      1  0.4181770000000  0.4422100000000  0.4653550000000 1.0
C      1  0.4992640000000  0.5866130000000  0.4421220000000 1.0
C      1  0.5385650000000  0.4497620000000  0.4650530000000 1.0
C      1  0.5692030000000  0.5916060000000  0.4880900000000 1.0
C      1  0.4245670000000  0.5042570000000  0.5022470000000 1.0
C      1  0.4997330000000  0.5305360000000  0.3979740000000 1.0
C      1  0.5314400000000  0.4457570000000  0.5665960000000 1.0
C      1  0.4947490000000  0.5233890000000  0.4510530000000 1.0
C      1  0.5891220000000  0.5180140000000  0.4550980000000 1.0
C      1  0.4509360000000  0.4023500000000  0.5016870000000 1.0
C      1  0.4258460000000  0.5533320000000  0.5525390000000 1.0
C      1  0.5230900000000  0.5110330000000  0.4561300000000 1.0
C      1  0.3894860000000  0.5338180000000  0.4661420000000 1.0
C      1  0.4924360000000  0.4399990000000  0.4109160000000 1.0
C      1  0.4048280000000  0.4428740000000  0.5164110000000 1.0
C      1  0.4578890000000  0.5639420000000  0.5879910000000 1.0
C      1  0.6014010000000  0.4751640000000  0.4957090000000 1.0
C      1  0.4324700000000  0.5456350000000  0.4470580000000 1.0
C      1  0.5975160000000  0.4904330000000  0.4514320000000 1.0
C      1  0.4915470000000  0.4961550000000  0.5981300000000 1.0
C      1  0.5382700000000  0.5425770000000  0.5243020000000 1.0
C      1  0.5849990000000  0.4700810000000  0.5365330000000 1.0
C      1  0.4762580000000  0.4783280000000  0.4835690000000 1.0
C      1  0.5472520000000  0.5478100000000  0.4002040000000 1.0
C      1  0.4849190000000  0.5581290000000  0.5088190000000 1.0
C      1  0.5207570000000  0.5195560000000  0.5338030000000 1.0
C      1  0.6164480000000  0.4531710000000  0.4856980000000 1.0
C      1  0.5966540000000  0.4947960000000  0.5496090000000 1.0
END
