TITL C-951335-1172-351 -1.80993340548343e-06 125000 -1007.06938284678 0 0 160 (C1) n - 1
REM
REM in /home/bkarasulu/work/CARBON/AIRSS/Generating-Clusters/EDIP-Nigel-Params/with-SteepDescent/Only-C1/SD-CG/HFTN-CG
REM
REM
REM
REM
REM
REM ./C.cell (11c1c37f851c82e70ff6c80c92926a4b)
REM
REM compiler GCC version 9.2.1 20190827 (Red Hat 9.2.1-1)
REM options -cpp -mtune=generic -march=x86-64 -g -O0 -fpre-include=/usr/include/finclude/math-vector-fortran.h
REM seed 943037056 699246433 949804681 -1617099059 -1738556855 2027227105 230835501 1693791671 -682647197 -1271495067 -1278273573 -1450307717 -1010701803 549496251 -1184840198 127045209 -499686515 1520142363 -236528699 -1283652725 -1843744771 1956483773 -2065950581 -1422984143 1318157187 1012119215 531756683 -353306462 -1005602027 -951064166 -1497101394 -217805096 -922011236
REM
CELL 1.54180   50.00000   50.00000   50.00000   90.00000   90.00000   90.00000
LATT -1
SFAC C  
C      1  0.5140680000000  0.5719210000000  0.5858800000000 1.0
C      1  0.5025210000000  0.4880000000000  0.4794440000000 1.0
C      1  0.5304990000000  0.4672500000000  0.5118330000000 1.0
C      1  0.5424070000000  0.5015300000000  0.5994930000000 1.0
C      1  0.5083290000000  0.4258720000000  0.4492260000000 1.0
C      1  0.5468810000000  0.4362100000000  0.4726270000000 1.0
C      1  0.5771740000000  0.4291590000000  0.5311510000000 1.0
C      1  0.5317870000000  0.4195890000000  0.5542680000000 1.0
C      1  0.3953630000000  0.5360320000000  0.5091650000000 1.0
C      1  0.5410970000000  0.5727060000000  0.5730540000000 1.0
C      1  0.4627650000000  0.4725940000000  0.4209420000000 1.0
C      1  0.5092920000000  0.5144320000000  0.5734440000000 1.0
C      1  0.4911930000000  0.4400070000000  0.5260770000000 1.0
C      1  0.4823630000000  0.5340260000000  0.4452200000000 1.0
C      1  0.5564190000000  0.5029860000000  0.5353650000000 1.0
C      1  0.4902240000000  0.5099210000000  0.5251380000000 1.0
C      1  0.5179890000000  0.4731460000000  0.4349290000000 1.0
C      1  0.5337610000000  0.5263720000000  0.4382200000000 1.0
C      1  0.3993010000000  0.4696470000000  0.5430030000000 1.0
C      1  0.5513290000000  0.4723470000000  0.5357380000000 1.0
C      1  0.4821650000000  0.5820230000000  0.4609180000000 1.0
C      1  0.4385370000000  0.5582960000000  0.4554660000000 1.0
C      1  0.5800360000000  0.4786920000000  0.5826660000000 1.0
C      1  0.4412520000000  0.5123300000000  0.4288160000000 1.0
C      1  0.4898640000000  0.4741820000000  0.5719120000000 1.0
C      1  0.3973830000000  0.4512860000000  0.4950700000000 1.0
C      1  0.4470400000000  0.3964610000000  0.4769530000000 1.0
C      1  0.5158550000000  0.5165330000000  0.3901750000000 1.0
C      1  0.5824700000000  0.5254690000000  0.4241160000000 1.0
C      1  0.4601830000000  0.4373990000000  0.5307870000000 1.0
C      1  0.4014150000000  0.4820220000000  0.4980990000000 1.0
C      1  0.5160430000000  0.5521790000000  0.6082950000000 1.0
C      1  0.4591230000000  0.4028310000000  0.4506600000000 1.0
C      1  0.5021280000000  0.5915440000000  0.4804850000000 1.0
C      1  0.4657500000000  0.5566320000000  0.5358120000000 1.0
C      1  0.4180970000000  0.4776310000000  0.5646240000000 1.0
C      1  0.5046650000000  0.5394790000000  0.5574740000000 1.0
C      1  0.4674950000000  0.5544300000000  0.4635240000000 1.0
C      1  0.5740760000000  0.5062000000000  0.5109790000000 1.0
C      1  0.5464450000000  0.5632860000000  0.5448700000000 1.0
C      1  0.5673780000000  0.4893810000000  0.4866480000000 1.0
C      1  0.5112260000000  0.4093210000000  0.5368770000000 1.0
C      1  0.5815620000000  0.5485220000000  0.5193590000000 1.0
C      1  0.4287570000000  0.4834690000000  0.5131890000000 1.0
C      1  0.4987440000000  0.5270670000000  0.6088430000000 1.0
C      1  0.4255580000000  0.5075970000000  0.5704620000000 1.0
C      1  0.5686080000000  0.5727870000000  0.4394800000000 1.0
C      1  0.5532550000000  0.5806190000000  0.4962360000000 1.0
C      1  0.4879480000000  0.4862470000000  0.5045320000000 1.0
C      1  0.5297960000000  0.4425360000000  0.4964550000000 1.0
C      1  0.6002300000000  0.4810530000000  0.5396000000000 1.0
C      1  0.5441760000000  0.5868200000000  0.5243850000000 1.0
C      1  0.4441790000000  0.4642150000000  0.5619070000000 1.0
C      1  0.5166560000000  0.5991220000000  0.5247630000000 1.0
C      1  0.4240900000000  0.5661000000000  0.4817080000000 1.0
C      1  0.4380060000000  0.4824230000000  0.4336460000000 1.0
C      1  0.5525340000000  0.4768610000000  0.5876020000000 1.0
C      1  0.4579770000000  0.5531250000000  0.5927650000000 1.0
C      1  0.5288730000000  0.5155320000000  0.5288640000000 1.0
C      1  0.5475500000000  0.5210070000000  0.3897110000000 1.0
C      1  0.5414980000000  0.4446810000000  0.4213850000000 1.0
C      1  0.4917520000000  0.3872510000000  0.4948580000000 1.0
C      1  0.4910710000000  0.4767170000000  0.4545100000000 1.0
C      1  0.4511820000000  0.4098480000000  0.5227890000000 1.0
C      1  0.5308550000000  0.5805830000000  0.4744550000000 1.0
C      1  0.5315630000000  0.4871340000000  0.4888060000000 1.0
C      1  0.5826780000000  0.4637200000000  0.4972460000000 1.0
C      1  0.4921710000000  0.5873010000000  0.4352260000000 1.0
C      1  0.4407570000000  0.4547610000000  0.4787600000000 1.0
C      1  0.5447090000000  0.3955330000000  0.4973390000000 1.0
C      1  0.5916460000000  0.4966950000000  0.4676860000000 1.0
C      1  0.4208410000000  0.4097870000000  0.4855700000000 1.0
C      1  0.4155240000000  0.4374300000000  0.4749090000000 1.0
C      1  0.5788870000000  0.4599700000000  0.5281110000000 1.0
C      1  0.5688200000000  0.5539840000000  0.4941940000000 1.0
C      1  0.5495600000000  0.5236550000000  0.5818060000000 1.0
C      1  0.5316810000000  0.5138960000000  0.5002990000000 1.0
C      1  0.5150290000000  0.5019490000000  0.6092610000000 1.0
C      1  0.5182050000000  0.4423740000000  0.4043110000000 1.0
C      1  0.5715490000000  0.5537660000000  0.4173740000000 1.0
C      1  0.5534210000000  0.5219750000000  0.4598290000000 1.0
C      1  0.5908860000000  0.4963880000000  0.5639670000000 1.0
C      1  0.5296020000000  0.4999720000000  0.4230020000000 1.0
C      1  0.5032980000000  0.6090960000000  0.5473930000000 1.0
C      1  0.5179920000000  0.3987700000000  0.4529380000000 1.0
C      1  0.4436000000000  0.5220250000000  0.4947770000000 1.0
C      1  0.4693190000000  0.5845610000000  0.5231040000000 1.0
C      1  0.5106560000000  0.4877340000000  0.5576180000000 1.0
C      1  0.4969250000000  0.4317950000000  0.4220330000000 1.0
C      1  0.5032730000000  0.4688610000000  0.5243680000000 1.0
C      1  0.5442020000000  0.5445570000000  0.4109110000000 1.0
C      1  0.4222080000000  0.4138160000000  0.5156820000000 1.0
C      1  0.4056830000000  0.4933480000000  0.4694840000000 1.0
C      1  0.5039900000000  0.4293230000000  0.4995300000000 1.0
C      1  0.4330460000000  0.4820970000000  0.4637880000000 1.0
C      1  0.4717550000000  0.5280420000000  0.5927970000000 1.0
C      1  0.4730960000000  0.4925420000000  0.4022740000000 1.0
C      1  0.5694750000000  0.5191560000000  0.5583950000000 1.0
C      1  0.5723220000000  0.5470620000000  0.5452230000000 1.0
C      1  0.5224850000000  0.4423460000000  0.5687830000000 1.0
C      1  0.4659460000000  0.5017130000000  0.5395350000000 1.0
C      1  0.4598600000000  0.5188080000000  0.4061880000000 1.0
C      1  0.4686980000000  0.4434290000000  0.4205100000000 1.0
C      1  0.5210540000000  0.5511620000000  0.4786590000000 1.0
C      1  0.5427330000000  0.4053740000000  0.4689060000000 1.0
C      1  0.4356060000000  0.5512820000000  0.5394360000000 1.0
C      1  0.5232480000000  0.5447220000000  0.5352160000000 1.0
C      1  0.6113870000000  0.4885180000000  0.4896170000000 1.0
C      1  0.4642170000000  0.4856600000000  0.5650230000000 1.0
C      1  0.3961390000000  0.5201030000000  0.5318640000000 1.0
C      1  0.4410760000000  0.4564900000000  0.5113560000000 1.0
C      1  0.5223650000000  0.5636670000000  0.4036800000000 1.0
C      1  0.5183460000000  0.5820340000000  0.4262740000000 1.0
C      1  0.4755840000000  0.6035900000000  0.5458070000000 1.0
C      1  0.4938920000000  0.4462090000000  0.5698140000000 1.0
C      1  0.4121210000000  0.4432410000000  0.5207800000000 1.0
C      1  0.5908430000000  0.5737370000000  0.4568450000000 1.0
C      1  0.4432180000000  0.5864850000000  0.5067810000000 1.0
C      1  0.5453390000000  0.5506760000000  0.5947930000000 1.0
C      1  0.4242690000000  0.5697530000000  0.5203810000000 1.0
C      1  0.5358210000000  0.4689410000000  0.5636100000000 1.0
C      1  0.4998160000000  0.4913530000000  0.3917010000000 1.0
C      1  0.4506380000000  0.4365140000000  0.5673240000000 1.0
C      1  0.4719000000000  0.5036250000000  0.4511010000000 1.0
C      1  0.5120170000000  0.4667210000000  0.3925580000000 1.0
C      1  0.5407100000000  0.5824980000000  0.4459030000000 1.0
C      1  0.5822500000000  0.5240060000000  0.4552300000000 1.0
C      1  0.4240670000000  0.5226700000000  0.5427590000000 1.0
C      1  0.4886420000000  0.4261160000000  0.4727740000000 1.0
C      1  0.4246330000000  0.5337760000000  0.4435620000000 1.0
C      1  0.4976780000000  0.5833650000000  0.5086990000000 1.0
C      1  0.4744410000000  0.4289240000000  0.5796760000000 1.0
C      1  0.4536490000000  0.5053080000000  0.5853300000000 1.0
C      1  0.5642430000000  0.5050890000000  0.4097420000000 1.0
C      1  0.5106450000000  0.5373930000000  0.4531880000000 1.0
C      1  0.4158930000000  0.5367850000000  0.4888940000000 1.0
C      1  0.4690610000000  0.5790710000000  0.5909940000000 1.0
C      1  0.5453910000000  0.5345390000000  0.4849240000000 1.0
C      1  0.5066890000000  0.5544180000000  0.5094640000000 1.0
C      1  0.5590830000000  0.4189420000000  0.5493270000000 1.0
C      1  0.4694940000000  0.4488000000000  0.4644040000000 1.0
C      1  0.4552510000000  0.4313680000000  0.4437230000000 1.0
C      1  0.4778970000000  0.5406320000000  0.4147910000000 1.0
C      1  0.4815800000000  0.5391760000000  0.5147500000000 1.0
C      1  0.5749360000000  0.4378530000000  0.4837600000000 1.0
C      1  0.5726620000000  0.4165840000000  0.5047540000000 1.0
C      1  0.3872110000000  0.4918670000000  0.5259420000000 1.0
C      1  0.5013270000000  0.5431440000000  0.3961440000000 1.0
C      1  0.4522360000000  0.5015380000000  0.4741260000000 1.0
C      1  0.4808340000000  0.5568250000000  0.5617030000000 1.0
C      1  0.4655080000000  0.5406390000000  0.4908770000000 1.0
C      1  0.5414480000000  0.4552180000000  0.4483600000000 1.0
C      1  0.4914410000000  0.3881510000000  0.4649430000000 1.0
C      1  0.5889950000000  0.5501530000000  0.4715560000000 1.0
C      1  0.4646110000000  0.5965010000000  0.5701620000000 1.0
C      1  0.4417690000000  0.5077770000000  0.5232890000000 1.0
C      1  0.4056530000000  0.5231130000000  0.4645630000000 1.0
C      1  0.6025770000000  0.4992710000000  0.5157680000000 1.0
C      1  0.4654740000000  0.3994570000000  0.4992130000000 1.0
C      1  0.5167920000000  0.3942700000000  0.5112070000000 1.0
END
