TITL C-951341-1326-456 1.55232277823744e-06 125000 -544.549087833806 0 0 90 (C1) n - 1
REM
REM in /home/bkarasulu/work/CARBON/AIRSS/Generating-Clusters/EDIP-Nigel-Params/with-SteepDescent/Only-C1/SD-CG/HFTN-CG
REM
REM
REM
REM
REM
REM ./C.cell (11c1c37f851c82e70ff6c80c92926a4b)
REM
REM compiler GCC version 9.2.1 20190827 (Red Hat 9.2.1-1)
REM options -cpp -mtune=generic -march=x86-64 -g -O0 -fpre-include=/usr/include/finclude/math-vector-fortran.h
REM seed 457997430 425147289 433630642 271898537 -1648547129 -146920074 -1557648196 -520418070 -2051278238 886838946 -2121347935 -1303406427 -686452394 -1937710623 919785619 1046374498 -781978065 -1430322352 867093673 -1435979223 -369417812 898967274 1970798969 493559522 615747235 -1480257480 762893213 -1583002771 20929471 1938706419 606901763 1694475918 311701789
REM
CELL 1.54180   50.00000   50.00000   50.00000   90.00000   90.00000   90.00000
LATT -1
SFAC C  
C      1  0.5672370000000  0.5326690000000  0.5280020000000 1.0
C      1  0.4922150000000  0.4975910000000  0.4813890000000 1.0
C      1  0.5504590000000  0.5605310000000  0.4879450000000 1.0
C      1  0.5432480000000  0.4897640000000  0.4927330000000 1.0
C      1  0.4665070000000  0.5371940000000  0.5773660000000 1.0
C      1  0.4696880000000  0.4622480000000  0.5494040000000 1.0
C      1  0.4567810000000  0.4905000000000  0.5545320000000 1.0
C      1  0.5221010000000  0.4254350000000  0.5378700000000 1.0
C      1  0.4898150000000  0.4443860000000  0.4340630000000 1.0
C      1  0.4878300000000  0.5572410000000  0.5719520000000 1.0
C      1  0.4858260000000  0.4164650000000  0.4780520000000 1.0
C      1  0.5142190000000  0.5932720000000  0.4960240000000 1.0
C      1  0.4804860000000  0.5280120000000  0.5276770000000 1.0
C      1  0.5096570000000  0.4820380000000  0.4439590000000 1.0
C      1  0.5129150000000  0.4532360000000  0.4968440000000 1.0
C      1  0.5617570000000  0.5368440000000  0.4997450000000 1.0
C      1  0.5254240000000  0.5406130000000  0.4447650000000 1.0
C      1  0.4559140000000  0.4773850000000  0.4490460000000 1.0
C      1  0.4693210000000  0.5564780000000  0.5381230000000 1.0
C      1  0.4249150000000  0.5374450000000  0.4701630000000 1.0
C      1  0.4414980000000  0.5500890000000  0.4915560000000 1.0
C      1  0.5312120000000  0.4637280000000  0.4349060000000 1.0
C      1  0.4762610000000  0.4711990000000  0.4266270000000 1.0
C      1  0.4912510000000  0.5881590000000  0.5165660000000 1.0
C      1  0.4672730000000  0.5841190000000  0.5039340000000 1.0
C      1  0.5473910000000  0.5024050000000  0.4165840000000 1.0
C      1  0.5172550000000  0.4389970000000  0.4293730000000 1.0
C      1  0.4289060000000  0.4713490000000  0.5046420000000 1.0
C      1  0.5085040000000  0.5631690000000  0.5201500000000 1.0
C      1  0.4161460000000  0.5128390000000  0.5542280000000 1.0
C      1  0.4299300000000  0.4928940000000  0.4412420000000 1.0
C      1  0.5390090000000  0.5145100000000  0.4413960000000 1.0
C      1  0.5333310000000  0.4702230000000  0.5128440000000 1.0
C      1  0.4483180000000  0.5087420000000  0.4817410000000 1.0
C      1  0.4957630000000  0.5452860000000  0.4406900000000 1.0
C      1  0.4350690000000  0.5486040000000  0.5217910000000 1.0
C      1  0.5424630000000  0.4678100000000  0.5569970000000 1.0
C      1  0.5769070000000  0.4486560000000  0.4929500000000 1.0
C      1  0.4214170000000  0.5077040000000  0.4661810000000 1.0
C      1  0.5334440000000  0.5643940000000  0.5557510000000 1.0
C      1  0.4701650000000  0.5605780000000  0.4872070000000 1.0
C      1  0.5869640000000  0.4755450000000  0.4829460000000 1.0
C      1  0.5101830000000  0.5793900000000  0.4690060000000 1.0
C      1  0.5169730000000  0.4025560000000  0.4932790000000 1.0
C      1  0.5448590000000  0.5403700000000  0.5452010000000 1.0
C      1  0.5330650000000  0.4290440000000  0.4924980000000 1.0
C      1  0.5019740000000  0.4097590000000  0.5203690000000 1.0
C      1  0.4720980000000  0.5078970000000  0.5740840000000 1.0
C      1  0.5642640000000  0.4501620000000  0.5198880000000 1.0
C      1  0.5534850000000  0.4941830000000  0.5553070000000 1.0
C      1  0.4976040000000  0.4561720000000  0.5365760000000 1.0
C      1  0.5483650000000  0.4658200000000  0.4619040000000 1.0
C      1  0.5664910000000  0.5086970000000  0.4495150000000 1.0
C      1  0.5441390000000  0.4753190000000  0.4118100000000 1.0
C      1  0.4293500000000  0.5209330000000  0.5307230000000 1.0
C      1  0.4914930000000  0.5424330000000  0.5021690000000 1.0
C      1  0.4754690000000  0.4342920000000  0.4578680000000 1.0
C      1  0.4924280000000  0.4972440000000  0.4223790000000 1.0
C      1  0.4288820000000  0.4901350000000  0.5628630000000 1.0
C      1  0.5236220000000  0.5257360000000  0.5818890000000 1.0
C      1  0.5202200000000  0.4496480000000  0.5575920000000 1.0
C      1  0.5301120000000  0.5158620000000  0.5036190000000 1.0
C      1  0.5455670000000  0.4283750000000  0.5194910000000 1.0
C      1  0.4843900000000  0.5673740000000  0.4593650000000 1.0
C      1  0.4471330000000  0.5500350000000  0.5587130000000 1.0
C      1  0.4695460000000  0.5012300000000  0.4632240000000 1.0
C      1  0.4419310000000  0.4490110000000  0.4933650000000 1.0
C      1  0.5729070000000  0.5041250000000  0.5351770000000 1.0
C      1  0.4782240000000  0.5221220000000  0.4320310000000 1.0
C      1  0.5734920000000  0.4811630000000  0.4565320000000 1.0
C      1  0.5387730000000  0.5785400000000  0.5074090000000 1.0
C      1  0.4492140000000  0.4909940000000  0.5047650000000 1.0
C      1  0.4551160000000  0.5068640000000  0.5285950000000 1.0
C      1  0.5331140000000  0.5161610000000  0.5553070000000 1.0
C      1  0.4861430000000  0.4956280000000  0.5949430000000 1.0
C      1  0.5285860000000  0.5569070000000  0.4687500000000 1.0
C      1  0.5160890000000  0.5536840000000  0.5761940000000 1.0
C      1  0.4522670000000  0.4426960000000  0.5399620000000 1.0
C      1  0.5716860000000  0.4942400000000  0.4990220000000 1.0
C      1  0.5066700000000  0.4741000000000  0.4739170000000 1.0
C      1  0.4547600000000  0.4525260000000  0.4667850000000 1.0
C      1  0.5072370000000  0.5221560000000  0.4866380000000 1.0
C      1  0.4833350000000  0.4280520000000  0.5055340000000 1.0
C      1  0.5133350000000  0.5119850000000  0.5314370000000 1.0
C      1  0.5551690000000  0.4393710000000  0.4740830000000 1.0
C      1  0.4552810000000  0.5289420000000  0.4162910000000 1.0
C      1  0.4351200000000  0.5120150000000  0.4214960000000 1.0
C      1  0.4555140000000  0.4329920000000  0.5138650000000 1.0
C      1  0.5083870000000  0.5101100000000  0.5991880000000 1.0
C      1  0.5111510000000  0.4826050000000  0.5294260000000 1.0
END
