TITL C-950524-1808-22 1.07768311365672e-07 125000 -429.151999617736 0 0 70 (C1) n - 1
REM
REM in /home/bkarasulu/work/CARBON/AIRSS/Generating-Clusters/EDIP-Nigel-Params/with-SteepDescent/Only-C1/SD-CG/HFTN-CG
REM
REM
REM
REM
REM
REM ./C.cell (11c1c37f851c82e70ff6c80c92926a4b)
REM
REM compiler GCC version 9.2.1 20190827 (Red Hat 9.2.1-1)
REM options -cpp -mtune=generic -march=x86-64 -g -O0 -fpre-include=/usr/include/finclude/math-vector-fortran.h
REM seed 1994676319 -150179707 1884868300 -313338892 491919397 -344446724 1474965493 -2113821090 722603315 1224445284 -221370280 1278113258 -945244085 192157403 -2132538511 778921414 -325082131 -1068689915 -1543880364 323669395 -1544581379 143568586 65788687 -1835021511 1064867430 -1492618416 1779093422 -3319184 -1893354284 -137435554 1303783573 -1174249825 -400942603
REM
CELL 1.54180   50.00000   50.00000   50.00000   90.00000   90.00000   90.00000
LATT -1
SFAC C  
C      1  0.4839780000000  0.4743040000000  0.4762430000000 1.0
C      1  0.4337740000000  0.5222010000000  0.5533610000000 1.0
C      1  0.4540780000000  0.4576370000000  0.5438130000000 1.0
C      1  0.4525400000000  0.5149220000000  0.5736940000000 1.0
C      1  0.5367740000000  0.4476400000000  0.5412370000000 1.0
C      1  0.5143180000000  0.5582350000000  0.5157090000000 1.0
C      1  0.4277150000000  0.4961590000000  0.5431330000000 1.0
C      1  0.5546140000000  0.4837730000000  0.4381340000000 1.0
C      1  0.4512000000000  0.4657700000000  0.5154770000000 1.0
C      1  0.4733000000000  0.5200450000000  0.5053400000000 1.0
C      1  0.4630560000000  0.5257060000000  0.4484100000000 1.0
C      1  0.4988140000000  0.5056390000000  0.5897140000000 1.0
C      1  0.4877440000000  0.4983770000000  0.5212510000000 1.0
C      1  0.5194610000000  0.4886870000000  0.4762940000000 1.0
C      1  0.4262300000000  0.5297190000000  0.4837370000000 1.0
C      1  0.4661120000000  0.4591950000000  0.4321200000000 1.0
C      1  0.5187150000000  0.5298330000000  0.5052680000000 1.0
C      1  0.4386300000000  0.4874010000000  0.4596440000000 1.0
C      1  0.5516900000000  0.4572130000000  0.4474760000000 1.0
C      1  0.5399700000000  0.4445030000000  0.4936830000000 1.0
C      1  0.4658990000000  0.5447780000000  0.5213760000000 1.0
C      1  0.4458630000000  0.5088770000000  0.4952850000000 1.0
C      1  0.4334900000000  0.4891610000000  0.5145100000000 1.0
C      1  0.4825610000000  0.4242750000000  0.5010570000000 1.0
C      1  0.4952100000000  0.4504020000000  0.5693810000000 1.0
C      1  0.5115940000000  0.5703930000000  0.4871260000000 1.0
C      1  0.5527470000000  0.4937200000000  0.5290910000000 1.0
C      1  0.4970890000000  0.5401050000000  0.5573240000000 1.0
C      1  0.5080850000000  0.4691830000000  0.5851020000000 1.0
C      1  0.4576130000000  0.4659450000000  0.4601420000000 1.0
C      1  0.4797070000000  0.5013430000000  0.4485490000000 1.0
C      1  0.5222690000000  0.5250120000000  0.5523380000000 1.0
C      1  0.4957480000000  0.5291800000000  0.4848030000000 1.0
C      1  0.5291810000000  0.4950790000000  0.4294040000000 1.0
C      1  0.5248380000000  0.5239100000000  0.4321100000000 1.0
C      1  0.5348500000000  0.5645400000000  0.4723850000000 1.0
C      1  0.4440570000000  0.4794060000000  0.5606230000000 1.0
C      1  0.5059850000000  0.4418110000000  0.4569750000000 1.0
C      1  0.5471170000000  0.5255940000000  0.4961910000000 1.0
C      1  0.4804590000000  0.5219700000000  0.5743570000000 1.0
C      1  0.4863860000000  0.5644410000000  0.4732890000000 1.0
C      1  0.5456330000000  0.5421670000000  0.5432870000000 1.0
C      1  0.5442610000000  0.4731130000000  0.5497800000000 1.0
C      1  0.5548000000000  0.5452370000000  0.4752130000000 1.0
C      1  0.4892980000000  0.5568440000000  0.5340580000000 1.0
C      1  0.5621780000000  0.4814190000000  0.5036910000000 1.0
C      1  0.4801500000000  0.4720590000000  0.5072140000000 1.0
C      1  0.4486910000000  0.5624910000000  0.5083140000000 1.0
C      1  0.4930720000000  0.4451030000000  0.5181150000000 1.0
C      1  0.5653570000000  0.5023560000000  0.4586240000000 1.0
C      1  0.5380700000000  0.5661570000000  0.5305280000000 1.0
C      1  0.5047580000000  0.5101710000000  0.4627950000000 1.0
C      1  0.5330150000000  0.4813220000000  0.5754530000000 1.0
C      1  0.5334040000000  0.4450540000000  0.4651290000000 1.0
C      1  0.5229730000000  0.4432180000000  0.5174940000000 1.0
C      1  0.5482480000000  0.4977060000000  0.4830140000000 1.0
C      1  0.5162410000000  0.5078300000000  0.5266390000000 1.0
C      1  0.4817550000000  0.5496830000000  0.4482310000000 1.0
C      1  0.4962820000000  0.4497740000000  0.4295730000000 1.0
C      1  0.4313320000000  0.5565530000000  0.4887440000000 1.0
C      1  0.5656620000000  0.4536340000000  0.4999980000000 1.0
C      1  0.5259050000000  0.5093800000000  0.5782470000000 1.0
C      1  0.5646920000000  0.5304550000000  0.4531230000000 1.0
C      1  0.5051240000000  0.5432670000000  0.4339380000000 1.0
C      1  0.4807330000000  0.4448610000000  0.5462080000000 1.0
C      1  0.4359040000000  0.5164710000000  0.4575540000000 1.0
C      1  0.4807990000000  0.4852910000000  0.4224350000000 1.0
C      1  0.5603390000000  0.5242710000000  0.5249690000000 1.0
C      1  0.5097290000000  0.4770130000000  0.4170550000000 1.0
C      1  0.4881310000000  0.4310110000000  0.4754210000000 1.0
END
