TITL C-950528-5794-430 -4.36393277097385e-07 125000 -707.548908199142 0 0 114 (C1) n - 1
REM
REM in /home/bkarasulu/work/CARBON/AIRSS/Generating-Clusters/EDIP-Nigel-Params/with-SteepDescent/Only-C1/SD-CG/HFTN-CG
REM
REM
REM
REM
REM
REM ./C.cell (11c1c37f851c82e70ff6c80c92926a4b)
REM
REM compiler GCC version 9.2.1 20190827 (Red Hat 9.2.1-1)
REM options -cpp -mtune=generic -march=x86-64 -g -O0 -fpre-include=/usr/include/finclude/math-vector-fortran.h
REM seed -1764409460 682094622 -941882492 -1825195308 -960554897 -1792839322 -2025140586 1576433701 -1570166743 -897140963 -682673409 -1956232318 -925631752 -886907968 1926869431 -1112295019 1088029034 1041185890 -889241711 -864410424 573590019 -2109440861 513628137 1348631772 -242609279 -926675833 354692865 -1142942168 680044622 -380709300 1584437764 186945943 1517743902
REM
CELL 1.54180   50.00000   50.00000   50.00000   90.00000   90.00000   90.00000
LATT -1
SFAC C  
C      1  0.4359010000000  0.5225930000000  0.4534110000000 1.0
C      1  0.5124310000000  0.4382140000000  0.5723640000000 1.0
C      1  0.4263120000000  0.4805250000000  0.5393410000000 1.0
C      1  0.4154820000000  0.4554290000000  0.4997070000000 1.0
C      1  0.4666500000000  0.4689120000000  0.5130560000000 1.0
C      1  0.4239600000000  0.5278790000000  0.4808500000000 1.0
C      1  0.5525000000000  0.4242440000000  0.4794160000000 1.0
C      1  0.5402220000000  0.4469090000000  0.5670760000000 1.0
C      1  0.5265930000000  0.4122070000000  0.4792140000000 1.0
C      1  0.4396130000000  0.5050600000000  0.5525550000000 1.0
C      1  0.5182340000000  0.5354380000000  0.4690280000000 1.0
C      1  0.5281040000000  0.5510040000000  0.5195660000000 1.0
C      1  0.4716510000000  0.5183660000000  0.4885690000000 1.0
C      1  0.5397940000000  0.4754870000000  0.5731100000000 1.0
C      1  0.4814220000000  0.5095300000000  0.4387790000000 1.0
C      1  0.4662770000000  0.5260440000000  0.4588640000000 1.0
C      1  0.5094780000000  0.4154130000000  0.4554120000000 1.0
C      1  0.4878390000000  0.4558500000000  0.4932020000000 1.0
C      1  0.4261090000000  0.4510070000000  0.5459760000000 1.0
C      1  0.4614010000000  0.4917140000000  0.5915540000000 1.0
C      1  0.4776010000000  0.5195210000000  0.4115860000000 1.0
C      1  0.4691170000000  0.5061930000000  0.5454000000000 1.0
C      1  0.5327880000000  0.4516670000000  0.4453280000000 1.0
C      1  0.5013740000000  0.5816600000000  0.5384330000000 1.0
C      1  0.5046810000000  0.5565460000000  0.4823730000000 1.0
C      1  0.4554360000000  0.4925570000000  0.4954860000000 1.0
C      1  0.4300820000000  0.4549640000000  0.4743150000000 1.0
C      1  0.4857940000000  0.4629870000000  0.4073120000000 1.0
C      1  0.4474300000000  0.4781980000000  0.4701450000000 1.0
C      1  0.4342660000000  0.5497940000000  0.5246220000000 1.0
C      1  0.5082040000000  0.4123030000000  0.5020360000000 1.0
C      1  0.5722800000000  0.4991750000000  0.4823750000000 1.0
C      1  0.5143770000000  0.4621270000000  0.5074820000000 1.0
C      1  0.5255310000000  0.4891900000000  0.4703530000000 1.0
C      1  0.4908990000000  0.5267700000000  0.5519680000000 1.0
C      1  0.5318430000000  0.4819360000000  0.4064090000000 1.0
C      1  0.5368280000000  0.4702150000000  0.4899770000000 1.0
C      1  0.5789180000000  0.5428640000000  0.5085240000000 1.0
C      1  0.4760190000000  0.4708410000000  0.5762760000000 1.0
C      1  0.5090290000000  0.5101460000000  0.4809570000000 1.0
C      1  0.4810860000000  0.4192750000000  0.4625610000000 1.0
C      1  0.5324520000000  0.5529050000000  0.5731550000000 1.0
C      1  0.5086740000000  0.5089650000000  0.5107260000000 1.0
C      1  0.4156580000000  0.4825990000000  0.5120450000000 1.0
C      1  0.5709780000000  0.4843370000000  0.4359210000000 1.0
C      1  0.5589180000000  0.4857490000000  0.5059700000000 1.0
C      1  0.5522640000000  0.5349040000000  0.5203240000000 1.0
C      1  0.5519710000000  0.4974980000000  0.4198430000000 1.0
C      1  0.4825310000000  0.4243510000000  0.4925810000000 1.0
C      1  0.4670610000000  0.5911350000000  0.4960030000000 1.0
C      1  0.4357500000000  0.4329280000000  0.4580670000000 1.0
C      1  0.4581300000000  0.5631080000000  0.5637020000000 1.0
C      1  0.4933290000000  0.5645190000000  0.4138270000000 1.0
C      1  0.4270990000000  0.5285730000000  0.5414600000000 1.0
C      1  0.5594280000000  0.5542090000000  0.5640390000000 1.0
C      1  0.4385420000000  0.5039610000000  0.5814080000000 1.0
C      1  0.4897780000000  0.4806550000000  0.4415230000000 1.0
C      1  0.4577070000000  0.4341860000000  0.5171230000000 1.0
C      1  0.5251050000000  0.5389050000000  0.4406270000000 1.0
C      1  0.5010900000000  0.4603400000000  0.5883490000000 1.0
C      1  0.4805060000000  0.4799470000000  0.5386300000000 1.0
C      1  0.5738040000000  0.5642930000000  0.4876480000000 1.0
C      1  0.4938020000000  0.5099160000000  0.3907460000000 1.0
C      1  0.5918340000000  0.5156730000000  0.4993370000000 1.0
C      1  0.5774140000000  0.4511210000000  0.5363130000000 1.0
C      1  0.4604640000000  0.4565930000000  0.4204410000000 1.0
C      1  0.5460400000000  0.5810880000000  0.4673230000000 1.0
C      1  0.4703040000000  0.5483460000000  0.4125620000000 1.0
C      1  0.4477880000000  0.5716670000000  0.4822780000000 1.0
C      1  0.5743780000000  0.4758310000000  0.4624660000000 1.0
C      1  0.4265890000000  0.4362190000000  0.5197450000000 1.0
C      1  0.4989510000000  0.4275870000000  0.5485800000000 1.0
C      1  0.4527380000000  0.5678470000000  0.5368910000000 1.0
C      1  0.4840450000000  0.5929000000000  0.4694870000000 1.0
C      1  0.4481660000000  0.4393760000000  0.5622650000000 1.0
C      1  0.5833350000000  0.4709220000000  0.5175870000000 1.0
C      1  0.5516030000000  0.4517750000000  0.4689740000000 1.0
C      1  0.5820400000000  0.5403950000000  0.5528460000000 1.0
C      1  0.5177610000000  0.4165200000000  0.5288920000000 1.0
C      1  0.5087280000000  0.4841060000000  0.5275480000000 1.0
C      1  0.5136490000000  0.5135920000000  0.5656840000000 1.0
C      1  0.4738150000000  0.4647380000000  0.4630030000000 1.0
C      1  0.5294610000000  0.4935870000000  0.5501040000000 1.0
C      1  0.5454080000000  0.4131970000000  0.5337340000000 1.0
C      1  0.5633630000000  0.5597270000000  0.4626150000000 1.0
C      1  0.5061150000000  0.5669570000000  0.5645700000000 1.0
C      1  0.5220890000000  0.4783340000000  0.5954230000000 1.0
C      1  0.4640280000000  0.5697770000000  0.4574780000000 1.0
C      1  0.4626870000000  0.4394210000000  0.4482330000000 1.0
C      1  0.5174310000000  0.5845730000000  0.4785100000000 1.0
C      1  0.5265870000000  0.5285200000000  0.5857270000000 1.0
C      1  0.4762640000000  0.5735700000000  0.5195780000000 1.0
C      1  0.5228220000000  0.5983480000000  0.5030980000000 1.0
C      1  0.5166040000000  0.5619920000000  0.4272420000000 1.0
C      1  0.4393000000000  0.5473170000000  0.4961720000000 1.0
C      1  0.5206930000000  0.4290890000000  0.4337690000000 1.0
C      1  0.5204650000000  0.4785070000000  0.4433210000000 1.0
C      1  0.4356740000000  0.4930130000000  0.4471570000000 1.0
C      1  0.5967860000000  0.4984510000000  0.5252280000000 1.0
C      1  0.4822270000000  0.5502980000000  0.5696520000000 1.0
C      1  0.5539970000000  0.4379030000000  0.5434780000000 1.0
C      1  0.5036770000000  0.4852470000000  0.4000340000000 1.0
C      1  0.5782940000000  0.5103570000000  0.5467280000000 1.0
C      1  0.4848200000000  0.5471860000000  0.5044050000000 1.0
C      1  0.4436070000000  0.4793430000000  0.4236700000000 1.0
C      1  0.4139360000000  0.5059000000000  0.4955940000000 1.0
C      1  0.5946920000000  0.5533900000000  0.5307390000000 1.0
C      1  0.4696320000000  0.4300140000000  0.5441150000000 1.0
C      1  0.4516720000000  0.5530940000000  0.4357340000000 1.0
C      1  0.5523690000000  0.5063900000000  0.5308110000000 1.0
C      1  0.5032990000000  0.5344670000000  0.5238960000000 1.0
C      1  0.5264390000000  0.5806300000000  0.5241600000000 1.0
C      1  0.4541880000000  0.4540430000000  0.5857050000000 1.0
C      1  0.5436000000000  0.5223290000000  0.4284080000000 1.0
END
