TITL C-950531-5884-657 9.20653965120201e-07 125000 -1125.11106569874 0 0 179 (C1) n - 1
REM
REM in /home/bkarasulu/work/CARBON/AIRSS/Generating-Clusters/EDIP-Nigel-Params/with-SteepDescent/Only-C1/SD-CG/HFTN-CG
REM
REM
REM
REM
REM
REM ./C.cell (11c1c37f851c82e70ff6c80c92926a4b)
REM
REM compiler GCC version 9.2.1 20190827 (Red Hat 9.2.1-1)
REM options -cpp -mtune=generic -march=x86-64 -g -O0 -fpre-include=/usr/include/finclude/math-vector-fortran.h
REM seed 2000829745 537532983 -662169979 441853311 -1479186459 -119500736 -1550286926 -1318356276 -1745961070 1834066672 1401135177 -1071717926 1383932657 1699196563 -1073472245 967433595 1604788940 -974640593 1662815895 834946099 772255904 -1507647486 -1649093031 -1047741992 -1609995146 -1694653570 -1953348657 362612956 703854586 -220340799 -574459194 -453388936 982603767
REM
CELL 1.54180   50.00000   50.00000   50.00000   90.00000   90.00000   90.00000
LATT -1
SFAC C  
C      1  0.5916880000000  0.5076940000000  0.4419540000000 1.0
C      1  0.4870850000000  0.4563390000000  0.5677530000000 1.0
C      1  0.4976170000000  0.3860810000000  0.4702660000000 1.0
C      1  0.4717690000000  0.4461840000000  0.4955380000000 1.0
C      1  0.4928900000000  0.4005020000000  0.4445220000000 1.0
C      1  0.5116170000000  0.5944700000000  0.5480080000000 1.0
C      1  0.4747570000000  0.4919460000000  0.4744340000000 1.0
C      1  0.5159610000000  0.5455560000000  0.5528630000000 1.0
C      1  0.4079080000000  0.5353760000000  0.5175060000000 1.0
C      1  0.5259210000000  0.4282900000000  0.4691090000000 1.0
C      1  0.4388290000000  0.5079090000000  0.5790850000000 1.0
C      1  0.4896610000000  0.5942900000000  0.4818610000000 1.0
C      1  0.5550230000000  0.5061940000000  0.4723690000000 1.0
C      1  0.5530580000000  0.4083940000000  0.5179990000000 1.0
C      1  0.4816230000000  0.4969480000000  0.6082080000000 1.0
C      1  0.5178760000000  0.5385980000000  0.4457060000000 1.0
C      1  0.4272860000000  0.5010980000000  0.4899850000000 1.0
C      1  0.5610980000000  0.4145460000000  0.5470510000000 1.0
C      1  0.4914460000000  0.5016820000000  0.5614670000000 1.0
C      1  0.4876980000000  0.4635960000000  0.4778290000000 1.0
C      1  0.4599820000000  0.4237410000000  0.5796070000000 1.0
C      1  0.5265830000000  0.3938920000000  0.5139050000000 1.0
C      1  0.4884080000000  0.4132940000000  0.5776340000000 1.0
C      1  0.5660100000000  0.4954690000000  0.4315350000000 1.0
C      1  0.4895690000000  0.5317870000000  0.5648890000000 1.0
C      1  0.4405690000000  0.5892630000000  0.4731500000000 1.0
C      1  0.4692740000000  0.5259480000000  0.6100340000000 1.0
C      1  0.5861160000000  0.5720170000000  0.5151820000000 1.0
C      1  0.6044950000000  0.5481100000000  0.5085140000000 1.0
C      1  0.4787130000000  0.4769440000000  0.4277620000000 1.0
C      1  0.4581060000000  0.4051330000000  0.5344320000000 1.0
C      1  0.5609230000000  0.5596280000000  0.5248710000000 1.0
C      1  0.5409480000000  0.5368200000000  0.5957740000000 1.0
C      1  0.5377740000000  0.5791760000000  0.4258210000000 1.0
C      1  0.3917940000000  0.4772450000000  0.4695380000000 1.0
C      1  0.4278250000000  0.5805990000000  0.5147650000000 1.0
C      1  0.4603320000000  0.4540680000000  0.5208630000000 1.0
C      1  0.5099030000000  0.5777820000000  0.4665210000000 1.0
C      1  0.4944270000000  0.5597580000000  0.4116630000000 1.0
C      1  0.4717610000000  0.4234460000000  0.4415100000000 1.0
C      1  0.5044070000000  0.5328500000000  0.4046220000000 1.0
C      1  0.4839340000000  0.4009640000000  0.4916010000000 1.0
C      1  0.5442600000000  0.4626160000000  0.5810610000000 1.0
C      1  0.5247090000000  0.4395320000000  0.4058630000000 1.0
C      1  0.5153630000000  0.4951220000000  0.4507690000000 1.0
C      1  0.5955960000000  0.5347300000000  0.4816050000000 1.0
C      1  0.4574090000000  0.5746910000000  0.5924280000000 1.0
C      1  0.5400360000000  0.4489840000000  0.4845940000000 1.0
C      1  0.5108160000000  0.5696470000000  0.5315840000000 1.0
C      1  0.5789460000000  0.5956090000000  0.5006890000000 1.0
C      1  0.5366520000000  0.5740080000000  0.5115570000000 1.0
C      1  0.5121530000000  0.5685260000000  0.4354590000000 1.0
C      1  0.5280040000000  0.4711410000000  0.4373240000000 1.0
C      1  0.4351340000000  0.5190400000000  0.5108160000000 1.0
C      1  0.5630570000000  0.5303360000000  0.5155750000000 1.0
C      1  0.4083050000000  0.5401230000000  0.5471440000000 1.0
C      1  0.5627800000000  0.4055320000000  0.4635230000000 1.0
C      1  0.4514480000000  0.4543490000000  0.5812480000000 1.0
C      1  0.4760050000000  0.4373480000000  0.5410530000000 1.0
C      1  0.5518430000000  0.5341770000000  0.4469830000000 1.0
C      1  0.5334100000000  0.4880870000000  0.5927260000000 1.0
C      1  0.4058600000000  0.4510340000000  0.4760860000000 1.0
C      1  0.5250790000000  0.3790040000000  0.4853650000000 1.0
C      1  0.5148750000000  0.5313160000000  0.6085160000000 1.0
C      1  0.5921620000000  0.4236430000000  0.5042870000000 1.0
C      1  0.5796540000000  0.5345030000000  0.5566800000000 1.0
C      1  0.4421240000000  0.4120550000000  0.5101210000000 1.0
C      1  0.4060440000000  0.4918330000000  0.4471600000000 1.0
C      1  0.4279490000000  0.4438450000000  0.4564700000000 1.0
C      1  0.5958420000000  0.4942860000000  0.5340590000000 1.0
C      1  0.4319260000000  0.4385080000000  0.5204160000000 1.0
C      1  0.5477640000000  0.5567700000000  0.4103430000000 1.0
C      1  0.5771500000000  0.4403640000000  0.5474520000000 1.0
C      1  0.5146620000000  0.4443320000000  0.4435680000000 1.0
C      1  0.4380850000000  0.5558270000000  0.5848420000000 1.0
C      1  0.5688530000000  0.4873210000000  0.5445710000000 1.0
C      1  0.4534860000000  0.5370180000000  0.4254800000000 1.0
C      1  0.5383260000000  0.6095820000000  0.4764620000000 1.0
C      1  0.5374800000000  0.5561980000000  0.5723230000000 1.0
C      1  0.4362670000000  0.5485040000000  0.5552790000000 1.0
C      1  0.4648570000000  0.4829570000000  0.5258890000000 1.0
C      1  0.5578490000000  0.5133190000000  0.5581940000000 1.0
C      1  0.3942470000000  0.5232090000000  0.5637290000000 1.0
C      1  0.4850460000000  0.5724330000000  0.5917620000000 1.0
C      1  0.5195490000000  0.4746140000000  0.5192270000000 1.0
C      1  0.4658780000000  0.5642180000000  0.4171320000000 1.0
C      1  0.5026390000000  0.4341110000000  0.3892410000000 1.0
C      1  0.4558910000000  0.5116680000000  0.4076880000000 1.0
C      1  0.4433630000000  0.4129640000000  0.5580950000000 1.0
C      1  0.4329920000000  0.4780580000000  0.4465260000000 1.0
C      1  0.4987130000000  0.5135490000000  0.5162580000000 1.0
C      1  0.5513700000000  0.4196500000000  0.4413590000000 1.0
C      1  0.5118690000000  0.5013730000000  0.6103510000000 1.0
C      1  0.4292290000000  0.4588080000000  0.5616970000000 1.0
C      1  0.4767830000000  0.4279190000000  0.3919910000000 1.0
C      1  0.4249580000000  0.5650330000000  0.4613770000000 1.0
C      1  0.5179440000000  0.4711820000000  0.4887100000000 1.0
C      1  0.4591600000000  0.5327370000000  0.5005110000000 1.0
C      1  0.5515370000000  0.5101140000000  0.5868550000000 1.0
C      1  0.5679980000000  0.4638190000000  0.5633050000000 1.0
C      1  0.4599590000000  0.5578550000000  0.4857740000000 1.0
C      1  0.5304340000000  0.4366920000000  0.5824810000000 1.0
C      1  0.5085360000000  0.6130640000000  0.4973410000000 1.0
C      1  0.5675550000000  0.5284560000000  0.4875890000000 1.0
C      1  0.5258550000000  0.4781770000000  0.4075440000000 1.0
C      1  0.5965010000000  0.5529730000000  0.4572640000000 1.0
C      1  0.5076280000000  0.4164100000000  0.5008080000000 1.0
C      1  0.4899990000000  0.5419690000000  0.5939740000000 1.0
C      1  0.4323460000000  0.6024920000000  0.4976000000000 1.0
C      1  0.5302100000000  0.5621390000000  0.4839750000000 1.0
C      1  0.4245840000000  0.4338830000000  0.5485690000000 1.0
C      1  0.5344650000000  0.4142090000000  0.4187940000000 1.0
C      1  0.4862650000000  0.4510100000000  0.4474680000000 1.0
C      1  0.3864120000000  0.5200330000000  0.5001640000000 1.0
C      1  0.5015000000000  0.4377230000000  0.5867800000000 1.0
C      1  0.4755350000000  0.4849510000000  0.5804160000000 1.0
C      1  0.5345080000000  0.5311020000000  0.4062270000000 1.0
C      1  0.4410880000000  0.5294190000000  0.5993840000000 1.0
C      1  0.5130270000000  0.3974690000000  0.4253310000000 1.0
C      1  0.5464830000000  0.5034290000000  0.4088720000000 1.0
C      1  0.5364840000000  0.4133540000000  0.5643630000000 1.0
C      1  0.4092920000000  0.5209910000000  0.4545040000000 1.0
C      1  0.4484300000000  0.4221260000000  0.4604570000000 1.0
C      1  0.5502410000000  0.5970480000000  0.4488920000000 1.0
C      1  0.4789740000000  0.5748200000000  0.5014650000000 1.0
C      1  0.4959610000000  0.4836280000000  0.4034230000000 1.0
C      1  0.6026000000000  0.4731610000000  0.5147710000000 1.0
C      1  0.6078670000000  0.4824030000000  0.4871980000000 1.0
C      1  0.5912530000000  0.4458720000000  0.5218520000000 1.0
C      1  0.4852760000000  0.5108280000000  0.3978790000000 1.0
C      1  0.5645710000000  0.4609410000000  0.4696210000000 1.0
C      1  0.4530860000000  0.5219210000000  0.5557860000000 1.0
C      1  0.4005370000000  0.4755760000000  0.5204810000000 1.0
C      1  0.5540400000000  0.4788510000000  0.5177580000000 1.0
C      1  0.5035880000000  0.4281260000000  0.5300040000000 1.0
C      1  0.4074070000000  0.5623780000000  0.5062590000000 1.0
C      1  0.4738290000000  0.5817190000000  0.5298850000000 1.0
C      1  0.3991990000000  0.4931180000000  0.4950330000000 1.0
C      1  0.5527130000000  0.5611850000000  0.4631570000000 1.0
C      1  0.3892810000000  0.5336600000000  0.4730650000000 1.0
C      1  0.5504710000000  0.5999540000000  0.5020010000000 1.0
C      1  0.5245160000000  0.4484880000000  0.5307150000000 1.0
C      1  0.4456830000000  0.4895160000000  0.4708970000000 1.0
C      1  0.4736810000000  0.6110530000000  0.5318980000000 1.0
C      1  0.4433380000000  0.5012790000000  0.5342460000000 1.0
C      1  0.5567230000000  0.4707320000000  0.4429890000000 1.0
C      1  0.5836140000000  0.5357880000000  0.4366130000000 1.0
C      1  0.4007760000000  0.5608830000000  0.4778470000000 1.0
C      1  0.5494160000000  0.3824690000000  0.4718360000000 1.0
C      1  0.4628010000000  0.4239010000000  0.4143740000000 1.0
C      1  0.4862550000000  0.4991580000000  0.4477960000000 1.0
C      1  0.5027140000000  0.5356220000000  0.4774850000000 1.0
C      1  0.4503130000000  0.4840880000000  0.4215020000000 1.0
C      1  0.4289950000000  0.5408920000000  0.4440150000000 1.0
C      1  0.4106170000000  0.5013440000000  0.5688950000000 1.0
C      1  0.4607560000000  0.4195470000000  0.4879730000000 1.0
C      1  0.5015550000000  0.6157520000000  0.5276390000000 1.0
C      1  0.4457420000000  0.5713930000000  0.5363370000000 1.0
C      1  0.4796520000000  0.5294090000000  0.4406270000000 1.0
C      1  0.5926210000000  0.5251890000000  0.5299370000000 1.0
C      1  0.5632510000000  0.5593840000000  0.5559050000000 1.0
C      1  0.4981230000000  0.5889920000000  0.5727090000000 1.0
C      1  0.4664190000000  0.5984380000000  0.4611640000000 1.0
C      1  0.4094560000000  0.4511640000000  0.5060540000000 1.0
C      1  0.5835090000000  0.4212540000000  0.4776440000000 1.0
C      1  0.5887510000000  0.4452240000000  0.4651330000000 1.0
C      1  0.4801080000000  0.5519010000000  0.4634010000000 1.0
C      1  0.4830520000000  0.5169440000000  0.4926440000000 1.0
C      1  0.5487290000000  0.4405490000000  0.5138530000000 1.0
C      1  0.5261470000000  0.4984590000000  0.4770750000000 1.0
C      1  0.4918220000000  0.4915270000000  0.5334690000000 1.0
C      1  0.6026750000000  0.5067780000000  0.4710730000000 1.0
C      1  0.5693040000000  0.4841630000000  0.4886780000000 1.0
C      1  0.5316640000000  0.5218200000000  0.5445410000000 1.0
C      1  0.5270810000000  0.5181550000000  0.5167900000000 1.0
C      1  0.4192660000000  0.4834950000000  0.5455270000000 1.0
C      1  0.5116860000000  0.4047870000000  0.5490550000000 1.0
C      1  0.4674130000000  0.5845080000000  0.4368060000000 1.0
C      1  0.5797340000000  0.5759460000000  0.4615580000000 1.0
END
