TITL C-950527-2551-401 -1.4139179009709e-07 125000 -1253.21068477878 0 0 199 (C1) n - 1
REM
REM in /home/bkarasulu/work/CARBON/AIRSS/Generating-Clusters/EDIP-Nigel-Params/with-SteepDescent/Only-C1/SD-CG/HFTN-CG
REM
REM
REM
REM
REM
REM ./C.cell (11c1c37f851c82e70ff6c80c92926a4b)
REM
REM compiler GCC version 9.2.1 20190827 (Red Hat 9.2.1-1)
REM options -cpp -mtune=generic -march=x86-64 -g -O0 -fpre-include=/usr/include/finclude/math-vector-fortran.h
REM seed -1007738579 2055028773 1664721409 1036623250 1921532236 -158392116 -2135059831 -221892195 126521905 -341488870 -382317892 594263640 1220714387 1263647170 1660558386 -767108705 1645406697 -2063270509 943730533 -607594174 -1892548860 1674728389 2073847791 -1603294897 1884628798 -2106504408 -146431312 336879797 1831103579 -1096853115 -817746828 2051604961 -571840320
REM
CELL 1.54180   50.00000   50.00000   50.00000   90.00000   90.00000   90.00000
LATT -1
SFAC C  
C      1  0.5633990000000  0.5035520000000  0.5074420000000 1.0
C      1  0.4413840000000  0.4753270000000  0.5905870000000 1.0
C      1  0.5386010000000  0.4313760000000  0.4569260000000 1.0
C      1  0.4501410000000  0.4780200000000  0.5619110000000 1.0
C      1  0.4844580000000  0.3875200000000  0.5209420000000 1.0
C      1  0.4279080000000  0.5311380000000  0.5153560000000 1.0
C      1  0.4723620000000  0.5715560000000  0.5090530000000 1.0
C      1  0.4646920000000  0.5978340000000  0.4423470000000 1.0
C      1  0.5919940000000  0.4762020000000  0.4446310000000 1.0
C      1  0.4884840000000  0.5776980000000  0.5572060000000 1.0
C      1  0.5150110000000  0.4432320000000  0.4345740000000 1.0
C      1  0.5265250000000  0.6058100000000  0.4661280000000 1.0
C      1  0.5175780000000  0.5620150000000  0.4858000000000 1.0
C      1  0.4498170000000  0.6158340000000  0.5129840000000 1.0
C      1  0.3878620000000  0.5116440000000  0.5145120000000 1.0
C      1  0.5056630000000  0.5794510000000  0.4280390000000 1.0
C      1  0.6179050000000  0.5353820000000  0.5285310000000 1.0
C      1  0.4076240000000  0.4578170000000  0.4729030000000 1.0
C      1  0.4714820000000  0.4922550000000  0.4344180000000 1.0
C      1  0.5923180000000  0.5319600000000  0.4284760000000 1.0
C      1  0.4889830000000  0.4620410000000  0.4756820000000 1.0
C      1  0.5046510000000  0.4053610000000  0.5627230000000 1.0
C      1  0.3912500000000  0.4644880000000  0.5199700000000 1.0
C      1  0.4932630000000  0.6092650000000  0.4865920000000 1.0
C      1  0.3974610000000  0.5141520000000  0.4635750000000 1.0
C      1  0.5282740000000  0.5963010000000  0.5619340000000 1.0
C      1  0.5547130000000  0.5778580000000  0.4311080000000 1.0
C      1  0.6145140000000  0.4495950000000  0.4947490000000 1.0
C      1  0.4910220000000  0.4136540000000  0.4862710000000 1.0
C      1  0.4315410000000  0.4156010000000  0.4351140000000 1.0
C      1  0.5475950000000  0.5507990000000  0.4193720000000 1.0
C      1  0.5207440000000  0.5282640000000  0.5963930000000 1.0
C      1  0.4667700000000  0.4508340000000  0.3821820000000 1.0
C      1  0.4356640000000  0.4957110000000  0.5042700000000 1.0
C      1  0.4330530000000  0.5148960000000  0.4285350000000 1.0
C      1  0.5786350000000  0.4802340000000  0.4179240000000 1.0
C      1  0.5533910000000  0.4012160000000  0.4879740000000 1.0
C      1  0.5847390000000  0.5557260000000  0.4968850000000 1.0
C      1  0.5990190000000  0.5103850000000  0.4831150000000 1.0
C      1  0.5278550000000  0.4948440000000  0.5546350000000 1.0
C      1  0.6004310000000  0.5399780000000  0.4772400000000 1.0
C      1  0.5030130000000  0.5033200000000  0.3893960000000 1.0
C      1  0.4694670000000  0.6165950000000  0.5366680000000 1.0
C      1  0.4633170000000  0.4537220000000  0.5989360000000 1.0
C      1  0.4619810000000  0.5363360000000  0.5610270000000 1.0
C      1  0.5154790000000  0.4210760000000  0.5062150000000 1.0
C      1  0.4259820000000  0.4755120000000  0.4549360000000 1.0
C      1  0.4005000000000  0.5431190000000  0.4645330000000 1.0
C      1  0.5209890000000  0.5210170000000  0.5146510000000 1.0
C      1  0.4453010000000  0.4932740000000  0.4739950000000 1.0
C      1  0.5645500000000  0.5597380000000  0.5675250000000 1.0
C      1  0.5899170000000  0.4956000000000  0.5167390000000 1.0
C      1  0.6312810000000  0.5156260000000  0.5155450000000 1.0
C      1  0.4544880000000  0.4301940000000  0.3973990000000 1.0
C      1  0.5422490000000  0.4018470000000  0.4610290000000 1.0
C      1  0.4150070000000  0.5477590000000  0.5566910000000 1.0
C      1  0.5491310000000  0.5230810000000  0.6016940000000 1.0
C      1  0.4494990000000  0.4310870000000  0.5561600000000 1.0
C      1  0.4470170000000  0.4370350000000  0.4742000000000 1.0
C      1  0.4223780000000  0.5854340000000  0.4434780000000 1.0
C      1  0.5550650000000  0.4985890000000  0.6134150000000 1.0
C      1  0.4734650000000  0.4218950000000  0.4191600000000 1.0
C      1  0.5719480000000  0.5358210000000  0.4089280000000 1.0
C      1  0.5040120000000  0.5860630000000  0.4727520000000 1.0
C      1  0.4281330000000  0.5431430000000  0.4223200000000 1.0
C      1  0.5601800000000  0.5375260000000  0.4953310000000 1.0
C      1  0.5032580000000  0.5300380000000  0.4482980000000 1.0
C      1  0.3932130000000  0.4909640000000  0.5356440000000 1.0
C      1  0.5626130000000  0.4406010000000  0.4401840000000 1.0
C      1  0.4355780000000  0.4062460000000  0.5221910000000 1.0
C      1  0.4246040000000  0.4441570000000  0.4925270000000 1.0
C      1  0.5021130000000  0.5593900000000  0.4074830000000 1.0
C      1  0.5345650000000  0.4417400000000  0.4906050000000 1.0
C      1  0.4876610000000  0.4703930000000  0.6069610000000 1.0
C      1  0.5483380000000  0.4428280000000  0.5693120000000 1.0
C      1  0.4416640000000  0.4115250000000  0.4615660000000 1.0
C      1  0.4376110000000  0.4064360000000  0.5502440000000 1.0
C      1  0.4206920000000  0.5776920000000  0.4928190000000 1.0
C      1  0.4110120000000  0.4988620000000  0.4423230000000 1.0
C      1  0.4452670000000  0.4627410000000  0.4316690000000 1.0
C      1  0.5649120000000  0.5870120000000  0.5295960000000 1.0
C      1  0.4616600000000  0.5031920000000  0.5168730000000 1.0
C      1  0.5403940000000  0.5939860000000  0.5159190000000 1.0
C      1  0.4456900000000  0.5843260000000  0.4254230000000 1.0
C      1  0.5127480000000  0.4498220000000  0.5380850000000 1.0
C      1  0.4962900000000  0.5657350000000  0.5266520000000 1.0
C      1  0.4319530000000  0.4373100000000  0.4161020000000 1.0
C      1  0.4079750000000  0.4536010000000  0.5625470000000 1.0
C      1  0.5287330000000  0.4670150000000  0.4208320000000 1.0
C      1  0.4631650000000  0.5910170000000  0.5511190000000 1.0
C      1  0.5574260000000  0.4557210000000  0.5151870000000 1.0
C      1  0.5265000000000  0.5480280000000  0.3979660000000 1.0
C      1  0.5304110000000  0.5931910000000  0.4375830000000 1.0
C      1  0.4762740000000  0.5259060000000  0.5047040000000 1.0
C      1  0.4763380000000  0.5163580000000  0.3977330000000 1.0
C      1  0.5228350000000  0.5694950000000  0.5131290000000 1.0
C      1  0.5249780000000  0.6114830000000  0.5357930000000 1.0
C      1  0.5087330000000  0.4656220000000  0.5863650000000 1.0
C      1  0.5357960000000  0.5357400000000  0.4468490000000 1.0
C      1  0.5645110000000  0.5070090000000  0.4176100000000 1.0
C      1  0.4119570000000  0.5580880000000  0.4417130000000 1.0
C      1  0.4785040000000  0.4987540000000  0.6081620000000 1.0
C      1  0.4480470000000  0.6055520000000  0.4641350000000 1.0
C      1  0.5351580000000  0.4557730000000  0.5929520000000 1.0
C      1  0.4726450000000  0.4409080000000  0.4894620000000 1.0
C      1  0.4896050000000  0.5139330000000  0.4807120000000 1.0
C      1  0.4751900000000  0.4877730000000  0.4776320000000 1.0
C      1  0.4960730000000  0.5228690000000  0.6127570000000 1.0
C      1  0.5636860000000  0.5302510000000  0.5759980000000 1.0
C      1  0.5004880000000  0.3829620000000  0.4759300000000 1.0
C      1  0.5250460000000  0.4890610000000  0.4416690000000 1.0
C      1  0.4033210000000  0.4978870000000  0.5637330000000 1.0
C      1  0.4348190000000  0.5483520000000  0.4911600000000 1.0
C      1  0.5902180000000  0.5485170000000  0.4515990000000 1.0
C      1  0.3987520000000  0.5384770000000  0.5165800000000 1.0
C      1  0.4872210000000  0.4122770000000  0.5837070000000 1.0
C      1  0.4499340000000  0.5746610000000  0.5299040000000 1.0
C      1  0.4999800000000  0.5046040000000  0.4334400000000 1.0
C      1  0.4754770000000  0.5471670000000  0.4560900000000 1.0
C      1  0.4778160000000  0.5432760000000  0.6070420000000 1.0
C      1  0.4104770000000  0.4747630000000  0.5810820000000 1.0
C      1  0.5502710000000  0.4724910000000  0.6092110000000 1.0
C      1  0.6261830000000  0.5010890000000  0.4919660000000 1.0
C      1  0.4935300000000  0.4506980000000  0.3916580000000 1.0
C      1  0.5935360000000  0.4896880000000  0.5701050000000 1.0
C      1  0.4352570000000  0.4639270000000  0.5141460000000 1.0
C      1  0.4287090000000  0.5925260000000  0.5171950000000 1.0
C      1  0.4962780000000  0.5352640000000  0.5257380000000 1.0
C      1  0.4133620000000  0.4217920000000  0.5091880000000 1.0
C      1  0.3964380000000  0.5575570000000  0.4913330000000 1.0
C      1  0.5363630000000  0.5673150000000  0.5620280000000 1.0
C      1  0.5291910000000  0.4870250000000  0.4769560000000 1.0
C      1  0.4913970000000  0.5294520000000  0.5551890000000 1.0
C      1  0.5184270000000  0.5132780000000  0.4859760000000 1.0
C      1  0.4977080000000  0.6194240000000  0.5312050000000 1.0
C      1  0.3901900000000  0.4723720000000  0.4912360000000 1.0
C      1  0.3943750000000  0.5003490000000  0.4888830000000 1.0
C      1  0.5075740000000  0.4725750000000  0.5177410000000 1.0
C      1  0.4939630000000  0.4544110000000  0.5625380000000 1.0
C      1  0.5145480000000  0.5455870000000  0.5721330000000 1.0
C      1  0.5458500000000  0.5344400000000  0.5247300000000 1.0
C      1  0.5731240000000  0.4067950000000  0.5392530000000 1.0
C      1  0.4563910000000  0.5450560000000  0.5889220000000 1.0
C      1  0.5877520000000  0.5154940000000  0.5723440000000 1.0
C      1  0.5727540000000  0.5855540000000  0.4799440000000 1.0
C      1  0.4944280000000  0.4097970000000  0.5366900000000 1.0
C      1  0.5496720000000  0.5081670000000  0.4436680000000 1.0
C      1  0.5770920000000  0.4443370000000  0.5719080000000 1.0
C      1  0.5952570000000  0.5516140000000  0.5248910000000 1.0
C      1  0.6284610000000  0.4735370000000  0.4918560000000 1.0
C      1  0.4531280000000  0.5568580000000  0.4192710000000 1.0
C      1  0.4918100000000  0.4554480000000  0.4480110000000 1.0
C      1  0.5853080000000  0.4668850000000  0.5278290000000 1.0
C      1  0.5412560000000  0.5490880000000  0.4738510000000 1.0
C      1  0.5740150000000  0.4215930000000  0.4931100000000 1.0
C      1  0.5147150000000  0.4649680000000  0.4895970000000 1.0
C      1  0.5242040000000  0.4950580000000  0.5259040000000 1.0
C      1  0.4343510000000  0.4559050000000  0.5487050000000 1.0
C      1  0.5080520000000  0.3773110000000  0.5042670000000 1.0
C      1  0.5114690000000  0.4740880000000  0.3956700000000 1.0
C      1  0.4352940000000  0.5251930000000  0.5947560000000 1.0
C      1  0.4650000000000  0.5500060000000  0.4895620000000 1.0
C      1  0.4858970000000  0.5781070000000  0.4491580000000 1.0
C      1  0.5415660000000  0.5236010000000  0.5555270000000 1.0
C      1  0.5231090000000  0.5229150000000  0.3860190000000 1.0
C      1  0.5772170000000  0.4943770000000  0.4649090000000 1.0
C      1  0.5808930000000  0.5688810000000  0.5440490000000 1.0
C      1  0.4397770000000  0.5462410000000  0.5409780000000 1.0
C      1  0.4671040000000  0.4421600000000  0.4415790000000 1.0
C      1  0.5010550000000  0.4291940000000  0.4109270000000 1.0
C      1  0.5572730000000  0.4821100000000  0.4870010000000 1.0
C      1  0.4583120000000  0.3942290000000  0.4776210000000 1.0
C      1  0.5733060000000  0.5723930000000  0.4535870000000 1.0
C      1  0.4761240000000  0.5456150000000  0.4047880000000 1.0
C      1  0.5464930000000  0.3986840000000  0.5389900000000 1.0
C      1  0.4637060000000  0.4544520000000  0.5149180000000 1.0
C      1  0.5033910000000  0.5947270000000  0.5745970000000 1.0
C      1  0.4545290000000  0.5162640000000  0.4511110000000 1.0
C      1  0.4788080000000  0.4788350000000  0.5536080000000 1.0
C      1  0.4781160000000  0.4784730000000  0.5236790000000 1.0
C      1  0.4581240000000  0.3940540000000  0.5067560000000 1.0
C      1  0.4641520000000  0.6096000000000  0.4877910000000 1.0
C      1  0.5855350000000  0.4214270000000  0.5190780000000 1.0
C      1  0.6048710000000  0.4441900000000  0.5217740000000 1.0
C      1  0.4980700000000  0.5006870000000  0.5613730000000 1.0
C      1  0.3941310000000  0.4361450000000  0.5247990000000 1.0
C      1  0.5406050000000  0.4589080000000  0.5443010000000 1.0
C      1  0.5330960000000  0.3963380000000  0.5106090000000 1.0
C      1  0.5492670000000  0.6024070000000  0.4872060000000 1.0
C      1  0.5877470000000  0.4480700000000  0.4521220000000 1.0
C      1  0.4159140000000  0.5236760000000  0.5719100000000 1.0
C      1  0.5575660000000  0.4588140000000  0.4177110000000 1.0
C      1  0.5213870000000  0.3838670000000  0.4577470000000 1.0
C      1  0.4726040000000  0.4358190000000  0.5754100000000 1.0
C      1  0.5333500000000  0.4098370000000  0.5625250000000 1.0
C      1  0.5911110000000  0.4409840000000  0.4795200000000 1.0
C      1  0.4538570000000  0.4996580000000  0.4096800000000 1.0
C      1  0.4488560000000  0.5003130000000  0.6049270000000 1.0
C      1  0.5833480000000  0.4676110000000  0.5574740000000 1.0
END
