TITL C-951343-2256-746 -1.76410669240923e-06 125000 -323.103582743175 0 0 53 (C1) n - 1
REM
REM in /home/bkarasulu/work/CARBON/AIRSS/Generating-Clusters/EDIP-Nigel-Params/with-SteepDescent/Only-C1/SD-CG/HFTN-CG
REM
REM
REM
REM
REM
REM ./C.cell (11c1c37f851c82e70ff6c80c92926a4b)
REM
REM compiler GCC version 9.2.1 20190827 (Red Hat 9.2.1-1)
REM options -cpp -mtune=generic -march=x86-64 -g -O0 -fpre-include=/usr/include/finclude/math-vector-fortran.h
REM seed -303718042 -972425533 -1652520496 -182934837 -1878366197 234277383 501445029 -681746547 -491636195 -144422097 808149093 -1984154504 -2054613377 -1939383339 -1765922482 -877748052 895746337 -694818173 224539204 -433887351 930823356 -119642725 -170209283 432237028 -291902527 -1793893542 1181879228 1895005989 1340843520 1095058311 -1062264618 -1246534861 21035865
REM
CELL 1.54180   50.00000   50.00000   50.00000   90.00000   90.00000   90.00000
LATT -1
SFAC C  
C      1  0.4313120000000  0.5197290000000  0.5248770000000 1.0
C      1  0.4816300000000  0.5094930000000  0.5071270000000 1.0
C      1  0.4713150000000  0.5205630000000  0.5453880000000 1.0
C      1  0.4215350000000  0.4955130000000  0.5113760000000 1.0
C      1  0.4721220000000  0.4662150000000  0.5471850000000 1.0
C      1  0.4772250000000  0.4912130000000  0.4271360000000 1.0
C      1  0.5468140000000  0.5342220000000  0.5158060000000 1.0
C      1  0.5124800000000  0.4942460000000  0.5601820000000 1.0
C      1  0.5052410000000  0.5256590000000  0.4423000000000 1.0
C      1  0.4960680000000  0.5197780000000  0.5623970000000 1.0
C      1  0.5657220000000  0.4670400000000  0.4890900000000 1.0
C      1  0.4707860000000  0.5457000000000  0.5298730000000 1.0
C      1  0.4986990000000  0.5516460000000  0.5256580000000 1.0
C      1  0.5151140000000  0.4269300000000  0.4867050000000 1.0
C      1  0.5377520000000  0.4365000000000  0.5289120000000 1.0
C      1  0.5002190000000  0.4725090000000  0.5434260000000 1.0
C      1  0.5516370000000  0.5167540000000  0.4742770000000 1.0
C      1  0.5187580000000  0.5517550000000  0.4522730000000 1.0
C      1  0.5756320000000  0.4480700000000  0.5072510000000 1.0
C      1  0.5154530000000  0.4395420000000  0.5123200000000 1.0
C      1  0.4389030000000  0.4835270000000  0.5551240000000 1.0
C      1  0.4793130000000  0.5633180000000  0.4789190000000 1.0
C      1  0.4774850000000  0.4791990000000  0.5014360000000 1.0
C      1  0.5096070000000  0.5671720000000  0.5022190000000 1.0
C      1  0.4685500000000  0.5359440000000  0.4812540000000 1.0
C      1  0.4432540000000  0.5120900000000  0.5516050000000 1.0
C      1  0.5030420000000  0.4531420000000  0.4467850000000 1.0
C      1  0.5550600000000  0.4830350000000  0.5324990000000 1.0
C      1  0.5608480000000  0.4527370000000  0.5310280000000 1.0
C      1  0.5371890000000  0.4834650000000  0.5085340000000 1.0
C      1  0.4523350000000  0.5357260000000  0.5084840000000 1.0
C      1  0.5311540000000  0.4459860000000  0.4572580000000 1.0
C      1  0.5128140000000  0.5414680000000  0.5498230000000 1.0
C      1  0.4594700000000  0.4641240000000  0.5210970000000 1.0
C      1  0.5345210000000  0.5119100000000  0.4991180000000 1.0
C      1  0.4267050000000  0.4945890000000  0.4840400000000 1.0
C      1  0.5103190000000  0.5030340000000  0.4608060000000 1.0
C      1  0.5404580000000  0.5313280000000  0.5454420000000 1.0
C      1  0.5060940000000  0.5145180000000  0.4895600000000 1.0
C      1  0.5387730000000  0.5586480000000  0.4985160000000 1.0
C      1  0.4768030000000  0.5192480000000  0.4338840000000 1.0
C      1  0.4465890000000  0.4945470000000  0.4645830000000 1.0
C      1  0.5434910000000  0.5468420000000  0.4700840000000 1.0
C      1  0.4903970000000  0.4804010000000  0.4514380000000 1.0
C      1  0.5017200000000  0.5716700000000  0.4645210000000 1.0
C      1  0.4955980000000  0.4333920000000  0.4670410000000 1.0
C      1  0.4317480000000  0.4727870000000  0.5282490000000 1.0
C      1  0.5417130000000  0.5010490000000  0.5542390000000 1.0
C      1  0.5393930000000  0.4955630000000  0.4574830000000 1.0
C      1  0.4572010000000  0.5219330000000  0.4568400000000 1.0
C      1  0.5090850000000  0.4685580000000  0.5142320000000 1.0
C      1  0.4692430000000  0.4769130000000  0.4721480000000 1.0
C      1  0.5456080000000  0.4690610000000  0.4681570000000 1.0
END
