TITL C-950524-1808-33 3.59264909051148e-06 125000 -620.70136887263 0 0 101 (C1) n - 1
REM
REM in /home/bkarasulu/work/CARBON/AIRSS/Generating-Clusters/EDIP-Nigel-Params/with-SteepDescent/Only-C1/SD-CG/HFTN-CG
REM
REM
REM
REM
REM
REM ./C.cell (11c1c37f851c82e70ff6c80c92926a4b)
REM
REM compiler GCC version 9.2.1 20190827 (Red Hat 9.2.1-1)
REM options -cpp -mtune=generic -march=x86-64 -g -O0 -fpre-include=/usr/include/finclude/math-vector-fortran.h
REM seed 1616932466 891257962 -143738522 -1420388788 -369356065 1192589246 -1427848077 10201272 -2070418667 -1973469009 484327679 392595196 1777002888 243700424 -1318442741 1840275344 937912664 -429358050 -344428498 635433934 838090911 -1794990352 -11565634 -1849137408 664506401 -1691134721 1239386602 2053731903 412347059 -1767252226 -717291516 1107068766 -189471949
REM
CELL 1.54180   50.00000   50.00000   50.00000   90.00000   90.00000   90.00000
LATT -1
SFAC C  
C      1  0.4493930000000  0.4485700000000  0.4854740000000 1.0
C      1  0.5240580000000  0.4952630000000  0.5035510000000 1.0
C      1  0.4807900000000  0.5190480000000  0.5192260000000 1.0
C      1  0.4211140000000  0.5201420000000  0.4739840000000 1.0
C      1  0.5094080000000  0.4099730000000  0.5045100000000 1.0
C      1  0.4610270000000  0.5579140000000  0.4282500000000 1.0
C      1  0.4468760000000  0.4344360000000  0.5354140000000 1.0
C      1  0.4339490000000  0.5308950000000  0.5095970000000 1.0
C      1  0.5694450000000  0.5176130000000  0.5165940000000 1.0
C      1  0.4460460000000  0.5329070000000  0.4352900000000 1.0
C      1  0.4639500000000  0.4381870000000  0.5620900000000 1.0
C      1  0.4877640000000  0.5481490000000  0.4192600000000 1.0
C      1  0.5808220000000  0.4759270000000  0.5008440000000 1.0
C      1  0.5276440000000  0.5393110000000  0.5194740000000 1.0
C      1  0.5408600000000  0.5371940000000  0.4444480000000 1.0
C      1  0.4492560000000  0.5417670000000  0.5520540000000 1.0
C      1  0.4626180000000  0.4752490000000  0.4398150000000 1.0
C      1  0.4719310000000  0.5912970000000  0.5101180000000 1.0
C      1  0.5095900000000  0.5576880000000  0.4375410000000 1.0
C      1  0.5125770000000  0.5882000000000  0.4738430000000 1.0
C      1  0.4654490000000  0.5006560000000  0.5019450000000 1.0
C      1  0.4653290000000  0.5750830000000  0.4531620000000 1.0
C      1  0.5497500000000  0.4385390000000  0.5175690000000 1.0
C      1  0.5011620000000  0.5003960000000  0.5860270000000 1.0
C      1  0.4702700000000  0.4667870000000  0.5669290000000 1.0
C      1  0.4812160000000  0.5922830000000  0.5359640000000 1.0
C      1  0.4712800000000  0.4293550000000  0.4815070000000 1.0
C      1  0.5804550000000  0.5129770000000  0.4619550000000 1.0
C      1  0.5434480000000  0.5309250000000  0.5602560000000 1.0
C      1  0.5460750000000  0.4334150000000  0.5475090000000 1.0
C      1  0.4283060000000  0.5220030000000  0.5522080000000 1.0
C      1  0.5373910000000  0.4149670000000  0.5022160000000 1.0
C      1  0.4939980000000  0.4725770000000  0.5828560000000 1.0
C      1  0.5499610000000  0.5310950000000  0.5021440000000 1.0
C      1  0.4863070000000  0.4279100000000  0.5074990000000 1.0
C      1  0.5773520000000  0.4876230000000  0.4734020000000 1.0
C      1  0.5676920000000  0.5375430000000  0.4581750000000 1.0
C      1  0.4578230000000  0.5085130000000  0.4235000000000 1.0
C      1  0.4373270000000  0.4844660000000  0.5177440000000 1.0
C      1  0.5376570000000  0.5739790000000  0.4676900000000 1.0
C      1  0.5076230000000  0.4876280000000  0.4805320000000 1.0
C      1  0.4747880000000  0.4453200000000  0.4331890000000 1.0
C      1  0.4949100000000  0.5252860000000  0.5726730000000 1.0
C      1  0.4924430000000  0.5665980000000  0.5380790000000 1.0
C      1  0.5155840000000  0.4398990000000  0.5542980000000 1.0
C      1  0.4900520000000  0.4214780000000  0.5552150000000 1.0
C      1  0.5166250000000  0.4535070000000  0.5803750000000 1.0
C      1  0.5134820000000  0.4936080000000  0.5496590000000 1.0
C      1  0.4459460000000  0.4555510000000  0.5144960000000 1.0
C      1  0.5334460000000  0.4655840000000  0.5131750000000 1.0
C      1  0.4957170000000  0.4778870000000  0.4390630000000 1.0
C      1  0.4688100000000  0.5148930000000  0.4747430000000 1.0
C      1  0.5744960000000  0.4468500000000  0.5017170000000 1.0
C      1  0.3934100000000  0.5057890000000  0.5079740000000 1.0
C      1  0.5476600000000  0.4674440000000  0.4377450000000 1.0
C      1  0.5575640000000  0.4563120000000  0.5627370000000 1.0
C      1  0.4510140000000  0.4746880000000  0.4692050000000 1.0
C      1  0.4984320000000  0.5148290000000  0.4660360000000 1.0
C      1  0.4512620000000  0.5614480000000  0.4756520000000 1.0
C      1  0.5378230000000  0.5853510000000  0.5155340000000 1.0
C      1  0.4880460000000  0.4339780000000  0.4576950000000 1.0
C      1  0.4534540000000  0.5092370000000  0.5846770000000 1.0
C      1  0.5323150000000  0.4132100000000  0.4732290000000 1.0
C      1  0.4821840000000  0.4762610000000  0.4930510000000 1.0
C      1  0.5088370000000  0.4583450000000  0.4181770000000 1.0
C      1  0.4665630000000  0.5325360000000  0.5750170000000 1.0
C      1  0.5031910000000  0.5069200000000  0.4364100000000 1.0
C      1  0.4592450000000  0.5414250000000  0.5222630000000 1.0
C      1  0.5113370000000  0.4636700000000  0.5347730000000 1.0
C      1  0.5753550000000  0.4918600000000  0.5248990000000 1.0
C      1  0.4710810000000  0.4155500000000  0.5303560000000 1.0
C      1  0.5647430000000  0.4434340000000  0.4745320000000 1.0
C      1  0.5393910000000  0.5625000000000  0.5371610000000 1.0
C      1  0.4900520000000  0.4570170000000  0.5152150000000 1.0
C      1  0.5235450000000  0.4755680000000  0.3996280000000 1.0
C      1  0.5407850000000  0.5017230000000  0.5600670000000 1.0
C      1  0.4323080000000  0.4942350000000  0.5465570000000 1.0
C      1  0.5094160000000  0.5842270000000  0.5028630000000 1.0
C      1  0.5189110000000  0.4363180000000  0.4607870000000 1.0
C      1  0.5316160000000  0.5125070000000  0.4290380000000 1.0
C      1  0.4470920000000  0.5330230000000  0.4651930000000 1.0
C      1  0.4628550000000  0.5651830000000  0.5025070000000 1.0
C      1  0.5186180000000  0.5425700000000  0.5707020000000 1.0
C      1  0.4124940000000  0.4856610000000  0.5006750000000 1.0
C      1  0.5303630000000  0.4604070000000  0.4776300000000 1.0
C      1  0.5431330000000  0.4602510000000  0.5872160000000 1.0
C      1  0.5688620000000  0.4655280000000  0.4573000000000 1.0
C      1  0.4484890000000  0.4859150000000  0.5693120000000 1.0
C      1  0.5300560000000  0.4441450000000  0.4340790000000 1.0
C      1  0.5551720000000  0.5806980000000  0.4913480000000 1.0
C      1  0.4242600000000  0.4898380000000  0.4737930000000 1.0
C      1  0.5049660000000  0.5530110000000  0.5039100000000 1.0
C      1  0.4067000000000  0.5294650000000  0.5000160000000 1.0
C      1  0.5429720000000  0.4876550000000  0.4169590000000 1.0
C      1  0.4844120000000  0.5188530000000  0.4174300000000 1.0
C      1  0.5157800000000  0.5666560000000  0.5550320000000 1.0
C      1  0.5635110000000  0.5506720000000  0.4850980000000 1.0
C      1  0.5103810000000  0.5124180000000  0.5247160000000 1.0
C      1  0.5576660000000  0.4816190000000  0.5464860000000 1.0
C      1  0.5165210000000  0.5408430000000  0.4743750000000 1.0
C      1  0.4948660000000  0.5742970000000  0.4560940000000 1.0
END
