TITL C-951336-9012-627 -4.33537201932657e-07 125000 -536.491491720833 0 0 87 (C1) n - 1
REM
REM in /home/bkarasulu/work/CARBON/AIRSS/Generating-Clusters/EDIP-Nigel-Params/with-SteepDescent/Only-C1/SD-CG/HFTN-CG
REM
REM
REM
REM
REM
REM ./C.cell (11c1c37f851c82e70ff6c80c92926a4b)
REM
REM compiler GCC version 9.2.1 20190827 (Red Hat 9.2.1-1)
REM options -cpp -mtune=generic -march=x86-64 -g -O0 -fpre-include=/usr/include/finclude/math-vector-fortran.h
REM seed 1306655638 -829863965 -1995062214 1746254434 2045607495 1516164083 1616980997 -229344346 -1454465336 -724932180 -1973718671 1286969926 773883725 -1082525305 1985079559 -95265530 -430927188 -847601977 687319895 -1707258990 -15442132 1025909513 475416767 636652454 -259083847 -551136719 -350303636 -1270204133 444032356 -912632511 -1791178293 508277126 -852952150
REM
CELL 1.54180   50.00000   50.00000   50.00000   90.00000   90.00000   90.00000
LATT -1
SFAC C  
C      1  0.5712820000000  0.4867260000000  0.4901290000000 1.0
C      1  0.5113330000000  0.4438940000000  0.5370950000000 1.0
C      1  0.4385160000000  0.4634830000000  0.5241520000000 1.0
C      1  0.5022700000000  0.5445620000000  0.5008250000000 1.0
C      1  0.4861340000000  0.5709220000000  0.5318620000000 1.0
C      1  0.4535310000000  0.5116310000000  0.4420110000000 1.0
C      1  0.5794340000000  0.4886910000000  0.5184620000000 1.0
C      1  0.4799780000000  0.4936580000000  0.4390920000000 1.0
C      1  0.4966590000000  0.4523030000000  0.5609670000000 1.0
C      1  0.5332840000000  0.5550590000000  0.5469860000000 1.0
C      1  0.5389640000000  0.4386640000000  0.4562600000000 1.0
C      1  0.5267290000000  0.5803130000000  0.4975910000000 1.0
C      1  0.5525130000000  0.5737820000000  0.4888100000000 1.0
C      1  0.5524630000000  0.4383250000000  0.5165400000000 1.0
C      1  0.4176810000000  0.5388800000000  0.4712600000000 1.0
C      1  0.4387730000000  0.5104470000000  0.5322220000000 1.0
C      1  0.5088160000000  0.4626680000000  0.5837170000000 1.0
C      1  0.4345370000000  0.5597510000000  0.4791540000000 1.0
C      1  0.5298790000000  0.4529370000000  0.5010630000000 1.0
C      1  0.5502450000000  0.4655060000000  0.4570850000000 1.0
C      1  0.5120390000000  0.5360400000000  0.5545990000000 1.0
C      1  0.5814030000000  0.5362680000000  0.4883720000000 1.0
C      1  0.4791070000000  0.5763790000000  0.4814410000000 1.0
C      1  0.4655130000000  0.4533810000000  0.5266650000000 1.0
C      1  0.5247710000000  0.5283300000000  0.4780430000000 1.0
C      1  0.5132670000000  0.4386870000000  0.4429820000000 1.0
C      1  0.4819560000000  0.4650080000000  0.4809050000000 1.0
C      1  0.4664190000000  0.4239320000000  0.4587380000000 1.0
C      1  0.4607910000000  0.4126370000000  0.4842860000000 1.0
C      1  0.5643610000000  0.5124310000000  0.5290940000000 1.0
C      1  0.4850130000000  0.4181050000000  0.4983810000000 1.0
C      1  0.4173930000000  0.4503000000000  0.5112090000000 1.0
C      1  0.4200610000000  0.4546030000000  0.4848540000000 1.0
C      1  0.4584120000000  0.5355260000000  0.5635200000000 1.0
C      1  0.5513580000000  0.5397550000000  0.4527640000000 1.0
C      1  0.5280490000000  0.5482310000000  0.4390860000000 1.0
C      1  0.4700310000000  0.5365650000000  0.4534220000000 1.0
C      1  0.4768460000000  0.4696130000000  0.5483070000000 1.0
C      1  0.5158720000000  0.5709280000000  0.4498620000000 1.0
C      1  0.5449240000000  0.4800590000000  0.4335910000000 1.0
C      1  0.4730190000000  0.5090730000000  0.5683280000000 1.0
C      1  0.5178880000000  0.5079820000000  0.5422330000000 1.0
C      1  0.5388660000000  0.4406650000000  0.5425730000000 1.0
C      1  0.5377760000000  0.4934080000000  0.5620160000000 1.0
C      1  0.4591700000000  0.5635960000000  0.4623440000000 1.0
C      1  0.4693600000000  0.4669340000000  0.4326280000000 1.0
C      1  0.5220610000000  0.4800540000000  0.4171380000000 1.0
C      1  0.5087120000000  0.4532160000000  0.4180450000000 1.0
C      1  0.4897670000000  0.4949640000000  0.5353670000000 1.0
C      1  0.5074890000000  0.5794430000000  0.4752120000000 1.0
C      1  0.4687990000000  0.5755960000000  0.5089100000000 1.0
C      1  0.4976190000000  0.5099290000000  0.5872200000000 1.0
C      1  0.4630310000000  0.4544200000000  0.4592990000000 1.0
C      1  0.5203000000000  0.4988620000000  0.4788500000000 1.0
C      1  0.5099260000000  0.5349990000000  0.5833010000000 1.0
C      1  0.4359140000000  0.4962650000000  0.4634900000000 1.0
C      1  0.4880080000000  0.4472060000000  0.5063410000000 1.0
C      1  0.4683860000000  0.5129160000000  0.5244150000000 1.0
C      1  0.4720440000000  0.5164520000000  0.4772250000000 1.0
C      1  0.4339210000000  0.4837600000000  0.5455270000000 1.0
C      1  0.5358120000000  0.5105290000000  0.5188590000000 1.0
C      1  0.5734110000000  0.5377590000000  0.5158860000000 1.0
C      1  0.5028990000000  0.5027430000000  0.4211640000000 1.0
C      1  0.4360770000000  0.4666070000000  0.4657390000000 1.0
C      1  0.4736810000000  0.5574090000000  0.5537030000000 1.0
C      1  0.5188390000000  0.4885950000000  0.5856360000000 1.0
C      1  0.5517600000000  0.4656970000000  0.5516110000000 1.0
C      1  0.5076180000000  0.4108080000000  0.4805830000000 1.0
C      1  0.5358120000000  0.5376260000000  0.5063150000000 1.0
C      1  0.4814600000000  0.4535610000000  0.4109980000000 1.0
C      1  0.5659030000000  0.5550180000000  0.4725480000000 1.0
C      1  0.5745580000000  0.4649970000000  0.5333370000000 1.0
C      1  0.4915300000000  0.4920830000000  0.4714250000000 1.0
C      1  0.4332010000000  0.5319830000000  0.5511730000000 1.0
C      1  0.5612010000000  0.5152540000000  0.5598590000000 1.0
C      1  0.4184650000000  0.5126940000000  0.4804980000000 1.0
C      1  0.5162480000000  0.5712390000000  0.5259750000000 1.0
C      1  0.5422030000000  0.4772210000000  0.4835950000000 1.0
C      1  0.5800170000000  0.5102840000000  0.4777980000000 1.0
C      1  0.5551510000000  0.5430310000000  0.5617590000000 1.0
C      1  0.4557890000000  0.4824070000000  0.5663940000000 1.0
C      1  0.4957470000000  0.4174240000000  0.4535810000000 1.0
C      1  0.4467380000000  0.5571570000000  0.5055090000000 1.0
C      1  0.4219710000000  0.5115650000000  0.5084190000000 1.0
C      1  0.4734330000000  0.5321220000000  0.5027430000000 1.0
C      1  0.5139980000000  0.5283120000000  0.4253570000000 1.0
C      1  0.5338140000000  0.4271560000000  0.4836670000000 1.0
END
