TITL C-951337-3020-708 -3.4344559634832e-06 125000 -488.780889245134 0 0 80 (C1) n - 1
REM
REM in /home/bkarasulu/work/CARBON/AIRSS/Generating-Clusters/EDIP-Nigel-Params/with-SteepDescent/Only-C1/SD-CG/HFTN-CG
REM
REM
REM
REM
REM
REM ./C.cell (11c1c37f851c82e70ff6c80c92926a4b)
REM
REM compiler GCC version 9.2.1 20190827 (Red Hat 9.2.1-1)
REM options -cpp -mtune=generic -march=x86-64 -g -O0 -fpre-include=/usr/include/finclude/math-vector-fortran.h
REM seed -1664731270 -1820168438 551676318 1999143507 185486668 -1059581908 -1033209752 2125532433 -427057955 256657688 259979181 1997812325 811453682 450035955 -945237004 1272875187 1483456196 1132804516 440171417 -1233663169 -35470122 880686716 -354255570 -1007904268 10696977 148677000 -998070565 -216943026 419533439 1134172329 -1902963324 -443865345 -377696676
REM
CELL 1.54180   50.00000   50.00000   50.00000   90.00000   90.00000   90.00000
LATT -1
SFAC C  
C      1  0.4692850000000  0.5290420000000  0.4795310000000 1.0
C      1  0.4286880000000  0.4860350000000  0.5490500000000 1.0
C      1  0.4372340000000  0.5114110000000  0.4674190000000 1.0
C      1  0.5585690000000  0.4980190000000  0.5388760000000 1.0
C      1  0.5103620000000  0.4728540000000  0.5280430000000 1.0
C      1  0.4595090000000  0.4845690000000  0.4237170000000 1.0
C      1  0.4836400000000  0.3759700000000  0.4847620000000 1.0
C      1  0.5672870000000  0.5093390000000  0.5633180000000 1.0
C      1  0.5313730000000  0.5240910000000  0.5059700000000 1.0
C      1  0.5424340000000  0.4506490000000  0.4970320000000 1.0
C      1  0.5672980000000  0.5465590000000  0.5288860000000 1.0
C      1  0.5430830000000  0.4498670000000  0.5480400000000 1.0
C      1  0.4587070000000  0.5753490000000  0.4768320000000 1.0
C      1  0.5464860000000  0.5543890000000  0.4498270000000 1.0
C      1  0.4880200000000  0.4457550000000  0.5635210000000 1.0
C      1  0.4805580000000  0.4685810000000  0.4143590000000 1.0
C      1  0.4264560000000  0.5291330000000  0.4907480000000 1.0
C      1  0.5495500000000  0.5521470000000  0.5502730000000 1.0
C      1  0.5205320000000  0.4871950000000  0.5721110000000 1.0
C      1  0.5253060000000  0.5654360000000  0.5459270000000 1.0
C      1  0.4595980000000  0.4448370000000  0.5588750000000 1.0
C      1  0.5167210000000  0.4998600000000  0.4620770000000 1.0
C      1  0.5670550000000  0.4642880000000  0.4904750000000 1.0
C      1  0.4240140000000  0.4679570000000  0.4518440000000 1.0
C      1  0.4723610000000  0.4884730000000  0.5618580000000 1.0
C      1  0.4746620000000  0.5321930000000  0.5081530000000 1.0
C      1  0.5253790000000  0.4612970000000  0.4343960000000 1.0
C      1  0.4353350000000  0.4717620000000  0.4279020000000 1.0
C      1  0.5593360000000  0.5207970000000  0.5173610000000 1.0
C      1  0.5199860000000  0.5489690000000  0.4599720000000 1.0
C      1  0.5347710000000  0.4785410000000  0.5466870000000 1.0
C      1  0.5451060000000  0.4346980000000  0.5231170000000 1.0
C      1  0.5199730000000  0.5178260000000  0.5733500000000 1.0
C      1  0.5753090000000  0.5123930000000  0.4927650000000 1.0
C      1  0.5146280000000  0.5224300000000  0.5295660000000 1.0
C      1  0.4265350000000  0.5115800000000  0.5372830000000 1.0
C      1  0.5132320000000  0.5229200000000  0.4246210000000 1.0
C      1  0.5773690000000  0.5332240000000  0.4726990000000 1.0
C      1  0.5305870000000  0.4971980000000  0.4881070000000 1.0
C      1  0.4828140000000  0.5598220000000  0.5208470000000 1.0
C      1  0.4766490000000  0.5527070000000  0.4385160000000 1.0
C      1  0.5589810000000  0.5307490000000  0.4388220000000 1.0
C      1  0.4916370000000  0.4835140000000  0.4591470000000 1.0
C      1  0.5030520000000  0.5708200000000  0.5000280000000 1.0
C      1  0.5472390000000  0.5289980000000  0.5681870000000 1.0
C      1  0.4981470000000  0.5588580000000  0.5477590000000 1.0
C      1  0.4909600000000  0.4678310000000  0.4854070000000 1.0
C      1  0.4668170000000  0.5120710000000  0.5790210000000 1.0
C      1  0.5398310000000  0.5119070000000  0.4264140000000 1.0
C      1  0.4489480000000  0.4711560000000  0.5615940000000 1.0
C      1  0.5059200000000  0.4438820000000  0.5389690000000 1.0
C      1  0.4293870000000  0.4837750000000  0.4739240000000 1.0
C      1  0.4853230000000  0.5251980000000  0.4313190000000 1.0
C      1  0.5183390000000  0.4713620000000  0.4993200000000 1.0
C      1  0.4458150000000  0.5585970000000  0.5278460000000 1.0
C      1  0.4156290000000  0.5142430000000  0.5119420000000 1.0
C      1  0.5147570000000  0.4150560000000  0.4913570000000 1.0
C      1  0.4412000000000  0.5357230000000  0.5456130000000 1.0
C      1  0.5271020000000  0.5523050000000  0.4897940000000 1.0
C      1  0.5193380000000  0.4187700000000  0.5205940000000 1.0
C      1  0.5372460000000  0.4877500000000  0.4441950000000 1.0
C      1  0.4879070000000  0.5813150000000  0.4764610000000 1.0
C      1  0.4963090000000  0.4638830000000  0.4371980000000 1.0
C      1  0.4826600000000  0.4867820000000  0.5290970000000 1.0
C      1  0.5090340000000  0.3883600000000  0.4822530000000 1.0
C      1  0.4560140000000  0.5359180000000  0.5696190000000 1.0
C      1  0.4923260000000  0.3825090000000  0.4600880000000 1.0
C      1  0.4577490000000  0.5500380000000  0.4613830000000 1.0
C      1  0.4909480000000  0.5124880000000  0.5200480000000 1.0
C      1  0.4937440000000  0.4730280000000  0.5756510000000 1.0
C      1  0.4376160000000  0.5551900000000  0.5002350000000 1.0
C      1  0.5595130000000  0.4899420000000  0.4822410000000 1.0
C      1  0.4695630000000  0.4724330000000  0.5049470000000 1.0
C      1  0.4435520000000  0.4729850000000  0.4951180000000 1.0
C      1  0.4945300000000  0.5347010000000  0.5659700000000 1.0
C      1  0.5606410000000  0.5570960000000  0.4755690000000 1.0
C      1  0.5350150000000  0.4304880000000  0.4765400000000 1.0
C      1  0.4990210000000  0.5680210000000  0.4516020000000 1.0
C      1  0.5335300000000  0.4393240000000  0.4500440000000 1.0
C      1  0.4688630000000  0.5027720000000  0.4459740000000 1.0
END
