TITL C-951347-9520-665 -4.22508634059201e-06 125000 -381.444701313524 0 0 63 (C1) n - 1
REM
REM in /home/bkarasulu/work/CARBON/AIRSS/Generating-Clusters/EDIP-Nigel-Params/with-SteepDescent/Only-C1/SD-CG/HFTN-CG
REM
REM
REM
REM
REM
REM ./C.cell (11c1c37f851c82e70ff6c80c92926a4b)
REM
REM compiler GCC version 9.2.1 20190827 (Red Hat 9.2.1-1)
REM options -cpp -mtune=generic -march=x86-64 -g -O0 -fpre-include=/usr/include/finclude/math-vector-fortran.h
REM seed -2079908580 -1939760854 1262213709 -321953346 -151960070 -1890072186 -1299654656 -376160970 1387483905 -1892676904 -1712426432 -1810872276 1168328199 -1959738164 -1726618022 1718545526 27074453 -1324423020 1683914541 -515104512 676874741 -1267689138 966717091 -1576869713 1419710528 210707382 -534004663 -1341069830 -1611863362 -1742776265 -258459621 -392192148 -1191550965
REM
CELL 1.54180   50.00000   50.00000   50.00000   90.00000   90.00000   90.00000
LATT -1
SFAC C  
C      1  0.4959630000000  0.5052910000000  0.5746940000000 1.0
C      1  0.4597600000000  0.5242990000000  0.4435530000000 1.0
C      1  0.4698260000000  0.4803770000000  0.5195000000000 1.0
C      1  0.5596590000000  0.4597310000000  0.4890180000000 1.0
C      1  0.4864890000000  0.4437160000000  0.5377950000000 1.0
C      1  0.5330580000000  0.5614910000000  0.5251280000000 1.0
C      1  0.4344520000000  0.5305860000000  0.4576860000000 1.0
C      1  0.4358630000000  0.5564170000000  0.4720150000000 1.0
C      1  0.4960090000000  0.4664990000000  0.5518420000000 1.0
C      1  0.5473240000000  0.4443030000000  0.5347210000000 1.0
C      1  0.4992690000000  0.4517450000000  0.4757850000000 1.0
C      1  0.5296090000000  0.4862790000000  0.4381100000000 1.0
C      1  0.5336490000000  0.5823950000000  0.5069450000000 1.0
C      1  0.4329800000000  0.5134330000000  0.5027310000000 1.0
C      1  0.4706290000000  0.4262910000000  0.4982310000000 1.0
C      1  0.4910110000000  0.4805160000000  0.4694580000000 1.0
C      1  0.4929390000000  0.4106150000000  0.5069230000000 1.0
C      1  0.4774870000000  0.4864530000000  0.5614880000000 1.0
C      1  0.4557870000000  0.5031440000000  0.5480090000000 1.0
C      1  0.5274320000000  0.5479410000000  0.4541850000000 1.0
C      1  0.5566420000000  0.4790760000000  0.4429920000000 1.0
C      1  0.4672050000000  0.4493910000000  0.5167100000000 1.0
C      1  0.5573860000000  0.4657290000000  0.5180260000000 1.0
C      1  0.4297590000000  0.5050660000000  0.4738700000000 1.0
C      1  0.4553160000000  0.5589770000000  0.5133070000000 1.0
C      1  0.5271890000000  0.5104570000000  0.5298430000000 1.0
C      1  0.5438400000000  0.4373190000000  0.4792050000000 1.0
C      1  0.5595970000000  0.4830070000000  0.4711150000000 1.0
C      1  0.4473140000000  0.4843980000000  0.4640580000000 1.0
C      1  0.4658070000000  0.5314710000000  0.5502590000000 1.0
C      1  0.5374180000000  0.4989200000000  0.4838240000000 1.0
C      1  0.4856560000000  0.4852100000000  0.4315290000000 1.0
C      1  0.4899040000000  0.5324910000000  0.5659320000000 1.0
C      1  0.5614470000000  0.4785720000000  0.5464900000000 1.0
C      1  0.4411830000000  0.4922850000000  0.5216440000000 1.0
C      1  0.5223910000000  0.5878270000000  0.4831440000000 1.0
C      1  0.4863040000000  0.4314030000000  0.4572590000000 1.0
C      1  0.5427950000000  0.4494200000000  0.5624440000000 1.0
C      1  0.5092290000000  0.5243040000000  0.4479680000000 1.0
C      1  0.4596710000000  0.5720170000000  0.4773330000000 1.0
C      1  0.5240150000000  0.5653370000000  0.5509250000000 1.0
C      1  0.5072080000000  0.5539960000000  0.5683140000000 1.0
C      1  0.5185030000000  0.4521300000000  0.5029510000000 1.0
C      1  0.5376960000000  0.5343590000000  0.5159620000000 1.0
C      1  0.4829880000000  0.5326790000000  0.4608550000000 1.0
C      1  0.5170490000000  0.4977540000000  0.4623470000000 1.0
C      1  0.5225070000000  0.4413860000000  0.4604020000000 1.0
C      1  0.5185870000000  0.4635430000000  0.5706630000000 1.0
C      1  0.4890510000000  0.4942120000000  0.4980170000000 1.0
C      1  0.4604820000000  0.4952690000000  0.4413900000000 1.0
C      1  0.5086210000000  0.4980130000000  0.4189660000000 1.0
C      1  0.5427090000000  0.5016020000000  0.5538970000000 1.0
C      1  0.4815230000000  0.5226650000000  0.4900700000000 1.0
C      1  0.4546110000000  0.5341580000000  0.4970200000000 1.0
C      1  0.5514920000000  0.5435670000000  0.4678430000000 1.0
C      1  0.5446730000000  0.5267770000000  0.4890730000000 1.0
C      1  0.4831020000000  0.5621250000000  0.4634970000000 1.0
C      1  0.5112030000000  0.5700620000000  0.4646560000000 1.0
C      1  0.4540420000000  0.5542460000000  0.5401180000000 1.0
C      1  0.5205170000000  0.4880990000000  0.5080920000000 1.0
C      1  0.5238540000000  0.4926850000000  0.5767500000000 1.0
C      1  0.5074130000000  0.4302360000000  0.5221900000000 1.0
C      1  0.4629030000000  0.4262350000000  0.4712340000000 1.0
END
