TITL C-950526-5686-603 -2.78963401249608e-06 125000 -449.089506008753 0 0 73 (C1) n - 1
REM
REM in /home/bkarasulu/work/CARBON/AIRSS/Generating-Clusters/EDIP-Nigel-Params/with-SteepDescent/Only-C1/SD-CG/HFTN-CG
REM
REM
REM
REM
REM
REM ./C.cell (11c1c37f851c82e70ff6c80c92926a4b)
REM
REM compiler GCC version 9.2.1 20190827 (Red Hat 9.2.1-1)
REM options -cpp -mtune=generic -march=x86-64 -g -O0 -fpre-include=/usr/include/finclude/math-vector-fortran.h
REM seed -1468567690 -1011976179 1594823819 -1336619850 -369271540 -709296803 -38323472 -1847307324 -1178144350 -1080206584 -774088142 -1975479545 1303417734 284231550 -1578328253 1629472936 -1786735397 413478306 1959328064 -1226878726 -16488909 74533664 -2043366499 1260483401 690843114 1881557745 306411946 776617063 1403275599 -258109182 2020019527 -1252686840 1686373558
REM
CELL 1.54180   50.00000   50.00000   50.00000   90.00000   90.00000   90.00000
LATT -1
SFAC C  
C      1  0.4724320000000  0.4753130000000  0.5677750000000 1.0
C      1  0.5616590000000  0.5393370000000  0.5261100000000 1.0
C      1  0.4259270000000  0.4585510000000  0.4846700000000 1.0
C      1  0.4991620000000  0.4664330000000  0.5761780000000 1.0
C      1  0.5859180000000  0.4871380000000  0.5073970000000 1.0
C      1  0.4619980000000  0.5665090000000  0.4927450000000 1.0
C      1  0.5300290000000  0.5154010000000  0.4372360000000 1.0
C      1  0.4468970000000  0.4801970000000  0.5244130000000 1.0
C      1  0.5213660000000  0.5059010000000  0.4951630000000 1.0
C      1  0.4715540000000  0.4512950000000  0.4362890000000 1.0
C      1  0.5352400000000  0.5752640000000  0.4890570000000 1.0
C      1  0.5250380000000  0.5044860000000  0.5255120000000 1.0
C      1  0.4964790000000  0.4728850000000  0.5140580000000 1.0
C      1  0.5091960000000  0.4482050000000  0.5576360000000 1.0
C      1  0.4573020000000  0.4606000000000  0.5469700000000 1.0
C      1  0.5066720000000  0.5526070000000  0.5426040000000 1.0
C      1  0.4545280000000  0.4546960000000  0.4819620000000 1.0
C      1  0.5595450000000  0.4742800000000  0.5454100000000 1.0
C      1  0.4898870000000  0.5782540000000  0.5420080000000 1.0
C      1  0.4923390000000  0.5928950000000  0.5184020000000 1.0
C      1  0.5586380000000  0.5585520000000  0.4778490000000 1.0
C      1  0.4720470000000  0.4364780000000  0.5363390000000 1.0
C      1  0.5386840000000  0.4662480000000  0.4348350000000 1.0
C      1  0.4886840000000  0.5403630000000  0.4416420000000 1.0
C      1  0.4688980000000  0.4784120000000  0.5015010000000 1.0
C      1  0.4487360000000  0.4545750000000  0.4534020000000 1.0
C      1  0.4647560000000  0.4282000000000  0.4900390000000 1.0
C      1  0.5174310000000  0.4218590000000  0.4896470000000 1.0
C      1  0.5000380000000  0.4458460000000  0.5307140000000 1.0
C      1  0.4956000000000  0.5075050000000  0.5317930000000 1.0
C      1  0.5756350000000  0.4663790000000  0.5229810000000 1.0
C      1  0.4735710000000  0.4756840000000  0.4223210000000 1.0
C      1  0.5004430000000  0.5149560000000  0.4314400000000 1.0
C      1  0.4577970000000  0.5085260000000  0.4585230000000 1.0
C      1  0.4857030000000  0.5839930000000  0.4925510000000 1.0
C      1  0.5834010000000  0.5067770000000  0.4874510000000 1.0
C      1  0.5229940000000  0.4305100000000  0.5179890000000 1.0
C      1  0.5400510000000  0.4605750000000  0.4879510000000 1.0
C      1  0.4974440000000  0.5243830000000  0.4896340000000 1.0
C      1  0.5465610000000  0.4523240000000  0.5159570000000 1.0
C      1  0.5698030000000  0.4956090000000  0.4625990000000 1.0
C      1  0.4627940000000  0.5480580000000  0.5165370000000 1.0
C      1  0.4605890000000  0.5369210000000  0.4494710000000 1.0
C      1  0.4968710000000  0.4758500000000  0.4642860000000 1.0
C      1  0.4824390000000  0.4936790000000  0.4438850000000 1.0
C      1  0.4335970000000  0.5083720000000  0.4893680000000 1.0
C      1  0.5323510000000  0.4826520000000  0.5435410000000 1.0
C      1  0.4606430000000  0.4208360000000  0.5164110000000 1.0
C      1  0.4452450000000  0.5080680000000  0.5352850000000 1.0
C      1  0.4914000000000  0.5358760000000  0.5181050000000 1.0
C      1  0.4668400000000  0.5430390000000  0.5655890000000 1.0
C      1  0.4244110000000  0.4816240000000  0.5016190000000 1.0
C      1  0.5054510000000  0.5452110000000  0.4662990000000 1.0
C      1  0.4537670000000  0.5561370000000  0.4683120000000 1.0
C      1  0.5312540000000  0.5504980000000  0.5057280000000 1.0
C      1  0.5174990000000  0.4892170000000  0.5691220000000 1.0
C      1  0.4931800000000  0.5071620000000  0.5612070000000 1.0
C      1  0.4429580000000  0.5253350000000  0.5128430000000 1.0
C      1  0.4959400000000  0.4483290000000  0.4544060000000 1.0
C      1  0.5333230000000  0.5369560000000  0.4577020000000 1.0
C      1  0.4914810000000  0.4299850000000  0.4779740000000 1.0
C      1  0.4514700000000  0.5200560000000  0.5598090000000 1.0
C      1  0.4634140000000  0.5634630000000  0.5437400000000 1.0
C      1  0.5431990000000  0.5180630000000  0.4792950000000 1.0
C      1  0.4962870000000  0.5368240000000  0.5673050000000 1.0
C      1  0.4720210000000  0.5057580000000  0.4857430000000 1.0
C      1  0.5721830000000  0.5366920000000  0.4978900000000 1.0
C      1  0.5249160000000  0.4435560000000  0.4446450000000 1.0
C      1  0.5084270000000  0.5739060000000  0.4759000000000 1.0
C      1  0.5144620000000  0.4774450000000  0.4886670000000 1.0
C      1  0.5377110000000  0.5551020000000  0.5351660000000 1.0
C      1  0.5465170000000  0.4915840000000  0.4442060000000 1.0
C      1  0.5372760000000  0.4357460000000  0.4711950000000 1.0
END
