TITL C-950533-5798-711 -5.48514850074617e-08 125000 -275.826402489403 0 0 47 (C1) n - 1
REM
REM in /home/bkarasulu/work/CARBON/AIRSS/Generating-Clusters/EDIP-Nigel-Params/with-SteepDescent/Only-C1/SD-CG/HFTN-CG
REM
REM
REM
REM
REM
REM ./C.cell (11c1c37f851c82e70ff6c80c92926a4b)
REM
REM compiler GCC version 9.2.1 20190827 (Red Hat 9.2.1-1)
REM options -cpp -mtune=generic -march=x86-64 -g -O0 -fpre-include=/usr/include/finclude/math-vector-fortran.h
REM seed -714160398 1418955876 -1422664408 -787231444 515775702 -346749899 1240614036 1619669382 934009419 -736716780 -1117999203 -1853397389 -2079830011 -1139699419 222340726 -1245144687 -1820065434 -646738314 814473556 2050991738 -840897872 -1712968088 -652758123 -588635413 -1080995556 992665819 956548195 1714687223 44354113 -1713965491 557747564 -135810431 134124459
REM
CELL 1.54180   50.00000   50.00000   50.00000   90.00000   90.00000   90.00000
LATT -1
SFAC C  
C      1  0.5496080000000  0.5048270000000  0.5225230000000 1.0
C      1  0.4787440000000  0.4647790000000  0.5626390000000 1.0
C      1  0.5021060000000  0.4672670000000  0.5756140000000 1.0
C      1  0.5180810000000  0.5330230000000  0.5689780000000 1.0
C      1  0.5279580000000  0.4791700000000  0.4482320000000 1.0
C      1  0.5212350000000  0.5463410000000  0.5023510000000 1.0
C      1  0.4953500000000  0.5323660000000  0.5036040000000 1.0
C      1  0.5336320000000  0.4516570000000  0.4412340000000 1.0
C      1  0.5160940000000  0.4808340000000  0.4790830000000 1.0
C      1  0.5414470000000  0.5101040000000  0.4768840000000 1.0
C      1  0.5253440000000  0.5560340000000  0.4757860000000 1.0
C      1  0.5656610000000  0.5005570000000  0.4643500000000 1.0
C      1  0.4952530000000  0.5157080000000  0.5676770000000 1.0
C      1  0.5159750000000  0.5654030000000  0.5250820000000 1.0
C      1  0.5224530000000  0.4839250000000  0.5812130000000 1.0
C      1  0.5592400000000  0.5165940000000  0.4988620000000 1.0
C      1  0.4794430000000  0.5309760000000  0.4423270000000 1.0
C      1  0.4589970000000  0.4883260000000  0.4339930000000 1.0
C      1  0.4587420000000  0.5294630000000  0.5422910000000 1.0
C      1  0.4504620000000  0.5436370000000  0.5200510000000 1.0
C      1  0.5390690000000  0.4676970000000  0.5235620000000 1.0
C      1  0.4607660000000  0.5111910000000  0.4503820000000 1.0
C      1  0.4709060000000  0.4582730000000  0.4941320000000 1.0
C      1  0.4359510000000  0.4977200000000  0.5078400000000 1.0
C      1  0.5234590000000  0.4925470000000  0.5209750000000 1.0
C      1  0.4759120000000  0.5544090000000  0.5095250000000 1.0
C      1  0.4685780000000  0.4433470000000  0.4706150000000 1.0
C      1  0.4841410000000  0.4759160000000  0.4368000000000 1.0
C      1  0.5407230000000  0.4470510000000  0.5048480000000 1.0
C      1  0.5277820000000  0.5317720000000  0.4610600000000 1.0
C      1  0.5060310000000  0.5214340000000  0.4423680000000 1.0
C      1  0.5217900000000  0.5531310000000  0.5497280000000 1.0
C      1  0.5561440000000  0.4832720000000  0.4445550000000 1.0
C      1  0.4520600000000  0.4527070000000  0.5142610000000 1.0
C      1  0.5080830000000  0.4931700000000  0.4323700000000 1.0
C      1  0.5151000000000  0.4384440000000  0.4597860000000 1.0
C      1  0.4840650000000  0.4862920000000  0.4912180000000 1.0
C      1  0.5197790000000  0.4520520000000  0.4867950000000 1.0
C      1  0.4616710000000  0.5048940000000  0.4795590000000 1.0
C      1  0.4948010000000  0.5047840000000  0.5168700000000 1.0
C      1  0.4892640000000  0.5753940000000  0.5233450000000 1.0
C      1  0.4643240000000  0.4840110000000  0.5486660000000 1.0
C      1  0.4470090000000  0.4775700000000  0.5259580000000 1.0
C      1  0.4783970000000  0.5090470000000  0.5444260000000 1.0
C      1  0.5329070000000  0.5089780000000  0.5755920000000 1.0
C      1  0.4380320000000  0.5254930000000  0.5015860000000 1.0
C      1  0.4874320000000  0.4484130000000  0.4504040000000 1.0
END
