TITL C-951337-3020-218 -2.81124286209469e-06 125000 -526.737371277393 0 0 86 (C1) n - 1
REM
REM in /home/bkarasulu/work/CARBON/AIRSS/Generating-Clusters/EDIP-Nigel-Params/with-SteepDescent/Only-C1/SD-CG/HFTN-CG
REM
REM
REM
REM
REM
REM ./C.cell (11c1c37f851c82e70ff6c80c92926a4b)
REM
REM compiler GCC version 9.2.1 20190827 (Red Hat 9.2.1-1)
REM options -cpp -mtune=generic -march=x86-64 -g -O0 -fpre-include=/usr/include/finclude/math-vector-fortran.h
REM seed 1350658550 -1898758847 -1286912386 1399109446 231121125 1457608432 110486669 -103581216 -1814107332 1916087802 746036586 -2049968031 -985673883 1833038136 942907996 -1415400531 1612991166 -362037247 -440219784 -1996520476 -670451015 -1079979556 662102900 -7911866 -1237928054 272185183 920225394 -2075437136 -533875173 -2118025706 -1816093342 465170289 -231450693
REM
CELL 1.54180   50.00000   50.00000   50.00000   90.00000   90.00000   90.00000
LATT -1
SFAC C  
C      1  0.4853850000000  0.4583380000000  0.5201810000000 1.0
C      1  0.5254190000000  0.4157950000000  0.4815380000000 1.0
C      1  0.5682040000000  0.4761650000000  0.4386600000000 1.0
C      1  0.5303410000000  0.5591950000000  0.4538840000000 1.0
C      1  0.4757710000000  0.5386620000000  0.5251570000000 1.0
C      1  0.4693970000000  0.4777830000000  0.4731270000000 1.0
C      1  0.5538050000000  0.4536170000000  0.4429770000000 1.0
C      1  0.5208550000000  0.4659880000000  0.4801120000000 1.0
C      1  0.5567040000000  0.5411940000000  0.4910580000000 1.0
C      1  0.4338890000000  0.4838020000000  0.5212890000000 1.0
C      1  0.4454830000000  0.4616940000000  0.5387500000000 1.0
C      1  0.5012390000000  0.5567980000000  0.4791760000000 1.0
C      1  0.5711010000000  0.4643790000000  0.5322460000000 1.0
C      1  0.4268920000000  0.4709210000000  0.4959650000000 1.0
C      1  0.4927450000000  0.5357010000000  0.4331860000000 1.0
C      1  0.5349030000000  0.5817740000000  0.4976060000000 1.0
C      1  0.4905320000000  0.4840400000000  0.4226360000000 1.0
C      1  0.4354770000000  0.5222300000000  0.5484350000000 1.0
C      1  0.4898540000000  0.5821260000000  0.4916220000000 1.0
C      1  0.4818660000000  0.4302400000000  0.4816050000000 1.0
C      1  0.4445470000000  0.5709820000000  0.4721470000000 1.0
C      1  0.5086880000000  0.4866930000000  0.5787000000000 1.0
C      1  0.5112200000000  0.5626310000000  0.5349750000000 1.0
C      1  0.5822550000000  0.5020230000000  0.4949760000000 1.0
C      1  0.5192050000000  0.4846990000000  0.4306070000000 1.0
C      1  0.5749560000000  0.4911860000000  0.5431410000000 1.0
C      1  0.4835160000000  0.4380440000000  0.5514120000000 1.0
C      1  0.4597230000000  0.5733860000000  0.5466310000000 1.0
C      1  0.5027710000000  0.4206620000000  0.4628080000000 1.0
C      1  0.5400190000000  0.4473390000000  0.4971500000000 1.0
C      1  0.5351870000000  0.5429900000000  0.5410700000000 1.0
C      1  0.4971370000000  0.5338390000000  0.5045910000000 1.0
C      1  0.4999420000000  0.5037030000000  0.5025680000000 1.0
C      1  0.4956900000000  0.5354310000000  0.5859140000000 1.0
C      1  0.4377280000000  0.4426170000000  0.4952170000000 1.0
C      1  0.4618350000000  0.5711760000000  0.4501890000000 1.0
C      1  0.4670050000000  0.5090220000000  0.5664740000000 1.0
C      1  0.4483810000000  0.5160130000000  0.4323590000000 1.0
C      1  0.5058040000000  0.4404850000000  0.4408150000000 1.0
C      1  0.4884420000000  0.5701170000000  0.5539380000000 1.0
C      1  0.5342790000000  0.5091580000000  0.4360190000000 1.0
C      1  0.4666800000000  0.4603250000000  0.5601260000000 1.0
C      1  0.5692150000000  0.4562280000000  0.5047000000000 1.0
C      1  0.4256370000000  0.5480820000000  0.4697810000000 1.0
C      1  0.5798770000000  0.5221090000000  0.4494710000000 1.0
C      1  0.5158620000000  0.5160480000000  0.5825140000000 1.0
C      1  0.4833220000000  0.4853500000000  0.5621180000000 1.0
C      1  0.5117090000000  0.5832160000000  0.5131490000000 1.0
C      1  0.5390990000000  0.5232000000000  0.5649560000000 1.0
C      1  0.4940070000000  0.4869510000000  0.5291870000000 1.0
C      1  0.4718940000000  0.5249780000000  0.4765130000000 1.0
C      1  0.5415890000000  0.4869840000000  0.5142890000000 1.0
C      1  0.4538210000000  0.4345450000000  0.4704350000000 1.0
C      1  0.5133230000000  0.4143910000000  0.5089150000000 1.0
C      1  0.4770620000000  0.5091970000000  0.4341910000000 1.0
C      1  0.5826590000000  0.4748300000000  0.4879090000000 1.0
C      1  0.4806490000000  0.4565110000000  0.4321180000000 1.0
C      1  0.4902480000000  0.4585330000000  0.4889410000000 1.0
C      1  0.4523230000000  0.4401940000000  0.5204580000000 1.0
C      1  0.5549910000000  0.5358190000000  0.5200750000000 1.0
C      1  0.4211110000000  0.5108910000000  0.5261900000000 1.0
C      1  0.5552720000000  0.4956630000000  0.5649620000000 1.0
C      1  0.4846900000000  0.4136330000000  0.5060330000000 1.0
C      1  0.4388420000000  0.4865720000000  0.4746480000000 1.0
C      1  0.4533490000000  0.5578880000000  0.5203750000000 1.0
C      1  0.5739280000000  0.5228030000000  0.4768080000000 1.0
C      1  0.5225750000000  0.4862250000000  0.5363280000000 1.0
C      1  0.5242290000000  0.4387640000000  0.5223740000000 1.0
C      1  0.4802630000000  0.5492700000000  0.4571140000000 1.0
C      1  0.5270100000000  0.4448990000000  0.5519850000000 1.0
C      1  0.5310030000000  0.4750170000000  0.5617660000000 1.0
C      1  0.5215270000000  0.5355070000000  0.4385180000000 1.0
C      1  0.5653410000000  0.5068630000000  0.5190960000000 1.0
C      1  0.4600170000000  0.5764120000000  0.4973610000000 1.0
C      1  0.4629050000000  0.5169960000000  0.5388920000000 1.0
C      1  0.4779160000000  0.5532350000000  0.5744740000000 1.0
C      1  0.5065640000000  0.4320070000000  0.5661420000000 1.0
C      1  0.4297200000000  0.5343550000000  0.5068170000000 1.0
C      1  0.4309990000000  0.5329280000000  0.4452970000000 1.0
C      1  0.4570540000000  0.4589040000000  0.4523100000000 1.0
C      1  0.4819270000000  0.5019000000000  0.4623520000000 1.0
C      1  0.5623230000000  0.5034120000000  0.4385650000000 1.0
C      1  0.5446580000000  0.5637830000000  0.4786880000000 1.0
C      1  0.4434980000000  0.5171290000000  0.4836320000000 1.0
C      1  0.5248330000000  0.4936280000000  0.4903520000000 1.0
C      1  0.5262890000000  0.4611900000000  0.4481660000000 1.0
END
