TITL C-951342-2639-68 1.8028410109828e-08 125000 -642.227409877106 0 0 105 (C1) n - 1
REM
REM in /home/bkarasulu/work/CARBON/AIRSS/Generating-Clusters/EDIP-Nigel-Params/with-SteepDescent/Only-C1/SD-CG/HFTN-CG
REM
REM
REM
REM
REM
REM ./C.cell (11c1c37f851c82e70ff6c80c92926a4b)
REM
REM compiler GCC version 9.2.1 20190827 (Red Hat 9.2.1-1)
REM options -cpp -mtune=generic -march=x86-64 -g -O0 -fpre-include=/usr/include/finclude/math-vector-fortran.h
REM seed 1849860673 -130582472 -1187479027 -598404118 -408775404 1559833104 -938999437 -927096679 -818207522 922456986 1627043922 1825261726 -842760539 -879308881 1704140500 484022324 -339858697 1293741989 -597460651 795969031 866327384 1232605129 1950266670 1735128312 -681804774 1668205628 -1506738442 1350897551 -412391008 -740413569 1559506504 1653920549 1887623465
REM
CELL 1.54180   50.00000   50.00000   50.00000   90.00000   90.00000   90.00000
LATT -1
SFAC C  
C      1  0.4624640000000  0.5074400000000  0.4523890000000 1.0
C      1  0.5378990000000  0.5030860000000  0.4319430000000 1.0
C      1  0.4715010000000  0.5584060000000  0.4576880000000 1.0
C      1  0.5223690000000  0.4286920000000  0.5237550000000 1.0
C      1  0.5314930000000  0.5105440000000  0.5159480000000 1.0
C      1  0.4233350000000  0.4603930000000  0.5223110000000 1.0
C      1  0.5633830000000  0.4595520000000  0.5324300000000 1.0
C      1  0.5359490000000  0.4476140000000  0.5436150000000 1.0
C      1  0.5251590000000  0.5812410000000  0.4927310000000 1.0
C      1  0.5709900000000  0.4761900000000  0.5576050000000 1.0
C      1  0.5118550000000  0.5795090000000  0.5577930000000 1.0
C      1  0.5243250000000  0.5329040000000  0.4748520000000 1.0
C      1  0.5764740000000  0.4888430000000  0.4598480000000 1.0
C      1  0.5021120000000  0.5949930000000  0.5065430000000 1.0
C      1  0.4460310000000  0.5598470000000  0.5415110000000 1.0
C      1  0.5874510000000  0.5065280000000  0.5230960000000 1.0
C      1  0.4186630000000  0.5401990000000  0.5125140000000 1.0
C      1  0.3990090000000  0.4844620000000  0.4840790000000 1.0
C      1  0.4664410000000  0.5787580000000  0.5410280000000 1.0
C      1  0.4921810000000  0.4244730000000  0.4666200000000 1.0
C      1  0.5659280000000  0.5254530000000  0.4852630000000 1.0
C      1  0.5174730000000  0.4648850000000  0.4120190000000 1.0
C      1  0.5047880000000  0.5120010000000  0.4804060000000 1.0
C      1  0.4537490000000  0.4995720000000  0.5591390000000 1.0
C      1  0.4567510000000  0.5505250000000  0.5653490000000 1.0
C      1  0.5172480000000  0.4930040000000  0.4146180000000 1.0
C      1  0.4445210000000  0.4419430000000  0.4765510000000 1.0
C      1  0.5242310000000  0.5844260000000  0.4650650000000 1.0
C      1  0.4753180000000  0.4340170000000  0.5279680000000 1.0
C      1  0.5062160000000  0.4482630000000  0.4316330000000 1.0
C      1  0.4555730000000  0.4688040000000  0.4858050000000 1.0
C      1  0.5036890000000  0.4996530000000  0.5078000000000 1.0
C      1  0.5183190000000  0.4736410000000  0.5469340000000 1.0
C      1  0.4904440000000  0.4979050000000  0.4607720000000 1.0
C      1  0.4932510000000  0.5091210000000  0.4135830000000 1.0
C      1  0.5513100000000  0.5004670000000  0.4950770000000 1.0
C      1  0.5374420000000  0.5689070000000  0.5575100000000 1.0
C      1  0.4574590000000  0.4542280000000  0.5400050000000 1.0
C      1  0.5349040000000  0.5016620000000  0.5873010000000 1.0
C      1  0.4717360000000  0.5162500000000  0.5189050000000 1.0
C      1  0.5506500000000  0.4762710000000  0.5797400000000 1.0
C      1  0.5373010000000  0.4995370000000  0.5427570000000 1.0
C      1  0.5264980000000  0.5518530000000  0.5009500000000 1.0
C      1  0.4071420000000  0.4601490000000  0.4988590000000 1.0
C      1  0.5413270000000  0.4199430000000  0.4630960000000 1.0
C      1  0.4645320000000  0.4092740000000  0.5219720000000 1.0
C      1  0.4211040000000  0.5141200000000  0.5220100000000 1.0
C      1  0.4382300000000  0.5741970000000  0.4863900000000 1.0
C      1  0.4677860000000  0.4734250000000  0.5627560000000 1.0
C      1  0.4527590000000  0.4522600000000  0.4308850000000 1.0
C      1  0.4212710000000  0.5521640000000  0.4876130000000 1.0
C      1  0.5519310000000  0.5429150000000  0.5230320000000 1.0
C      1  0.4335710000000  0.4229050000000  0.4935860000000 1.0
C      1  0.4343220000000  0.4749580000000  0.4337300000000 1.0
C      1  0.4972680000000  0.5382690000000  0.4166470000000 1.0
C      1  0.5392660000000  0.4862020000000  0.4710390000000 1.0
C      1  0.4951520000000  0.5778630000000  0.5317810000000 1.0
C      1  0.4805970000000  0.5962130000000  0.4881690000000 1.0
C      1  0.4836110000000  0.4702040000000  0.4716380000000 1.0
C      1  0.5052230000000  0.4956580000000  0.5911990000000 1.0
C      1  0.5004360000000  0.5458790000000  0.5975990000000 1.0
C      1  0.5863830000000  0.4703050000000  0.4823420000000 1.0
C      1  0.5673640000000  0.5368200000000  0.4478910000000 1.0
C      1  0.4991930000000  0.4449810000000  0.5137860000000 1.0
C      1  0.4666990000000  0.5233750000000  0.5706950000000 1.0
C      1  0.4861790000000  0.5201530000000  0.5933700000000 1.0
C      1  0.5314850000000  0.4592550000000  0.4800600000000 1.0
C      1  0.5395020000000  0.4195180000000  0.5012370000000 1.0
C      1  0.4264610000000  0.5330770000000  0.4668030000000 1.0
C      1  0.5735330000000  0.4832790000000  0.5078350000000 1.0
C      1  0.5440370000000  0.4509400000000  0.5904050000000 1.0
C      1  0.5524660000000  0.4458480000000  0.4970420000000 1.0
C      1  0.5504180000000  0.5451940000000  0.5527780000000 1.0
C      1  0.4807140000000  0.4592880000000  0.4420290000000 1.0
C      1  0.4884760000000  0.5642860000000  0.4336840000000 1.0
C      1  0.4974230000000  0.4757240000000  0.5700550000000 1.0
C      1  0.4526130000000  0.4965960000000  0.4267010000000 1.0
C      1  0.5163640000000  0.5774010000000  0.4393400000000 1.0
C      1  0.5078460000000  0.5360790000000  0.5614890000000 1.0
C      1  0.5003700000000  0.5520800000000  0.5171830000000 1.0
C      1  0.5750200000000  0.5029550000000  0.5487420000000 1.0
C      1  0.4621590000000  0.5805570000000  0.4739830000000 1.0
C      1  0.5794180000000  0.5331070000000  0.5113430000000 1.0
C      1  0.5395360000000  0.4347360000000  0.5692100000000 1.0
C      1  0.4451690000000  0.4934780000000  0.4724250000000 1.0
C      1  0.4414220000000  0.4028050000000  0.5098440000000 1.0
C      1  0.4488450000000  0.4732440000000  0.5176750000000 1.0
C      1  0.5024220000000  0.4489580000000  0.4831260000000 1.0
C      1  0.4178900000000  0.4956560000000  0.4626760000000 1.0
C      1  0.4481730000000  0.5017120000000  0.5293850000000 1.0
C      1  0.5021550000000  0.4729850000000  0.5228790000000 1.0
C      1  0.4617280000000  0.4307960000000  0.4549940000000 1.0
C      1  0.4916280000000  0.5313220000000  0.5348740000000 1.0
C      1  0.5383530000000  0.5309180000000  0.4460860000000 1.0
C      1  0.5155850000000  0.4246730000000  0.4481660000000 1.0
C      1  0.5659830000000  0.4315390000000  0.4548900000000 1.0
C      1  0.4970070000000  0.5686450000000  0.5803580000000 1.0
C      1  0.4008780000000  0.4968340000000  0.5109720000000 1.0
C      1  0.4528890000000  0.5357690000000  0.4545210000000 1.0
C      1  0.4695170000000  0.4973760000000  0.4041580000000 1.0
C      1  0.5246700000000  0.5501380000000  0.4263660000000 1.0
C      1  0.5345960000000  0.5216950000000  0.5633840000000 1.0
C      1  0.5577470000000  0.4831930000000  0.4378630000000 1.0
C      1  0.5842000000000  0.5178030000000  0.4624940000000 1.0
C      1  0.5760720000000  0.4422530000000  0.4794070000000 1.0
END
