TITL C-951336-9012-504 -2.52499879007403e-06 125000 -603.768612806438 0 0 98 (C1) n - 1
REM
REM in /home/bkarasulu/work/CARBON/AIRSS/Generating-Clusters/EDIP-Nigel-Params/with-SteepDescent/Only-C1/SD-CG/HFTN-CG
REM
REM
REM
REM
REM
REM ./C.cell (11c1c37f851c82e70ff6c80c92926a4b)
REM
REM compiler GCC version 9.2.1 20190827 (Red Hat 9.2.1-1)
REM options -cpp -mtune=generic -march=x86-64 -g -O0 -fpre-include=/usr/include/finclude/math-vector-fortran.h
REM seed 822892753 539452966 -1436269446 1110597771 -1491164747 1358983265 -1034698586 -835078684 -1883712201 -545611683 -2056420207 1607703373 1813874137 1017632119 1256640678 -1559440535 -1146838751 969103756 -619626211 1832118027 1582521123 -210086693 620192986 494356855 166542971 230022265 1728250719 1901466324 -182615545 2042230574 -1539773579 -3704124 708887876
REM
CELL 1.54180   50.00000   50.00000   50.00000   90.00000   90.00000   90.00000
LATT -1
SFAC C  
C      1  0.4997950000000  0.4756070000000  0.5932810000000 1.0
C      1  0.5037100000000  0.4690260000000  0.4086230000000 1.0
C      1  0.4317440000000  0.5246830000000  0.5614930000000 1.0
C      1  0.5132810000000  0.5144720000000  0.5180960000000 1.0
C      1  0.4890060000000  0.4526440000000  0.5772920000000 1.0
C      1  0.5517080000000  0.5621700000000  0.4669850000000 1.0
C      1  0.5084840000000  0.5200150000000  0.5616850000000 1.0
C      1  0.4995190000000  0.5796200000000  0.5359400000000 1.0
C      1  0.4163300000000  0.5183590000000  0.4873450000000 1.0
C      1  0.4391110000000  0.4856190000000  0.4587930000000 1.0
C      1  0.4700130000000  0.5408160000000  0.5806470000000 1.0
C      1  0.5813850000000  0.5177820000000  0.4704220000000 1.0
C      1  0.4882250000000  0.4717630000000  0.4995730000000 1.0
C      1  0.4226840000000  0.4452350000000  0.5495640000000 1.0
C      1  0.5050380000000  0.4188230000000  0.4682420000000 1.0
C      1  0.5170150000000  0.5868360000000  0.4862690000000 1.0
C      1  0.5113040000000  0.5379760000000  0.4868430000000 1.0
C      1  0.5726080000000  0.4569430000000  0.5185430000000 1.0
C      1  0.4792060000000  0.5124800000000  0.4568170000000 1.0
C      1  0.4197920000000  0.5279120000000  0.5143450000000 1.0
C      1  0.4635640000000  0.5219690000000  0.5311010000000 1.0
C      1  0.5331690000000  0.4703260000000  0.4745060000000 1.0
C      1  0.5476700000000  0.5716310000000  0.5142560000000 1.0
C      1  0.5350610000000  0.4949190000000  0.5167230000000 1.0
C      1  0.4948110000000  0.4967140000000  0.4174930000000 1.0
C      1  0.4981400000000  0.4175500000000  0.4966240000000 1.0
C      1  0.4717580000000  0.4125560000000  0.5021720000000 1.0
C      1  0.4541090000000  0.5615750000000  0.4936660000000 1.0
C      1  0.4901470000000  0.5026090000000  0.5021710000000 1.0
C      1  0.4425770000000  0.4889960000000  0.5325550000000 1.0
C      1  0.4613650000000  0.5469120000000  0.5507420000000 1.0
C      1  0.5314980000000  0.4705600000000  0.5597450000000 1.0
C      1  0.5491090000000  0.5412250000000  0.5464510000000 1.0
C      1  0.5557520000000  0.5219170000000  0.5677340000000 1.0
C      1  0.5775730000000  0.5110640000000  0.4436320000000 1.0
C      1  0.5083670000000  0.4537960000000  0.5509090000000 1.0
C      1  0.4972100000000  0.5331200000000  0.5849160000000 1.0
C      1  0.5636100000000  0.5444400000000  0.5190410000000 1.0
C      1  0.5020670000000  0.5253750000000  0.4091850000000 1.0
C      1  0.4834440000000  0.4984830000000  0.5458300000000 1.0
C      1  0.5346220000000  0.4227710000000  0.4618210000000 1.0
C      1  0.5198790000000  0.5417330000000  0.5442640000000 1.0
C      1  0.5302530000000  0.5124790000000  0.5820870000000 1.0
C      1  0.4077250000000  0.4407530000000  0.5266860000000 1.0
C      1  0.4392120000000  0.4786770000000  0.5053230000000 1.0
C      1  0.4342410000000  0.4970290000000  0.4845770000000 1.0
C      1  0.4440090000000  0.4642790000000  0.5506540000000 1.0
C      1  0.4282320000000  0.4244920000000  0.5175670000000 1.0
C      1  0.5508530000000  0.5846720000000  0.4870800000000 1.0
C      1  0.5504730000000  0.4826360000000  0.5395050000000 1.0
C      1  0.4675690000000  0.4618790000000  0.4165400000000 1.0
C      1  0.5167090000000  0.4160250000000  0.5171500000000 1.0
C      1  0.4817870000000  0.5235240000000  0.4839750000000 1.0
C      1  0.5876080000000  0.4918210000000  0.5131290000000 1.0
C      1  0.4364250000000  0.5316850000000  0.4423090000000 1.0
C      1  0.5833790000000  0.4678970000000  0.4730000000000 1.0
C      1  0.4547790000000  0.5547020000000  0.4423540000000 1.0
C      1  0.5838020000000  0.5143350000000  0.5301970000000 1.0
C      1  0.5112380000000  0.5668020000000  0.5577400000000 1.0
C      1  0.4696110000000  0.4484410000000  0.4426280000000 1.0
C      1  0.4706680000000  0.5733850000000  0.5364730000000 1.0
C      1  0.4526970000000  0.5165610000000  0.5810510000000 1.0
C      1  0.5536640000000  0.4411240000000  0.5343930000000 1.0
C      1  0.4526900000000  0.4319320000000  0.5048760000000 1.0
C      1  0.4804410000000  0.5481510000000  0.4304560000000 1.0
C      1  0.5601830000000  0.5369450000000  0.4812430000000 1.0
C      1  0.5264540000000  0.4327260000000  0.5370620000000 1.0
C      1  0.4554060000000  0.5323800000000  0.5004120000000 1.0
C      1  0.4920620000000  0.4708000000000  0.5320360000000 1.0
C      1  0.5497890000000  0.4766050000000  0.4227650000000 1.0
C      1  0.5049190000000  0.4708830000000  0.4678640000000 1.0
C      1  0.4572440000000  0.5805300000000  0.5133080000000 1.0
C      1  0.5265050000000  0.4834250000000  0.5849730000000 1.0
C      1  0.5435800000000  0.4444970000000  0.4816080000000 1.0
C      1  0.4536000000000  0.4610220000000  0.4642080000000 1.0
C      1  0.5292410000000  0.5144320000000  0.4463410000000 1.0
C      1  0.5718410000000  0.4481060000000  0.4898560000000 1.0
C      1  0.5184540000000  0.5619830000000  0.4674140000000 1.0
C      1  0.5272710000000  0.4602480000000  0.4234290000000 1.0
C      1  0.5169870000000  0.5730760000000  0.5129630000000 1.0
C      1  0.4643030000000  0.4923270000000  0.4166890000000 1.0
C      1  0.5069670000000  0.5585230000000  0.4389840000000 1.0
C      1  0.5753600000000  0.4925280000000  0.4864860000000 1.0
C      1  0.5443790000000  0.4933900000000  0.4890850000000 1.0
C      1  0.4174440000000  0.5335360000000  0.4635790000000 1.0
C      1  0.4547190000000  0.5683380000000  0.4668030000000 1.0
C      1  0.5531590000000  0.5014040000000  0.4344160000000 1.0
C      1  0.4222450000000  0.5106470000000  0.5380940000000 1.0
C      1  0.5026460000000  0.4970040000000  0.4475170000000 1.0
C      1  0.5697960000000  0.5020430000000  0.5522560000000 1.0
C      1  0.4533920000000  0.5056190000000  0.4422890000000 1.0
C      1  0.5352050000000  0.5202240000000  0.4763340000000 1.0
C      1  0.4730400000000  0.4936290000000  0.5744920000000 1.0
C      1  0.4981230000000  0.4450810000000  0.4520890000000 1.0
C      1  0.5300120000000  0.4333640000000  0.4337760000000 1.0
C      1  0.4606660000000  0.4659630000000  0.5745570000000 1.0
C      1  0.5227490000000  0.5369480000000  0.4268620000000 1.0
C      1  0.4587360000000  0.4594760000000  0.4941240000000 1.0
END
