TITL C-951342-2639-227 -3.1439721971866e-06 125000 -1176.15307726636 0 0 186 (C1) n - 1
REM
REM in /home/bkarasulu/work/CARBON/AIRSS/Generating-Clusters/EDIP-Nigel-Params/with-SteepDescent/Only-C1/SD-CG/HFTN-CG
REM
REM
REM
REM
REM
REM ./C.cell (11c1c37f851c82e70ff6c80c92926a4b)
REM
REM compiler GCC version 9.2.1 20190827 (Red Hat 9.2.1-1)
REM options -cpp -mtune=generic -march=x86-64 -g -O0 -fpre-include=/usr/include/finclude/math-vector-fortran.h
REM seed -813462452 1938660002 1511950553 1008453304 980511327 1410177342 871256015 1630790999 -1587898882 87999287 1913253237 1711758432 -2093634409 -1786320991 217456768 -1456780093 1687911606 1114974671 -45695260 -789953146 1191984687 1908955605 -213666833 -1088893910 1173938163 -890379940 1591905631 262959814 629579588 119296569 1194594526 -1235610276 1650223811
REM
CELL 1.54180   50.00000   50.00000   50.00000   90.00000   90.00000   90.00000
LATT -1
SFAC C  
C      1  0.5586230000000  0.4568900000000  0.4895840000000 1.0
C      1  0.5440040000000  0.4431610000000  0.5596040000000 1.0
C      1  0.4633390000000  0.5559090000000  0.4875940000000 1.0
C      1  0.5324240000000  0.4805180000000  0.5221670000000 1.0
C      1  0.4821820000000  0.4437850000000  0.6009250000000 1.0
C      1  0.5261290000000  0.5605510000000  0.5168270000000 1.0
C      1  0.5979950000000  0.5255100000000  0.4738880000000 1.0
C      1  0.4876040000000  0.5059740000000  0.4898300000000 1.0
C      1  0.5158550000000  0.5617630000000  0.4677860000000 1.0
C      1  0.4454680000000  0.4123240000000  0.5405110000000 1.0
C      1  0.4575220000000  0.5392890000000  0.5312540000000 1.0
C      1  0.4631220000000  0.4186320000000  0.5652050000000 1.0
C      1  0.4443310000000  0.5039590000000  0.4592650000000 1.0
C      1  0.5703250000000  0.5738540000000  0.4955450000000 1.0
C      1  0.6125250000000  0.4939040000000  0.5101710000000 1.0
C      1  0.3991040000000  0.5112570000000  0.5001090000000 1.0
C      1  0.4357590000000  0.4603500000000  0.5879940000000 1.0
C      1  0.4418390000000  0.4877120000000  0.5986800000000 1.0
C      1  0.5396450000000  0.5953980000000  0.5482830000000 1.0
C      1  0.5087820000000  0.4245720000000  0.4493420000000 1.0
C      1  0.5211390000000  0.4537460000000  0.5741910000000 1.0
C      1  0.4994990000000  0.5003590000000  0.3855530000000 1.0
C      1  0.4855290000000  0.5150250000000  0.5774500000000 1.0
C      1  0.5841650000000  0.4617270000000  0.4382520000000 1.0
C      1  0.5278190000000  0.4084130000000  0.4325790000000 1.0
C      1  0.4780840000000  0.4457370000000  0.4185680000000 1.0
C      1  0.4435330000000  0.4999810000000  0.4284530000000 1.0
C      1  0.5457340000000  0.5491840000000  0.4600960000000 1.0
C      1  0.3877510000000  0.5404830000000  0.4380560000000 1.0
C      1  0.4694280000000  0.5449020000000  0.4592220000000 1.0
C      1  0.4431830000000  0.5994680000000  0.4991880000000 1.0
C      1  0.5360070000000  0.4514190000000  0.4052860000000 1.0
C      1  0.6048650000000  0.5213730000000  0.5022590000000 1.0
C      1  0.5928880000000  0.5501520000000  0.4562140000000 1.0
C      1  0.4021050000000  0.5561440000000  0.4845860000000 1.0
C      1  0.5070900000000  0.5541250000000  0.4952330000000 1.0
C      1  0.5125110000000  0.5956780000000  0.5609510000000 1.0
C      1  0.5784810000000  0.5316690000000  0.5792400000000 1.0
C      1  0.5372130000000  0.4951950000000  0.4323730000000 1.0
C      1  0.4633480000000  0.5382830000000  0.4040180000000 1.0
C      1  0.4927990000000  0.4136400000000  0.5652010000000 1.0
C      1  0.5960740000000  0.4647180000000  0.4914580000000 1.0
C      1  0.5561450000000  0.4944210000000  0.4086420000000 1.0
C      1  0.4037560000000  0.4659620000000  0.4536650000000 1.0
C      1  0.4452260000000  0.5553740000000  0.4408670000000 1.0
C      1  0.5265470000000  0.5707250000000  0.4139710000000 1.0
C      1  0.4007800000000  0.4962790000000  0.4549410000000 1.0
C      1  0.4218950000000  0.5138200000000  0.4149280000000 1.0
C      1  0.4517940000000  0.5658520000000  0.5444910000000 1.0
C      1  0.5387040000000  0.3978290000000  0.5046850000000 1.0
C      1  0.5877820000000  0.5020900000000  0.4583150000000 1.0
C      1  0.5553590000000  0.4695630000000  0.3938660000000 1.0
C      1  0.4144740000000  0.5221430000000  0.5507280000000 1.0
C      1  0.4559670000000  0.5584070000000  0.5739930000000 1.0
C      1  0.4925470000000  0.6025410000000  0.5392980000000 1.0
C      1  0.4826030000000  0.4571290000000  0.5307620000000 1.0
C      1  0.4401290000000  0.4359760000000  0.4475320000000 1.0
C      1  0.5136020000000  0.4841520000000  0.6145810000000 1.0
C      1  0.4228250000000  0.5717180000000  0.5355320000000 1.0
C      1  0.5395810000000  0.4173850000000  0.5472400000000 1.0
C      1  0.5557230000000  0.5027190000000  0.4617440000000 1.0
C      1  0.4877130000000  0.4319460000000  0.5102640000000 1.0
C      1  0.4364700000000  0.5417640000000  0.4146290000000 1.0
C      1  0.5130410000000  0.5484010000000  0.5442100000000 1.0
C      1  0.4569760000000  0.4391050000000  0.5864390000000 1.0
C      1  0.4038780000000  0.4652680000000  0.5469810000000 1.0
C      1  0.5167940000000  0.5607770000000  0.5955960000000 1.0
C      1  0.4632810000000  0.4252350000000  0.4347630000000 1.0
C      1  0.5115650000000  0.3918800000000  0.5176250000000 1.0
C      1  0.5217260000000  0.4883250000000  0.4940700000000 1.0
C      1  0.4481710000000  0.5833670000000  0.4387840000000 1.0
C      1  0.5699960000000  0.4546280000000  0.5656740000000 1.0
C      1  0.4372570000000  0.3909710000000  0.5088390000000 1.0
C      1  0.4680030000000  0.5847720000000  0.5010230000000 1.0
C      1  0.4879410000000  0.4711810000000  0.6087420000000 1.0
C      1  0.5310140000000  0.4825820000000  0.5907250000000 1.0
C      1  0.5125570000000  0.5215280000000  0.3989880000000 1.0
C      1  0.4389850000000  0.4394290000000  0.5253790000000 1.0
C      1  0.4134790000000  0.4575970000000  0.5718620000000 1.0
C      1  0.3980770000000  0.5147110000000  0.4321670000000 1.0
C      1  0.4818610000000  0.4118290000000  0.4535920000000 1.0
C      1  0.4314860000000  0.5152030000000  0.5919930000000 1.0
C      1  0.5510640000000  0.5419030000000  0.5071940000000 1.0
C      1  0.4454690000000  0.5373620000000  0.5037160000000 1.0
C      1  0.5861650000000  0.4503440000000  0.5429900000000 1.0
C      1  0.4948010000000  0.5296990000000  0.5045160000000 1.0
C      1  0.4881830000000  0.5072260000000  0.4373280000000 1.0
C      1  0.4668130000000  0.4902060000000  0.6135540000000 1.0
C      1  0.4990630000000  0.5709050000000  0.4256040000000 1.0
C      1  0.4473970000000  0.4879270000000  0.5389260000000 1.0
C      1  0.4725470000000  0.4847310000000  0.5095710000000 1.0
C      1  0.5649860000000  0.5180640000000  0.6022030000000 1.0
C      1  0.5380270000000  0.3894050000000  0.4520180000000 1.0
C      1  0.5227020000000  0.5052200000000  0.5702960000000 1.0
C      1  0.4726230000000  0.5142440000000  0.4623720000000 1.0
C      1  0.5420640000000  0.5486660000000  0.5983370000000 1.0
C      1  0.4037740000000  0.4461080000000  0.4766620000000 1.0
C      1  0.5694670000000  0.5676090000000  0.4654600000000 1.0
C      1  0.5546950000000  0.4340800000000  0.4691230000000 1.0
C      1  0.5025990000000  0.4642250000000  0.5527630000000 1.0
C      1  0.4550620000000  0.4589550000000  0.5409580000000 1.0
C      1  0.5478460000000  0.4283530000000  0.4206330000000 1.0
C      1  0.4140200000000  0.4860600000000  0.5023160000000 1.0
C      1  0.5453880000000  0.4811720000000  0.4782980000000 1.0
C      1  0.4083970000000  0.4455800000000  0.5256930000000 1.0
C      1  0.4718180000000  0.3979500000000  0.4779450000000 1.0
C      1  0.4839380000000  0.4010600000000  0.5067280000000 1.0
C      1  0.4605390000000  0.4685450000000  0.4869930000000 1.0
C      1  0.4449440000000  0.5194440000000  0.5496270000000 1.0
C      1  0.5975420000000  0.4737830000000  0.4626370000000 1.0
C      1  0.5146580000000  0.4403120000000  0.4971870000000 1.0
C      1  0.4725770000000  0.5825970000000  0.5306230000000 1.0
C      1  0.4888200000000  0.4674160000000  0.4622110000000 1.0
C      1  0.4342670000000  0.4756390000000  0.4144020000000 1.0
C      1  0.5565210000000  0.4095350000000  0.5255780000000 1.0
C      1  0.5364890000000  0.5307110000000  0.5547950000000 1.0
C      1  0.3859280000000  0.5119220000000  0.4747870000000 1.0
C      1  0.5254450000000  0.4259010000000  0.4735660000000 1.0
C      1  0.4693050000000  0.5097590000000  0.4146770000000 1.0
C      1  0.5969760000000  0.4114420000000  0.4850240000000 1.0
C      1  0.4761360000000  0.4852770000000  0.3858140000000 1.0
C      1  0.4803720000000  0.5683110000000  0.5843030000000 1.0
C      1  0.5870220000000  0.5642980000000  0.5193470000000 1.0
C      1  0.5363800000000  0.5433640000000  0.4088650000000 1.0
C      1  0.5596360000000  0.4901170000000  0.5963870000000 1.0
C      1  0.5836440000000  0.5371600000000  0.4299500000000 1.0
C      1  0.5515540000000  0.3901740000000  0.4775010000000 1.0
C      1  0.5079060000000  0.5109290000000  0.6221320000000 1.0
C      1  0.4613510000000  0.3919070000000  0.5242880000000 1.0
C      1  0.4679110000000  0.6014790000000  0.4418920000000 1.0
C      1  0.4232090000000  0.4558070000000  0.4343090000000 1.0
C      1  0.5399630000000  0.4490240000000  0.5162030000000 1.0
C      1  0.5952350000000  0.4347710000000  0.5000220000000 1.0
C      1  0.5589650000000  0.5923100000000  0.4507290000000 1.0
C      1  0.5119210000000  0.4896700000000  0.5456500000000 1.0
C      1  0.5323950000000  0.5913340000000  0.5189000000000 1.0
C      1  0.5843880000000  0.4779470000000  0.5308080000000 1.0
C      1  0.4068890000000  0.5193970000000  0.5784960000000 1.0
C      1  0.4622200000000  0.4672800000000  0.4044600000000 1.0
C      1  0.5752800000000  0.4331590000000  0.5219800000000 1.0
C      1  0.5113520000000  0.5927300000000  0.4669960000000 1.0
C      1  0.4954100000000  0.5971960000000  0.4402220000000 1.0
C      1  0.4178680000000  0.4883370000000  0.5330660000000 1.0
C      1  0.3984170000000  0.4600630000000  0.5016890000000 1.0
C      1  0.3849150000000  0.5403180000000  0.4661790000000 1.0
C      1  0.5840160000000  0.4838520000000  0.4160040000000 1.0
C      1  0.5729350000000  0.4097690000000  0.4709460000000 1.0
C      1  0.5955480000000  0.5090860000000  0.4301480000000 1.0
C      1  0.5046280000000  0.4308890000000  0.5867690000000 1.0
C      1  0.5238850000000  0.4670840000000  0.4273530000000 1.0
C      1  0.5527520000000  0.5976280000000  0.4982980000000 1.0
C      1  0.6094160000000  0.4946910000000  0.5416340000000 1.0
C      1  0.5826820000000  0.5775260000000  0.5431190000000 1.0
C      1  0.5127270000000  0.4072300000000  0.5435380000000 1.0
C      1  0.5747820000000  0.4822100000000  0.5739030000000 1.0
C      1  0.5594740000000  0.4455440000000  0.4423690000000 1.0
C      1  0.4522920000000  0.4406310000000  0.4966620000000 1.0
C      1  0.4550620000000  0.5280420000000  0.5769820000000 1.0
C      1  0.4825710000000  0.5151680000000  0.6095450000000 1.0
C      1  0.5552560000000  0.5225360000000  0.5312490000000 1.0
C      1  0.4134710000000  0.5378010000000  0.5050380000000 1.0
C      1  0.5603420000000  0.5767990000000  0.5595550000000 1.0
C      1  0.5078560000000  0.6081260000000  0.5145060000000 1.0
C      1  0.4927020000000  0.6004940000000  0.4904800000000 1.0
C      1  0.4329840000000  0.4278110000000  0.4755570000000 1.0
C      1  0.4420920000000  0.3990880000000  0.4814530000000 1.0
C      1  0.4361460000000  0.4832380000000  0.4786780000000 1.0
C      1  0.4969800000000  0.5517880000000  0.4482320000000 1.0
C      1  0.5003390000000  0.4526050000000  0.4390210000000 1.0
C      1  0.5046550000000  0.4655240000000  0.4864750000000 1.0
C      1  0.5406660000000  0.6038840000000  0.4711680000000 1.0
C      1  0.5475910000000  0.5276190000000  0.4793130000000 1.0
C      1  0.4878730000000  0.5316030000000  0.5324020000000 1.0
C      1  0.5908190000000  0.5355170000000  0.5242790000000 1.0
C      1  0.5151910000000  0.5169750000000  0.4286760000000 1.0
C      1  0.5579190000000  0.4935480000000  0.5271880000000 1.0
C      1  0.5538480000000  0.5365210000000  0.4330710000000 1.0
C      1  0.4870770000000  0.5054570000000  0.5453340000000 1.0
C      1  0.4199590000000  0.5878220000000  0.5102640000000 1.0
C      1  0.5451960000000  0.5870360000000  0.4269380000000 1.0
C      1  0.4067480000000  0.5464240000000  0.5334910000000 1.0
C      1  0.4792740000000  0.5616320000000  0.4067260000000 1.0
C      1  0.5056200000000  0.5683350000000  0.5693490000000 1.0
C      1  0.3982090000000  0.5824240000000  0.4930770000000 1.0
C      1  0.5543750000000  0.5487620000000  0.5719950000000 1.0
C      1  0.5892550000000  0.5135450000000  0.5565970000000 1.0
END
