TITL C-951337-3020-73 -2.4418455151925e-07 125000 -672.867111799597 0 0 108 (C1) n - 1
REM
REM in /home/bkarasulu/work/CARBON/AIRSS/Generating-Clusters/EDIP-Nigel-Params/with-SteepDescent/Only-C1/SD-CG/HFTN-CG
REM
REM
REM
REM
REM
REM ./C.cell (11c1c37f851c82e70ff6c80c92926a4b)
REM
REM compiler GCC version 9.2.1 20190827 (Red Hat 9.2.1-1)
REM options -cpp -mtune=generic -march=x86-64 -g -O0 -fpre-include=/usr/include/finclude/math-vector-fortran.h
REM seed -154541344 -263195042 -31119733 -204100208 1155123709 -938743411 1506148903 -1708931705 130603452 27755062 1946568525 676376712 2092395660 -1527731862 1394557272 135029900 -785864592 29092397 -834082229 -1749974645 -2142290218 633828988 -380620722 -1587210588 554260481 -1037973065 859697146 -495907773 -1927698318 1315976431 1811675797 -566399629 754446752
REM
CELL 1.54180   50.00000   50.00000   50.00000   90.00000   90.00000   90.00000
LATT -1
SFAC C  
C      1  0.5093480000000  0.5622180000000  0.5064800000000 1.0
C      1  0.5301520000000  0.4147240000000  0.5090890000000 1.0
C      1  0.5960700000000  0.5312950000000  0.5292480000000 1.0
C      1  0.5082450000000  0.5316630000000  0.4341020000000 1.0
C      1  0.4468700000000  0.5688140000000  0.5453350000000 1.0
C      1  0.5705410000000  0.4329230000000  0.4725170000000 1.0
C      1  0.5134940000000  0.4350140000000  0.5257390000000 1.0
C      1  0.5272200000000  0.4502080000000  0.4830170000000 1.0
C      1  0.5394310000000  0.5646490000000  0.4396580000000 1.0
C      1  0.5762980000000  0.5538650000000  0.4900550000000 1.0
C      1  0.5356320000000  0.5356310000000  0.4441130000000 1.0
C      1  0.5121810000000  0.4896480000000  0.4590480000000 1.0
C      1  0.4241580000000  0.4554430000000  0.5404850000000 1.0
C      1  0.4438080000000  0.4991970000000  0.5537280000000 1.0
C      1  0.4912410000000  0.5840550000000  0.5081710000000 1.0
C      1  0.5163220000000  0.5064700000000  0.4837030000000 1.0
C      1  0.4377900000000  0.4796510000000  0.4363310000000 1.0
C      1  0.4631090000000  0.4497430000000  0.5691550000000 1.0
C      1  0.5498550000000  0.5170440000000  0.5731190000000 1.0
C      1  0.5353120000000  0.5280360000000  0.5337760000000 1.0
C      1  0.4264680000000  0.5287310000000  0.4447770000000 1.0
C      1  0.5613380000000  0.4719460000000  0.5659660000000 1.0
C      1  0.5158910000000  0.4854830000000  0.4112510000000 1.0
C      1  0.5862890000000  0.5554580000000  0.5178600000000 1.0
C      1  0.5695250000000  0.4999610000000  0.5585120000000 1.0
C      1  0.5522170000000  0.4540610000000  0.5448000000000 1.0
C      1  0.4663770000000  0.4857990000000  0.4295350000000 1.0
C      1  0.5667220000000  0.4471980000000  0.5212090000000 1.0
C      1  0.4337960000000  0.5484810000000  0.5595290000000 1.0
C      1  0.4869870000000  0.4226300000000  0.5304600000000 1.0
C      1  0.5171440000000  0.5742220000000  0.4559660000000 1.0
C      1  0.5103270000000  0.4612130000000  0.5048890000000 1.0
C      1  0.4873310000000  0.4598610000000  0.5818540000000 1.0
C      1  0.5268400000000  0.4430490000000  0.5504920000000 1.0
C      1  0.4748120000000  0.5328530000000  0.5776510000000 1.0
C      1  0.4149310000000  0.5274960000000  0.5216780000000 1.0
C      1  0.4090150000000  0.5583360000000  0.4846770000000 1.0
C      1  0.4641730000000  0.5804670000000  0.4992610000000 1.0
C      1  0.4691820000000  0.5380720000000  0.4720120000000 1.0
C      1  0.5803410000000  0.5068330000000  0.5298940000000 1.0
C      1  0.4860010000000  0.5161520000000  0.5220530000000 1.0
C      1  0.4222660000000  0.4996430000000  0.4517180000000 1.0
C      1  0.4717340000000  0.4946020000000  0.5398730000000 1.0
C      1  0.5418950000000  0.5443370000000  0.5684000000000 1.0
C      1  0.4412340000000  0.4351230000000  0.5272080000000 1.0
C      1  0.5317940000000  0.4194470000000  0.4475730000000 1.0
C      1  0.4718610000000  0.4686230000000  0.5262380000000 1.0
C      1  0.5586430000000  0.4191770000000  0.4510140000000 1.0
C      1  0.5565680000000  0.5168440000000  0.5153930000000 1.0
C      1  0.4710240000000  0.5765900000000  0.5574390000000 1.0
C      1  0.4663030000000  0.5575120000000  0.4254250000000 1.0
C      1  0.4996320000000  0.4623570000000  0.4083510000000 1.0
C      1  0.4273280000000  0.5461580000000  0.5036330000000 1.0
C      1  0.4628000000000  0.4391780000000  0.4345060000000 1.0
C      1  0.4736800000000  0.4597940000000  0.4182580000000 1.0
C      1  0.4165610000000  0.4759940000000  0.5208330000000 1.0
C      1  0.4728630000000  0.5098600000000  0.4088650000000 1.0
C      1  0.4363050000000  0.4500130000000  0.4773150000000 1.0
C      1  0.5671350000000  0.4720620000000  0.4409600000000 1.0
C      1  0.4592630000000  0.4391660000000  0.4954640000000 1.0
C      1  0.5787670000000  0.4607030000000  0.4651550000000 1.0
C      1  0.5772960000000  0.5071710000000  0.4721480000000 1.0
C      1  0.4459980000000  0.5296400000000  0.4887230000000 1.0
C      1  0.5541510000000  0.5734520000000  0.4926760000000 1.0
C      1  0.4153630000000  0.4679440000000  0.4911180000000 1.0
C      1  0.5380870000000  0.4730290000000  0.5854050000000 1.0
C      1  0.5019660000000  0.5124490000000  0.4120500000000 1.0
C      1  0.5347730000000  0.5318780000000  0.4751880000000 1.0
C      1  0.4469820000000  0.5644080000000  0.5166970000000 1.0
C      1  0.4385330000000  0.4682500000000  0.5650400000000 1.0
C      1  0.4670520000000  0.4429340000000  0.5398690000000 1.0
C      1  0.4224110000000  0.5026420000000  0.5325230000000 1.0
C      1  0.5725420000000  0.5006590000000  0.4439440000000 1.0
C      1  0.4785420000000  0.5668840000000  0.4753630000000 1.0
C      1  0.4801840000000  0.4145190000000  0.5023840000000 1.0
C      1  0.4940370000000  0.4916030000000  0.5614370000000 1.0
C      1  0.5804090000000  0.4822330000000  0.4853400000000 1.0
C      1  0.5321610000000  0.4869770000000  0.4361040000000 1.0
C      1  0.4711920000000  0.4900650000000  0.4822340000000 1.0
C      1  0.4884490000000  0.5573830000000  0.5681640000000 1.0
C      1  0.5929630000000  0.4570810000000  0.5217190000000 1.0
C      1  0.4064610000000  0.4903420000000  0.4750720000000 1.0
C      1  0.5909320000000  0.4832260000000  0.5123330000000 1.0
C      1  0.4422280000000  0.5010400000000  0.4845680000000 1.0
C      1  0.5227910000000  0.4891490000000  0.5085780000000 1.0
C      1  0.4828820000000  0.4875410000000  0.4551070000000 1.0
C      1  0.5340060000000  0.5015770000000  0.5914540000000 1.0
C      1  0.5537840000000  0.5174420000000  0.4300250000000 1.0
C      1  0.5111430000000  0.5120780000000  0.6037700000000 1.0
C      1  0.4788140000000  0.4646160000000  0.4988120000000 1.0
C      1  0.5156690000000  0.4566120000000  0.5738120000000 1.0
C      1  0.5136070000000  0.5063880000000  0.5316090000000 1.0
C      1  0.5275810000000  0.5615030000000  0.4828540000000 1.0
C      1  0.4408630000000  0.4523180000000  0.4476270000000 1.0
C      1  0.4909320000000  0.5099000000000  0.5844410000000 1.0
C      1  0.4875870000000  0.5143130000000  0.4918630000000 1.0
C      1  0.4124930000000  0.5474020000000  0.4601980000000 1.0
C      1  0.4939170000000  0.5576830000000  0.4408270000000 1.0
C      1  0.4622800000000  0.5369660000000  0.4048240000000 1.0
C      1  0.5285070000000  0.5587030000000  0.5292490000000 1.0
C      1  0.5540550000000  0.5732360000000  0.5225210000000 1.0
C      1  0.5518210000000  0.4347890000000  0.4970200000000 1.0
C      1  0.5134920000000  0.4295780000000  0.4663860000000 1.0
C      1  0.5174560000000  0.5604510000000  0.5659130000000 1.0
C      1  0.5074460000000  0.4104020000000  0.4886000000000 1.0
C      1  0.4472120000000  0.5257440000000  0.5692090000000 1.0
C      1  0.4564710000000  0.5324120000000  0.4429160000000 1.0
C      1  0.5620390000000  0.5276130000000  0.4874650000000 1.0
END
