TITL C-950523-3027-697 -1.17345055560798e-06 125000 -502.942129843023 0 0 82 (C1) n - 1
REM
REM in /home/bkarasulu/work/CARBON/AIRSS/Generating-Clusters/EDIP-Nigel-Params/with-SteepDescent/Only-C1/SD-CG/HFTN-CG
REM
REM
REM
REM
REM
REM ./C.cell (11c1c37f851c82e70ff6c80c92926a4b)
REM
REM compiler GCC version 9.2.1 20190827 (Red Hat 9.2.1-1)
REM options -cpp -mtune=generic -march=x86-64 -g -O0 -fpre-include=/usr/include/finclude/math-vector-fortran.h
REM seed 959277140 -1578537569 635711703 1012804271 -666181273 -1398650365 -856925880 1973928291 1990936909 -828212271 -1657463908 -912733065 -1009509545 -156582070 1597647111 -604860962 1371516026 -226381147 -1972062125 1307103895 379396952 -1685721737 1092845403 915881143 1520696026 -432098955 447571416 -1760686104 59114384 -1291290890 -203867902 -1554336828 1154709217
REM
CELL 1.54180   50.00000   50.00000   50.00000   90.00000   90.00000   90.00000
LATT -1
SFAC C  
C      1  0.4910980000000  0.5671370000000  0.5771810000000 1.0
C      1  0.5544910000000  0.5228440000000  0.4349960000000 1.0
C      1  0.5293790000000  0.4815680000000  0.4691990000000 1.0
C      1  0.5229300000000  0.5293640000000  0.5636600000000 1.0
C      1  0.4634060000000  0.5354320000000  0.4567650000000 1.0
C      1  0.4560090000000  0.5524210000000  0.5145340000000 1.0
C      1  0.4740100000000  0.5707370000000  0.5548870000000 1.0
C      1  0.5032430000000  0.4387350000000  0.5015480000000 1.0
C      1  0.4598000000000  0.5461390000000  0.5433880000000 1.0
C      1  0.5287230000000  0.5016810000000  0.4916300000000 1.0
C      1  0.4880600000000  0.5292990000000  0.4768830000000 1.0
C      1  0.5361530000000  0.5522330000000  0.4906010000000 1.0
C      1  0.5385120000000  0.4981660000000  0.4362620000000 1.0
C      1  0.5193330000000  0.4315290000000  0.4247270000000 1.0
C      1  0.4567710000000  0.4872310000000  0.4415250000000 1.0
C      1  0.5661900000000  0.4558550000000  0.5251630000000 1.0
C      1  0.5183710000000  0.4265640000000  0.4530340000000 1.0
C      1  0.5230930000000  0.4524200000000  0.5716680000000 1.0
C      1  0.4784080000000  0.5221970000000  0.5435080000000 1.0
C      1  0.4214630000000  0.5128550000000  0.5570430000000 1.0
C      1  0.4592520000000  0.4274570000000  0.4892290000000 1.0
C      1  0.4934550000000  0.4859000000000  0.5738580000000 1.0
C      1  0.4769220000000  0.4720100000000  0.5251600000000 1.0
C      1  0.4141690000000  0.5021980000000  0.4850030000000 1.0
C      1  0.5311270000000  0.4214450000000  0.5355510000000 1.0
C      1  0.4990130000000  0.4794240000000  0.4315620000000 1.0
C      1  0.5448510000000  0.5108570000000  0.5768980000000 1.0
C      1  0.4681540000000  0.4384820000000  0.4637780000000 1.0
C      1  0.5526970000000  0.4946340000000  0.5086140000000 1.0
C      1  0.5680220000000  0.4710430000000  0.5481370000000 1.0
C      1  0.4491940000000  0.4630180000000  0.4550600000000 1.0
C      1  0.5729280000000  0.4919830000000  0.4691540000000 1.0
C      1  0.4672510000000  0.5131800000000  0.4359110000000 1.0
C      1  0.4801210000000  0.4836080000000  0.4790740000000 1.0
C      1  0.4738490000000  0.5038170000000  0.5205070000000 1.0
C      1  0.4781670000000  0.5686880000000  0.5056860000000 1.0
C      1  0.4260130000000  0.4677520000000  0.4723640000000 1.0
C      1  0.5356820000000  0.4921540000000  0.5954800000000 1.0
C      1  0.5158910000000  0.4740500000000  0.5874190000000 1.0
C      1  0.4955110000000  0.5659870000000  0.4317730000000 1.0
C      1  0.5048840000000  0.4603170000000  0.5237120000000 1.0
C      1  0.4319350000000  0.5055290000000  0.5326090000000 1.0
C      1  0.5773750000000  0.4875710000000  0.4961670000000 1.0
C      1  0.5515360000000  0.4604100000000  0.4736010000000 1.0
C      1  0.4839220000000  0.5781680000000  0.4778720000000 1.0
C      1  0.4714460000000  0.4687360000000  0.5693840000000 1.0
C      1  0.5161400000000  0.4430650000000  0.5461970000000 1.0
C      1  0.5518290000000  0.4469620000000  0.5017660000000 1.0
C      1  0.4644490000000  0.4641870000000  0.4985760000000 1.0
C      1  0.4961150000000  0.5141610000000  0.5652750000000 1.0
C      1  0.5306720000000  0.4270320000000  0.5076480000000 1.0
C      1  0.5381070000000  0.5257970000000  0.4762430000000 1.0
C      1  0.4757780000000  0.5638400000000  0.4522230000000 1.0
C      1  0.5187650000000  0.5542680000000  0.4451860000000 1.0
C      1  0.5015700000000  0.4717680000000  0.4616760000000 1.0
C      1  0.5105040000000  0.5265870000000  0.4559580000000 1.0
C      1  0.4332340000000  0.5377050000000  0.5542520000000 1.0
C      1  0.4958500000000  0.5093550000000  0.4321110000000 1.0
C      1  0.5322030000000  0.5286900000000  0.5352520000000 1.0
C      1  0.5547040000000  0.5119850000000  0.5310080000000 1.0
C      1  0.5367330000000  0.4525860000000  0.4173390000000 1.0
C      1  0.5087300000000  0.5916120000000  0.4761980000000 1.0
C      1  0.5257720000000  0.4791720000000  0.4182670000000 1.0
C      1  0.5654360000000  0.5199320000000  0.4628960000000 1.0
C      1  0.5467680000000  0.4387900000000  0.4518080000000 1.0
C      1  0.5158790000000  0.5602820000000  0.5655490000000 1.0
C      1  0.4925300000000  0.5056900000000  0.4945760000000 1.0
C      1  0.5167190000000  0.5721880000000  0.5375220000000 1.0
C      1  0.4889490000000  0.5813390000000  0.5307580000000 1.0
C      1  0.5268150000000  0.5708700000000  0.4695220000000 1.0
C      1  0.4778730000000  0.4240910000000  0.5108950000000 1.0
C      1  0.4985110000000  0.4428050000000  0.4686610000000 1.0
C      1  0.4192740000000  0.4894370000000  0.5113000000000 1.0
C      1  0.5270840000000  0.5516690000000  0.5187980000000 1.0
C      1  0.4673090000000  0.4299590000000  0.5369970000000 1.0
C      1  0.5609930000000  0.4978680000000  0.5550270000000 1.0
C      1  0.5417700000000  0.5474880000000  0.4288100000000 1.0
C      1  0.4620220000000  0.4567390000000  0.5460460000000 1.0
C      1  0.4341940000000  0.5390050000000  0.4595960000000 1.0
C      1  0.4511430000000  0.5279920000000  0.5008250000000 1.0
C      1  0.4290090000000  0.5263840000000  0.4833910000000 1.0
C      1  0.4337510000000  0.4658790000000  0.5000860000000 1.0
END
