TITL C-950521-2237-361 -4.59216481355902e-06 125000 -1188.10216687473 0 0 189 (C1) n - 1
REM
REM in /home/bkarasulu/work/CARBON/AIRSS/Generating-Clusters/EDIP-Nigel-Params/with-SteepDescent/Only-C1/SD-CG/HFTN-CG
REM
REM
REM
REM
REM
REM ./C.cell (11c1c37f851c82e70ff6c80c92926a4b)
REM
REM compiler GCC version 9.2.1 20190827 (Red Hat 9.2.1-1)
REM options -cpp -mtune=generic -march=x86-64 -g -O0 -fpre-include=/usr/include/finclude/math-vector-fortran.h
REM seed -304712949 -1019500468 1177946904 -67306544 -1977712428 1985893829 47333868 -2039539757 1241806320 768375480 -377678395 -1653678094 1595379575 -193141606 -939136487 1295593440 1562069532 -7561901 133908583 -1244979986 -1627957480 1915820329 1422992870 -1710884795 46924974 52242519 508088145 402346707 1155481102 1238747453 313610338 -75369492 -1800490917
REM
CELL 1.54180   50.00000   50.00000   50.00000   90.00000   90.00000   90.00000
LATT -1
SFAC C  
C      1  0.4815590000000  0.4991990000000  0.5355290000000 1.0
C      1  0.5340950000000  0.5538190000000  0.5421000000000 1.0
C      1  0.6101580000000  0.5053490000000  0.4890010000000 1.0
C      1  0.4506280000000  0.4938480000000  0.5837210000000 1.0
C      1  0.5231710000000  0.5553220000000  0.4118520000000 1.0
C      1  0.3964690000000  0.4838830000000  0.5369830000000 1.0
C      1  0.6006050000000  0.5427320000000  0.5219890000000 1.0
C      1  0.6098410000000  0.5342020000000  0.4951290000000 1.0
C      1  0.4511110000000  0.6073170000000  0.5234990000000 1.0
C      1  0.5174510000000  0.6186610000000  0.4905570000000 1.0
C      1  0.5512460000000  0.4233980000000  0.4394180000000 1.0
C      1  0.5116990000000  0.4833640000000  0.3859920000000 1.0
C      1  0.4308900000000  0.5170540000000  0.5865780000000 1.0
C      1  0.3798620000000  0.5077660000000  0.5314310000000 1.0
C      1  0.5500270000000  0.5602790000000  0.4248920000000 1.0
C      1  0.5669050000000  0.5133560000000  0.4160950000000 1.0
C      1  0.4413700000000  0.4653870000000  0.5680080000000 1.0
C      1  0.5831850000000  0.4847810000000  0.5791190000000 1.0
C      1  0.4947040000000  0.5557850000000  0.5921390000000 1.0
C      1  0.4336950000000  0.5849820000000  0.4545390000000 1.0
C      1  0.4361760000000  0.4801110000000  0.4290010000000 1.0
C      1  0.4039030000000  0.5599660000000  0.4818130000000 1.0
C      1  0.5139770000000  0.4308750000000  0.4142280000000 1.0
C      1  0.4346340000000  0.4714070000000  0.4943500000000 1.0
C      1  0.5259250000000  0.5601360000000  0.4933890000000 1.0
C      1  0.5244000000000  0.5324780000000  0.6016560000000 1.0
C      1  0.4922180000000  0.4575220000000  0.5457060000000 1.0
C      1  0.4186610000000  0.5238750000000  0.5584650000000 1.0
C      1  0.4850980000000  0.5546380000000  0.5371350000000 1.0
C      1  0.4597030000000  0.4200990000000  0.5699430000000 1.0
C      1  0.4583880000000  0.4502110000000  0.4175670000000 1.0
C      1  0.4055680000000  0.4563180000000  0.4590250000000 1.0
C      1  0.5173350000000  0.5220470000000  0.4559140000000 1.0
C      1  0.5112340000000  0.4694330000000  0.4848140000000 1.0
C      1  0.5754290000000  0.5583840000000  0.5193040000000 1.0
C      1  0.5595530000000  0.5033040000000  0.4767610000000 1.0
C      1  0.5442920000000  0.5120380000000  0.3980640000000 1.0
C      1  0.4769880000000  0.5999390000000  0.4717330000000 1.0
C      1  0.5006180000000  0.5259850000000  0.6161070000000 1.0
C      1  0.5307930000000  0.4586510000000  0.5994240000000 1.0
C      1  0.5516500000000  0.5350120000000  0.5256540000000 1.0
C      1  0.4736490000000  0.5014940000000  0.4000780000000 1.0
C      1  0.4746620000000  0.5776670000000  0.4249770000000 1.0
C      1  0.5364400000000  0.4850550000000  0.6083940000000 1.0
C      1  0.4960430000000  0.4034270000000  0.5376990000000 1.0
C      1  0.5275850000000  0.3955140000000  0.4513090000000 1.0
C      1  0.4948850000000  0.4993340000000  0.6060110000000 1.0
C      1  0.5176930000000  0.4194150000000  0.4886780000000 1.0
C      1  0.5807450000000  0.4654530000000  0.5319010000000 1.0
C      1  0.4843160000000  0.4042930000000  0.5669990000000 1.0
C      1  0.4480520000000  0.5693730000000  0.5013050000000 1.0
C      1  0.6166260000000  0.4871380000000  0.5122330000000 1.0
C      1  0.4691360000000  0.4845310000000  0.6067990000000 1.0
C      1  0.5036970000000  0.4431090000000  0.6026720000000 1.0
C      1  0.5422110000000  0.6157730000000  0.5044560000000 1.0
C      1  0.5636880000000  0.4137720000000  0.5392930000000 1.0
C      1  0.4859270000000  0.4178410000000  0.4914550000000 1.0
C      1  0.5431110000000  0.4379430000000  0.4143620000000 1.0
C      1  0.4568360000000  0.4957870000000  0.4442120000000 1.0
C      1  0.5997350000000  0.4510250000000  0.4449320000000 1.0
C      1  0.5227830000000  0.3866800000000  0.5359620000000 1.0
C      1  0.5660300000000  0.4901240000000  0.5229680000000 1.0
C      1  0.5194160000000  0.5918770000000  0.4442390000000 1.0
C      1  0.5270900000000  0.4946070000000  0.5437540000000 1.0
C      1  0.4313390000000  0.4419150000000  0.4234430000000 1.0
C      1  0.5193720000000  0.5264600000000  0.4038810000000 1.0
C      1  0.4571300000000  0.4587230000000  0.4748290000000 1.0
C      1  0.5419090000000  0.4014240000000  0.5548640000000 1.0
C      1  0.4349770000000  0.5066590000000  0.5096570000000 1.0
C      1  0.3893500000000  0.5310010000000  0.5489560000000 1.0
C      1  0.4761950000000  0.4006580000000  0.5150010000000 1.0
C      1  0.4093980000000  0.4802180000000  0.4422720000000 1.0
C      1  0.6029230000000  0.4607040000000  0.5106300000000 1.0
C      1  0.4712910000000  0.6068410000000  0.5008550000000 1.0
C      1  0.5360610000000  0.4623500000000  0.4974600000000 1.0
C      1  0.3993840000000  0.4468300000000  0.5347260000000 1.0
C      1  0.5443570000000  0.5106690000000  0.5994700000000 1.0
C      1  0.5338620000000  0.4376090000000  0.5163540000000 1.0
C      1  0.5332070000000  0.6001450000000  0.5278270000000 1.0
C      1  0.4977360000000  0.5627390000000  0.4817790000000 1.0
C      1  0.5669890000000  0.5082510000000  0.5790740000000 1.0
C      1  0.4311410000000  0.5383570000000  0.5154940000000 1.0
C      1  0.4714940000000  0.5376710000000  0.4422250000000 1.0
C      1  0.4775670000000  0.5094120000000  0.4292210000000 1.0
C      1  0.5330510000000  0.5327790000000  0.5020410000000 1.0
C      1  0.4037720000000  0.4387830000000  0.5060100000000 1.0
C      1  0.3876910000000  0.5164640000000  0.5039440000000 1.0
C      1  0.5460340000000  0.5792690000000  0.4475870000000 1.0
C      1  0.4370120000000  0.5447650000000  0.5454170000000 1.0
C      1  0.6112700000000  0.4971730000000  0.5409280000000 1.0
C      1  0.4622810000000  0.4049400000000  0.4647130000000 1.0
C      1  0.4973540000000  0.5436300000000  0.4578470000000 1.0
C      1  0.4430320000000  0.4788390000000  0.5429050000000 1.0
C      1  0.4372110000000  0.4149030000000  0.5509080000000 1.0
C      1  0.4589010000000  0.4406490000000  0.5218780000000 1.0
C      1  0.5053070000000  0.6070690000000  0.5354400000000 1.0
C      1  0.4375970000000  0.4191430000000  0.4714910000000 1.0
C      1  0.4051010000000  0.5040640000000  0.4582810000000 1.0
C      1  0.5139160000000  0.4752500000000  0.5618400000000 1.0
C      1  0.5582040000000  0.4435280000000  0.5387680000000 1.0
C      1  0.4334760000000  0.5753120000000  0.5484980000000 1.0
C      1  0.5473070000000  0.5273590000000  0.4609090000000 1.0
C      1  0.4013700000000  0.5430940000000  0.5076440000000 1.0
C      1  0.3994200000000  0.4965050000000  0.4859310000000 1.0
C      1  0.5969280000000  0.4752270000000  0.5564760000000 1.0
C      1  0.4971590000000  0.4640390000000  0.4382280000000 1.0
C      1  0.5217510000000  0.3904700000000  0.4821410000000 1.0
C      1  0.5004680000000  0.4595160000000  0.3745420000000 1.0
C      1  0.4619590000000  0.5895120000000  0.4488700000000 1.0
C      1  0.4588180000000  0.5570780000000  0.4122260000000 1.0
C      1  0.4734980000000  0.4475050000000  0.4432630000000 1.0
C      1  0.3975640000000  0.5525990000000  0.4529490000000 1.0
C      1  0.5321510000000  0.5844750000000  0.5723530000000 1.0
C      1  0.5954950000000  0.5515580000000  0.4756620000000 1.0
C      1  0.4596430000000  0.5956290000000  0.5522010000000 1.0
C      1  0.5370310000000  0.3851010000000  0.5088790000000 1.0
C      1  0.5927910000000  0.5417920000000  0.4476550000000 1.0
C      1  0.5514110000000  0.4683280000000  0.4143780000000 1.0
C      1  0.5702560000000  0.4432250000000  0.4768000000000 1.0
C      1  0.3886110000000  0.5542250000000  0.5318470000000 1.0
C      1  0.5097240000000  0.4324390000000  0.5382320000000 1.0
C      1  0.4459760000000  0.5377320000000  0.5983410000000 1.0
C      1  0.5783520000000  0.4310080000000  0.4507290000000 1.0
C      1  0.5056520000000  0.4099400000000  0.4344460000000 1.0
C      1  0.4808250000000  0.4190390000000  0.4477170000000 1.0
C      1  0.5292520000000  0.5731890000000  0.5198340000000 1.0
C      1  0.4260610000000  0.4377590000000  0.4515650000000 1.0
C      1  0.4664980000000  0.5498040000000  0.5834280000000 1.0
C      1  0.5968490000000  0.5231570000000  0.5429030000000 1.0
C      1  0.4192240000000  0.4385590000000  0.5551460000000 1.0
C      1  0.4707620000000  0.4846870000000  0.4665400000000 1.0
C      1  0.5498790000000  0.5953130000000  0.5523750000000 1.0
C      1  0.6118070000000  0.5216970000000  0.4435650000000 1.0
C      1  0.5650130000000  0.5358460000000  0.4363100000000 1.0
C      1  0.5634690000000  0.4788300000000  0.4615220000000 1.0
C      1  0.5062640000000  0.5991830000000  0.4702840000000 1.0
C      1  0.4228290000000  0.4990120000000  0.5385270000000 1.0
C      1  0.4946040000000  0.4401590000000  0.3941290000000 1.0
C      1  0.4647250000000  0.5283240000000  0.4896650000000 1.0
C      1  0.5259440000000  0.4258050000000  0.5641190000000 1.0
C      1  0.4827450000000  0.5047330000000  0.4872860000000 1.0
C      1  0.4979690000000  0.4996640000000  0.5766590000000 1.0
C      1  0.4674340000000  0.4493820000000  0.5696840000000 1.0
C      1  0.4156520000000  0.5704460000000  0.4343510000000 1.0
C      1  0.4269940000000  0.4187990000000  0.4996260000000 1.0
C      1  0.4765280000000  0.4559890000000  0.5977150000000 1.0
C      1  0.5398480000000  0.4785390000000  0.4421190000000 1.0
C      1  0.4482010000000  0.4136990000000  0.5221520000000 1.0
C      1  0.4714730000000  0.5072220000000  0.5621730000000 1.0
C      1  0.5398050000000  0.4841150000000  0.3912220000000 1.0
C      1  0.5060100000000  0.4178300000000  0.5845650000000 1.0
C      1  0.5042630000000  0.5739670000000  0.4263400000000 1.0
C      1  0.4653150000000  0.5389900000000  0.5560690000000 1.0
C      1  0.5299550000000  0.4333840000000  0.4620850000000 1.0
C      1  0.4306630000000  0.5862570000000  0.5205200000000 1.0
C      1  0.6104120000000  0.4986890000000  0.4594570000000 1.0
C      1  0.5463750000000  0.4907150000000  0.5008000000000 1.0
C      1  0.5607260000000  0.4026680000000  0.5123510000000 1.0
C      1  0.5901380000000  0.4791440000000  0.4464210000000 1.0
C      1  0.4759300000000  0.5538240000000  0.5033870000000 1.0
C      1  0.5806560000000  0.5314390000000  0.5664500000000 1.0
C      1  0.5722200000000  0.5761250000000  0.5463670000000 1.0
C      1  0.5780890000000  0.4856950000000  0.4198750000000 1.0
C      1  0.5076670000000  0.5110350000000  0.5316300000000 1.0
C      1  0.5742570000000  0.5667740000000  0.4889040000000 1.0
C      1  0.4316700000000  0.5510590000000  0.4193370000000 1.0
C      1  0.5649360000000  0.5554680000000  0.5651330000000 1.0
C      1  0.4885620000000  0.5845940000000  0.5498630000000 1.0
C      1  0.5663940000000  0.4203350000000  0.4923140000000 1.0
C      1  0.5076330000000  0.5002950000000  0.4374840000000 1.0
C      1  0.4993050000000  0.5101510000000  0.3881530000000 1.0
C      1  0.5189610000000  0.4612430000000  0.4563900000000 1.0
C      1  0.5537080000000  0.5074690000000  0.5423850000000 1.0
C      1  0.5965700000000  0.4544070000000  0.4835310000000 1.0
C      1  0.4339300000000  0.5637230000000  0.4756480000000 1.0
C      1  0.5377640000000  0.4538480000000  0.5705920000000 1.0
C      1  0.5044190000000  0.5790870000000  0.5756270000000 1.0
C      1  0.4051100000000  0.4648070000000  0.4872860000000 1.0
C      1  0.5493660000000  0.5617720000000  0.4729130000000 1.0
C      1  0.4955280000000  0.6192810000000  0.5106860000000 1.0
C      1  0.5152370000000  0.5094030000000  0.5028280000000 1.0
C      1  0.4702690000000  0.4705740000000  0.3953820000000 1.0
C      1  0.4923280000000  0.4658520000000  0.5085540000000 1.0
C      1  0.4481260000000  0.5359230000000  0.4641100000000 1.0
C      1  0.4741650000000  0.4451910000000  0.4975070000000 1.0
C      1  0.5087370000000  0.5385980000000  0.5433190000000 1.0
C      1  0.4390230000000  0.4602250000000  0.5218390000000 1.0
C      1  0.4188140000000  0.5294130000000  0.4481580000000 1.0
C      1  0.4703150000000  0.4900960000000  0.5105980000000 1.0
END
