TITL C-950525-1983-271 -1.8232760346066e-06 125000 -516.380915312485 0 0 84 (C1) n - 1
REM
REM in /home/bkarasulu/work/CARBON/AIRSS/Generating-Clusters/EDIP-Nigel-Params/with-SteepDescent/Only-C1/SD-CG/HFTN-CG
REM
REM
REM
REM
REM
REM ./C.cell (11c1c37f851c82e70ff6c80c92926a4b)
REM
REM compiler GCC version 9.2.1 20190827 (Red Hat 9.2.1-1)
REM options -cpp -mtune=generic -march=x86-64 -g -O0 -fpre-include=/usr/include/finclude/math-vector-fortran.h
REM seed 1360696947 836109627 1953944419 -1766898009 -1647676495 30766995 2129704667 -885909111 -2032398515 1331626083 -303925148 519438797 -36363047 20874460 -2025679888 1724731191 1427555255 -1655257629 1170295301 604008528 1271821599 -1908702044 -1919702341 -734221376 1889776357 719783536 478929383 -600515583 1200547968 853520811 2118315757 -553782335 584785161
REM
CELL 1.54180   50.00000   50.00000   50.00000   90.00000   90.00000   90.00000
LATT -1
SFAC C  
C      1  0.4836620000000  0.5872130000000  0.5189010000000 1.0
C      1  0.5757740000000  0.4959400000000  0.5096410000000 1.0
C      1  0.4547740000000  0.4858120000000  0.5249930000000 1.0
C      1  0.4796690000000  0.4866390000000  0.5680520000000 1.0
C      1  0.5352490000000  0.5848360000000  0.4815730000000 1.0
C      1  0.5154510000000  0.4240520000000  0.4659020000000 1.0
C      1  0.4811010000000  0.5430110000000  0.4579540000000 1.0
C      1  0.4395860000000  0.5094240000000  0.5753310000000 1.0
C      1  0.4287980000000  0.4396570000000  0.5104400000000 1.0
C      1  0.4399530000000  0.4966450000000  0.4692730000000 1.0
C      1  0.4455370000000  0.5408020000000  0.5270760000000 1.0
C      1  0.5606730000000  0.4968270000000  0.4341180000000 1.0
C      1  0.4767170000000  0.4742240000000  0.4318440000000 1.0
C      1  0.5519280000000  0.4687410000000  0.4307470000000 1.0
C      1  0.5809200000000  0.5248930000000  0.5096770000000 1.0
C      1  0.4584100000000  0.5511310000000  0.5495930000000 1.0
C      1  0.5336250000000  0.5102350000000  0.4290970000000 1.0
C      1  0.4399160000000  0.4706890000000  0.5489080000000 1.0
C      1  0.4782450000000  0.5315910000000  0.5554480000000 1.0
C      1  0.5571680000000  0.5653530000000  0.4818530000000 1.0
C      1  0.4279120000000  0.4458150000000  0.5380620000000 1.0
C      1  0.5065940000000  0.4776330000000  0.5772140000000 1.0
C      1  0.5700880000000  0.4834530000000  0.4825460000000 1.0
C      1  0.4229700000000  0.4934090000000  0.5591270000000 1.0
C      1  0.4704510000000  0.4314080000000  0.4505720000000 1.0
C      1  0.5209200000000  0.4634680000000  0.4977600000000 1.0
C      1  0.4975740000000  0.5197290000000  0.4721170000000 1.0
C      1  0.5444250000000  0.4312170000000  0.4664450000000 1.0
C      1  0.4960510000000  0.5126260000000  0.5258010000000 1.0
C      1  0.4869890000000  0.5682290000000  0.4725770000000 1.0
C      1  0.4282080000000  0.5135190000000  0.4905860000000 1.0
C      1  0.5269310000000  0.5161360000000  0.5280550000000 1.0
C      1  0.4365190000000  0.5403260000000  0.4809830000000 1.0
C      1  0.4459470000000  0.4687860000000  0.4704100000000 1.0
C      1  0.4922930000000  0.4608890000000  0.5036730000000 1.0
C      1  0.4768770000000  0.4410300000000  0.5660870000000 1.0
C      1  0.4116550000000  0.5071740000000  0.5374770000000 1.0
C      1  0.5417440000000  0.5206160000000  0.4718810000000 1.0
C      1  0.5189860000000  0.5585120000000  0.5362800000000 1.0
C      1  0.5514970000000  0.4595820000000  0.4591160000000 1.0
C      1  0.4486680000000  0.4300010000000  0.5260440000000 1.0
C      1  0.4852490000000  0.5090650000000  0.4969690000000 1.0
C      1  0.5231160000000  0.4389400000000  0.5534270000000 1.0
C      1  0.4834620000000  0.4864800000000  0.5380880000000 1.0
C      1  0.5427320000000  0.5238360000000  0.5022190000000 1.0
C      1  0.4601630000000  0.4641910000000  0.5703530000000 1.0
C      1  0.4998690000000  0.4191740000000  0.5172570000000 1.0
C      1  0.5134430000000  0.5766900000000  0.4624130000000 1.0
C      1  0.5407630000000  0.5405830000000  0.4297320000000 1.0
C      1  0.5289980000000  0.5226340000000  0.5668630000000 1.0
C      1  0.4501040000000  0.5547980000000  0.5025060000000 1.0
C      1  0.4349950000000  0.5125040000000  0.5207830000000 1.0
C      1  0.5261400000000  0.4254940000000  0.5292190000000 1.0
C      1  0.5033000000000  0.4132780000000  0.4894310000000 1.0
C      1  0.5522020000000  0.4805980000000  0.5551750000000 1.0
C      1  0.5102710000000  0.5842370000000  0.5262360000000 1.0
C      1  0.4979700000000  0.4359210000000  0.4457650000000 1.0
C      1  0.4482230000000  0.5115390000000  0.4455570000000 1.0
C      1  0.5319480000000  0.4782000000000  0.4743600000000 1.0
C      1  0.4882870000000  0.4476590000000  0.5307700000000 1.0
C      1  0.5145000000000  0.4990800000000  0.4555150000000 1.0
C      1  0.5046170000000  0.4483530000000  0.5717920000000 1.0
C      1  0.5066980000000  0.5415360000000  0.5574400000000 1.0
C      1  0.4876880000000  0.5215970000000  0.4163650000000 1.0
C      1  0.5027350000000  0.4623130000000  0.4339630000000 1.0
C      1  0.5400830000000  0.4424050000000  0.5092040000000 1.0
C      1  0.5274980000000  0.5942870000000  0.5069130000000 1.0
C      1  0.5560120000000  0.4265460000000  0.4915010000000 1.0
C      1  0.5452610000000  0.5474580000000  0.4594980000000 1.0
C      1  0.4676510000000  0.5125680000000  0.5755890000000 1.0
C      1  0.5253310000000  0.4732850000000  0.4205840000000 1.0
C      1  0.4720280000000  0.5028810000000  0.4309880000000 1.0
C      1  0.4731180000000  0.5720770000000  0.4979450000000 1.0
C      1  0.5286140000000  0.4924290000000  0.5648220000000 1.0
C      1  0.5688770000000  0.4838010000000  0.5340970000000 1.0
C      1  0.4920950000000  0.5453530000000  0.4308740000000 1.0
C      1  0.4510120000000  0.5388050000000  0.4551820000000 1.0
C      1  0.5478930000000  0.5544330000000  0.5352930000000 1.0
C      1  0.4711360000000  0.4813130000000  0.4962970000000 1.0
C      1  0.5655860000000  0.5047800000000  0.4627060000000 1.0
C      1  0.5178490000000  0.5606020000000  0.4348630000000 1.0
C      1  0.5523820000000  0.5317430000000  0.5522400000000 1.0
C      1  0.5606990000000  0.5482380000000  0.5083150000000 1.0
C      1  0.4589460000000  0.4570260000000  0.4476550000000 1.0
END
