TITL C-951337-3020-328 -3.29866646196774e-06 125000 -935.464011992381 0 0 148 (C1) n - 1
REM
REM in /home/bkarasulu/work/CARBON/AIRSS/Generating-Clusters/EDIP-Nigel-Params/with-SteepDescent/Only-C1/SD-CG/HFTN-CG
REM
REM
REM
REM
REM
REM ./C.cell (11c1c37f851c82e70ff6c80c92926a4b)
REM
REM compiler GCC version 9.2.1 20190827 (Red Hat 9.2.1-1)
REM options -cpp -mtune=generic -march=x86-64 -g -O0 -fpre-include=/usr/include/finclude/math-vector-fortran.h
REM seed 378007701 1810578386 -546275264 655913131 -2109622343 321847299 -918410487 -1897478280 -1089025652 179964020 -1100076184 597613440 676741777 495566395 1858176386 -354430162 -662143815 1676726033 1976610028 1681348294 248240721 -580341068 1700907697 -356102569 -665094499 -35272342 1709778591 855156936 461888817 855679664 430474153 2102754318 -893991489
REM
CELL 1.54180   50.00000   50.00000   50.00000   90.00000   90.00000   90.00000
LATT -1
SFAC C  
C      1  0.5019350000000  0.5934650000000  0.5240390000000 1.0
C      1  0.5182770000000  0.6005070000000  0.4968560000000 1.0
C      1  0.4266000000000  0.5633840000000  0.5491430000000 1.0
C      1  0.5439020000000  0.4277040000000  0.4419780000000 1.0
C      1  0.4620200000000  0.5481560000000  0.5196910000000 1.0
C      1  0.5230150000000  0.5267870000000  0.5224010000000 1.0
C      1  0.4351420000000  0.4385440000000  0.5282420000000 1.0
C      1  0.4656240000000  0.5753390000000  0.5666380000000 1.0
C      1  0.5684740000000  0.5452980000000  0.5434310000000 1.0
C      1  0.4784910000000  0.4479230000000  0.5438980000000 1.0
C      1  0.4958570000000  0.5686120000000  0.5709500000000 1.0
C      1  0.4100310000000  0.4810240000000  0.5231390000000 1.0
C      1  0.5003620000000  0.5080980000000  0.4807940000000 1.0
C      1  0.4484470000000  0.4153680000000  0.5406870000000 1.0
C      1  0.5668370000000  0.5506890000000  0.5138080000000 1.0
C      1  0.5080560000000  0.4903490000000  0.3838720000000 1.0
C      1  0.4620120000000  0.4830690000000  0.4679430000000 1.0
C      1  0.4993830000000  0.5419520000000  0.5569330000000 1.0
C      1  0.5455500000000  0.5110520000000  0.4044210000000 1.0
C      1  0.4924310000000  0.4826610000000  0.4311220000000 1.0
C      1  0.5620340000000  0.4556460000000  0.5695790000000 1.0
C      1  0.4269930000000  0.4302650000000  0.5017020000000 1.0
C      1  0.5345330000000  0.4830800000000  0.5323920000000 1.0
C      1  0.5172730000000  0.4457330000000  0.5151300000000 1.0
C      1  0.5068470000000  0.4058800000000  0.4713100000000 1.0
C      1  0.4909620000000  0.4916010000000  0.5535380000000 1.0
C      1  0.5019750000000  0.5235560000000  0.4176640000000 1.0
C      1  0.5411910000000  0.5818940000000  0.4878700000000 1.0
C      1  0.5864330000000  0.4703250000000  0.4792380000000 1.0
C      1  0.5944030000000  0.4758060000000  0.5389740000000 1.0
C      1  0.4207160000000  0.4603390000000  0.5426290000000 1.0
C      1  0.4991680000000  0.4868910000000  0.5008330000000 1.0
C      1  0.4191630000000  0.5457110000000  0.4615840000000 1.0
C      1  0.4494590000000  0.5011700000000  0.5223520000000 1.0
C      1  0.4810930000000  0.5812120000000  0.4327610000000 1.0
C      1  0.4478900000000  0.4116880000000  0.4915670000000 1.0
C      1  0.5754230000000  0.5182530000000  0.5467280000000 1.0
C      1  0.4211500000000  0.5084290000000  0.5315120000000 1.0
C      1  0.5291640000000  0.5549880000000  0.4851700000000 1.0
C      1  0.5001370000000  0.4627290000000  0.5581850000000 1.0
C      1  0.5285990000000  0.4474830000000  0.4022410000000 1.0
C      1  0.4403840000000  0.4456780000000  0.4583340000000 1.0
C      1  0.5816950000000  0.4534590000000  0.4556650000000 1.0
C      1  0.4745170000000  0.5342050000000  0.4152310000000 1.0
C      1  0.5003570000000  0.4450700000000  0.4044540000000 1.0
C      1  0.4316910000000  0.5565870000000  0.5213010000000 1.0
C      1  0.5698680000000  0.4689180000000  0.4333780000000 1.0
C      1  0.4687750000000  0.4449190000000  0.5876250000000 1.0
C      1  0.4742090000000  0.5103150000000  0.4655900000000 1.0
C      1  0.4136270000000  0.5332820000000  0.5140520000000 1.0
C      1  0.4926550000000  0.5042540000000  0.5830770000000 1.0
C      1  0.5660880000000  0.4374550000000  0.5464240000000 1.0
C      1  0.4795400000000  0.3989800000000  0.4642030000000 1.0
C      1  0.4623610000000  0.4835070000000  0.5434660000000 1.0
C      1  0.5227840000000  0.4197970000000  0.5556940000000 1.0
C      1  0.5492580000000  0.5064530000000  0.4849280000000 1.0
C      1  0.5849960000000  0.4501630000000  0.5266520000000 1.0
C      1  0.5557050000000  0.4858990000000  0.5111500000000 1.0
C      1  0.5169670000000  0.5536720000000  0.5954930000000 1.0
C      1  0.5546770000000  0.5954080000000  0.5303230000000 1.0
C      1  0.4465750000000  0.5779840000000  0.4852230000000 1.0
C      1  0.5158140000000  0.5328180000000  0.4422910000000 1.0
C      1  0.5613750000000  0.5189790000000  0.4258380000000 1.0
C      1  0.5352290000000  0.4220280000000  0.5092420000000 1.0
C      1  0.5330140000000  0.4833100000000  0.5985670000000 1.0
C      1  0.4966020000000  0.5894230000000  0.4781900000000 1.0
C      1  0.4603080000000  0.3998050000000  0.5171500000000 1.0
C      1  0.5619690000000  0.5798770000000  0.5084740000000 1.0
C      1  0.5232760000000  0.5059410000000  0.4619340000000 1.0
C      1  0.4711680000000  0.4741330000000  0.4953610000000 1.0
C      1  0.4972310000000  0.4551850000000  0.5872910000000 1.0
C      1  0.4093570000000  0.5270250000000  0.4843080000000 1.0
C      1  0.4714030000000  0.4105070000000  0.4368850000000 1.0
C      1  0.4478210000000  0.4666480000000  0.5882370000000 1.0
C      1  0.4897680000000  0.5611790000000  0.5137750000000 1.0
C      1  0.5526870000000  0.5867040000000  0.4603990000000 1.0
C      1  0.4687690000000  0.4676640000000  0.4427120000000 1.0
C      1  0.5906870000000  0.5422240000000  0.4979830000000 1.0
C      1  0.5376520000000  0.5773640000000  0.5451030000000 1.0
C      1  0.5407010000000  0.5065240000000  0.5824100000000 1.0
C      1  0.4545920000000  0.5134910000000  0.4063880000000 1.0
C      1  0.4538480000000  0.4893260000000  0.6037490000000 1.0
C      1  0.4913510000000  0.5442190000000  0.4574170000000 1.0
C      1  0.5534300000000  0.5613000000000  0.5637940000000 1.0
C      1  0.4454780000000  0.4694980000000  0.4213080000000 1.0
C      1  0.4227480000000  0.5006540000000  0.4773410000000 1.0
C      1  0.4530560000000  0.5244280000000  0.4805870000000 1.0
C      1  0.4132200000000  0.4899420000000  0.4527470000000 1.0
C      1  0.5162660000000  0.4796090000000  0.4476440000000 1.0
C      1  0.5342510000000  0.5609270000000  0.4252190000000 1.0
C      1  0.5140310000000  0.4024020000000  0.4998300000000 1.0
C      1  0.4217120000000  0.4876890000000  0.4264950000000 1.0
C      1  0.4646720000000  0.5221720000000  0.5077820000000 1.0
C      1  0.5000180000000  0.5593960000000  0.4834320000000 1.0
C      1  0.5188590000000  0.5123160000000  0.3968470000000 1.0
C      1  0.5548800000000  0.4357400000000  0.4908230000000 1.0
C      1  0.4443640000000  0.5549350000000  0.5696690000000 1.0
C      1  0.4924950000000  0.4319720000000  0.4310180000000 1.0
C      1  0.5569220000000  0.5463480000000  0.4351520000000 1.0
C      1  0.5178890000000  0.4653320000000  0.4932460000000 1.0
C      1  0.5301300000000  0.5860070000000  0.4397200000000 1.0
C      1  0.4483560000000  0.5255090000000  0.5722280000000 1.0
C      1  0.5264410000000  0.4564000000000  0.5433510000000 1.0
C      1  0.5015820000000  0.5924810000000  0.4483820000000 1.0
C      1  0.4257620000000  0.5792490000000  0.5040230000000 1.0
C      1  0.4612230000000  0.4834430000000  0.3995070000000 1.0
C      1  0.4274850000000  0.5149410000000  0.4177980000000 1.0
C      1  0.5145000000000  0.5268270000000  0.5794070000000 1.0
C      1  0.4887720000000  0.4366430000000  0.5187100000000 1.0
C      1  0.5684790000000  0.5044410000000  0.5709160000000 1.0
C      1  0.4700500000000  0.5554000000000  0.4385680000000 1.0
C      1  0.4583560000000  0.5904680000000  0.5431050000000 1.0
C      1  0.4694950000000  0.5949530000000  0.4916540000000 1.0
C      1  0.4678890000000  0.4445570000000  0.4992370000000 1.0
C      1  0.4182790000000  0.5347760000000  0.4356990000000 1.0
C      1  0.5036760000000  0.4813500000000  0.6001560000000 1.0
C      1  0.5739490000000  0.4979140000000  0.4416490000000 1.0
C      1  0.5485770000000  0.4489060000000  0.4222060000000 1.0
C      1  0.4971170000000  0.4069260000000  0.5514140000000 1.0
C      1  0.5942140000000  0.5132420000000  0.4984960000000 1.0
C      1  0.5092810000000  0.4567760000000  0.4661990000000 1.0
C      1  0.4269860000000  0.5073120000000  0.5626340000000 1.0
C      1  0.4445120000000  0.4160320000000  0.4529820000000 1.0
C      1  0.4652770000000  0.5127750000000  0.5929360000000 1.0
C      1  0.5439680000000  0.5593150000000  0.5903730000000 1.0
C      1  0.5638660000000  0.4309020000000  0.4633580000000 1.0
C      1  0.4759170000000  0.4371640000000  0.4714370000000 1.0
C      1  0.4911410000000  0.4747990000000  0.4018720000000 1.0
C      1  0.5817750000000  0.4996050000000  0.5238900000000 1.0
C      1  0.4902620000000  0.4062170000000  0.5210560000000 1.0
C      1  0.5154530000000  0.4287390000000  0.4527680000000 1.0
C      1  0.4219320000000  0.4777860000000  0.4963620000000 1.0
C      1  0.5454380000000  0.4586250000000  0.5921710000000 1.0
C      1  0.5453370000000  0.4175600000000  0.5376540000000 1.0
C      1  0.5798260000000  0.4997800000000  0.4730520000000 1.0
C      1  0.5895740000000  0.5535920000000  0.4725000000000 1.0
C      1  0.4709400000000  0.4230950000000  0.5600260000000 1.0
C      1  0.4233290000000  0.4516210000000  0.4827520000000 1.0
C      1  0.5701780000000  0.4589750000000  0.5019160000000 1.0
C      1  0.4381340000000  0.4777900000000  0.5616080000000 1.0
C      1  0.5426260000000  0.5339560000000  0.5013570000000 1.0
C      1  0.5105940000000  0.4993850000000  0.5278550000000 1.0
C      1  0.4477100000000  0.5532890000000  0.4670750000000 1.0
C      1  0.5808690000000  0.4775370000000  0.5662540000000 1.0
C      1  0.4733310000000  0.6015120000000  0.5211870000000 1.0
C      1  0.5116970000000  0.5508340000000  0.5327240000000 1.0
C      1  0.5116720000000  0.5892470000000  0.5542690000000 1.0
C      1  0.5713520000000  0.5636490000000  0.4536600000000 1.0
END
