TITL C-950527-2551-279 -9.993688241262e-07 125000 -1223.8137108246 0 0 194 (C1) n - 1
REM
REM in /home/bkarasulu/work/CARBON/AIRSS/Generating-Clusters/EDIP-Nigel-Params/with-SteepDescent/Only-C1/SD-CG/HFTN-CG
REM
REM
REM
REM
REM
REM ./C.cell (11c1c37f851c82e70ff6c80c92926a4b)
REM
REM compiler GCC version 9.2.1 20190827 (Red Hat 9.2.1-1)
REM options -cpp -mtune=generic -march=x86-64 -g -O0 -fpre-include=/usr/include/finclude/math-vector-fortran.h
REM seed 773033157 1341101003 -956222196 -1734395222 398531537 1637907352 -1440112096 918589619 1488487826 -356376206 -574661802 -1430923823 -1482809329 -2034368786 1831112909 1686002969 671461188 553997463 1501275892 1346940477 -1754049842 -231678024 1945788894 649264634 812120772 826241480 -599869422 -1438686183 -1898709091 -1413403817 1514093786 1836880721 1477230762
REM
CELL 1.54180   50.00000   50.00000   50.00000   90.00000   90.00000   90.00000
LATT -1
SFAC C  
C      1  0.4645650000000  0.5105700000000  0.3951100000000 1.0
C      1  0.4727480000000  0.5386230000000  0.5614010000000 1.0
C      1  0.5264150000000  0.5571400000000  0.4714880000000 1.0
C      1  0.5657550000000  0.5326700000000  0.4195130000000 1.0
C      1  0.4565180000000  0.5473920000000  0.5853640000000 1.0
C      1  0.5808170000000  0.5732290000000  0.5195340000000 1.0
C      1  0.4782540000000  0.4916360000000  0.4641650000000 1.0
C      1  0.4865550000000  0.5957700000000  0.5275960000000 1.0
C      1  0.5597250000000  0.4347210000000  0.4985850000000 1.0
C      1  0.3995740000000  0.5599580000000  0.4837070000000 1.0
C      1  0.5106040000000  0.5838850000000  0.5384880000000 1.0
C      1  0.4934810000000  0.5089790000000  0.3881350000000 1.0
C      1  0.4536010000000  0.4373950000000  0.5437420000000 1.0
C      1  0.5384600000000  0.5364730000000  0.4538040000000 1.0
C      1  0.4917020000000  0.4012080000000  0.5535380000000 1.0
C      1  0.5675540000000  0.5781130000000  0.4433770000000 1.0
C      1  0.4520540000000  0.4069300000000  0.5011980000000 1.0
C      1  0.4627970000000  0.4554800000000  0.4913080000000 1.0
C      1  0.4391530000000  0.5739250000000  0.5275580000000 1.0
C      1  0.5338090000000  0.5810810000000  0.5193170000000 1.0
C      1  0.4415320000000  0.4594360000000  0.5957690000000 1.0
C      1  0.3896190000000  0.5417290000000  0.5259270000000 1.0
C      1  0.6014620000000  0.4483410000000  0.4637380000000 1.0
C      1  0.5128150000000  0.5638410000000  0.5922900000000 1.0
C      1  0.4323310000000  0.5274180000000  0.4902850000000 1.0
C      1  0.4297860000000  0.4089520000000  0.5208220000000 1.0
C      1  0.4015860000000  0.5056620000000  0.5858960000000 1.0
C      1  0.5682740000000  0.4427770000000  0.4307140000000 1.0
C      1  0.4968730000000  0.4479010000000  0.5311890000000 1.0
C      1  0.4485090000000  0.5346900000000  0.3940090000000 1.0
C      1  0.4635010000000  0.5856320000000  0.5418050000000 1.0
C      1  0.3866000000000  0.4928660000000  0.5651450000000 1.0
C      1  0.6101660000000  0.4993790000000  0.5613920000000 1.0
C      1  0.5233200000000  0.4493270000000  0.5447330000000 1.0
C      1  0.5184240000000  0.5315430000000  0.5117590000000 1.0
C      1  0.4365300000000  0.5900150000000  0.4968800000000 1.0
C      1  0.4991060000000  0.4402010000000  0.4187870000000 1.0
C      1  0.5673760000000  0.4740420000000  0.5665850000000 1.0
C      1  0.5104430000000  0.5793190000000  0.3934010000000 1.0
C      1  0.4088230000000  0.4308140000000  0.5221610000000 1.0
C      1  0.5771080000000  0.5500630000000  0.4415590000000 1.0
C      1  0.5008330000000  0.5568540000000  0.5471140000000 1.0
C      1  0.5909960000000  0.5038090000000  0.4688050000000 1.0
C      1  0.5908710000000  0.4841550000000  0.4939690000000 1.0
C      1  0.5350400000000  0.4088660000000  0.4356720000000 1.0
C      1  0.5108250000000  0.4312430000000  0.4815290000000 1.0
C      1  0.5328660000000  0.4817270000000  0.5161400000000 1.0
C      1  0.5259880000000  0.4329430000000  0.4213400000000 1.0
C      1  0.4752120000000  0.5544070000000  0.5039570000000 1.0
C      1  0.4831720000000  0.5847390000000  0.5011010000000 1.0
C      1  0.4994520000000  0.4672230000000  0.5882760000000 1.0
C      1  0.5504280000000  0.5611010000000  0.5615430000000 1.0
C      1  0.4649510000000  0.5881620000000  0.5707700000000 1.0
C      1  0.5854030000000  0.4957010000000  0.5762610000000 1.0
C      1  0.5109950000000  0.4851440000000  0.3939730000000 1.0
C      1  0.4484050000000  0.5793900000000  0.4067720000000 1.0
C      1  0.4794520000000  0.4353800000000  0.4395800000000 1.0
C      1  0.4422070000000  0.5641880000000  0.4537250000000 1.0
C      1  0.4931210000000  0.5860460000000  0.4505310000000 1.0
C      1  0.4569020000000  0.4359820000000  0.5919720000000 1.0
C      1  0.3923070000000  0.4918060000000  0.5169650000000 1.0
C      1  0.5411550000000  0.4199230000000  0.4776100000000 1.0
C      1  0.4214380000000  0.5132000000000  0.4328850000000 1.0
C      1  0.4464220000000  0.5172240000000  0.4467300000000 1.0
C      1  0.5668670000000  0.5024440000000  0.4203460000000 1.0
C      1  0.5677440000000  0.4469520000000  0.5822400000000 1.0
C      1  0.5387430000000  0.4862070000000  0.5684780000000 1.0
C      1  0.4087850000000  0.4511770000000  0.5459760000000 1.0
C      1  0.4434570000000  0.5247430000000  0.5976940000000 1.0
C      1  0.5689190000000  0.5187890000000  0.5838350000000 1.0
C      1  0.5177360000000  0.5221640000000  0.4374680000000 1.0
C      1  0.4317210000000  0.5643220000000  0.4246760000000 1.0
C      1  0.4072500000000  0.5388320000000  0.5502870000000 1.0
C      1  0.5461230000000  0.4530300000000  0.4144000000000 1.0
C      1  0.4435930000000  0.4877900000000  0.5178270000000 1.0
C      1  0.5446100000000  0.5128320000000  0.4715430000000 1.0
C      1  0.5062960000000  0.5334440000000  0.3808110000000 1.0
C      1  0.4763330000000  0.5382140000000  0.4791360000000 1.0
C      1  0.5444130000000  0.4889600000000  0.4560390000000 1.0
C      1  0.5330060000000  0.4093060000000  0.5289910000000 1.0
C      1  0.4984410000000  0.4738730000000  0.4473900000000 1.0
C      1  0.6039720000000  0.5469960000000  0.4562760000000 1.0
C      1  0.4523580000000  0.4776940000000  0.4715200000000 1.0
C      1  0.5030400000000  0.4157900000000  0.5771100000000 1.0
C      1  0.4636340000000  0.5593130000000  0.3941030000000 1.0
C      1  0.4279110000000  0.4863270000000  0.4208160000000 1.0
C      1  0.4031150000000  0.5298210000000  0.4823960000000 1.0
C      1  0.4725430000000  0.5071740000000  0.4384360000000 1.0
C      1  0.5942540000000  0.4467240000000  0.5356340000000 1.0
C      1  0.5098580000000  0.4906670000000  0.6050780000000 1.0
C      1  0.5472690000000  0.5462980000000  0.4008210000000 1.0
C      1  0.5325700000000  0.5701730000000  0.4086440000000 1.0
C      1  0.4865940000000  0.4383040000000  0.5899950000000 1.0
C      1  0.5344720000000  0.5326810000000  0.3799740000000 1.0
C      1  0.3997760000000  0.5111060000000  0.4570750000000 1.0
C      1  0.4915070000000  0.3796080000000  0.4911790000000 1.0
C      1  0.4926910000000  0.5583520000000  0.3879480000000 1.0
C      1  0.6094710000000  0.4474900000000  0.5110100000000 1.0
C      1  0.5324280000000  0.4167200000000  0.5814820000000 1.0
C      1  0.4552060000000  0.5253810000000  0.5378050000000 1.0
C      1  0.5340160000000  0.5067570000000  0.5920690000000 1.0
C      1  0.6268660000000  0.5118480000000  0.5154290000000 1.0
C      1  0.4867240000000  0.4196620000000  0.4647590000000 1.0
C      1  0.3892780000000  0.5195470000000  0.5073430000000 1.0
C      1  0.5410610000000  0.6022580000000  0.4766360000000 1.0
C      1  0.4306860000000  0.5062330000000  0.5779990000000 1.0
C      1  0.4138620000000  0.4370650000000  0.4712560000000 1.0
C      1  0.5701410000000  0.5260710000000  0.4757930000000 1.0
C      1  0.5353850000000  0.5534440000000  0.5006650000000 1.0
C      1  0.5881780000000  0.4603590000000  0.4423750000000 1.0
C      1  0.4373340000000  0.4972120000000  0.4911380000000 1.0
C      1  0.5162340000000  0.5321840000000  0.5827160000000 1.0
C      1  0.4926870000000  0.4971550000000  0.5564160000000 1.0
C      1  0.5575860000000  0.5781330000000  0.5364600000000 1.0
C      1  0.5227950000000  0.4921220000000  0.4363940000000 1.0
C      1  0.4469990000000  0.4808720000000  0.5773760000000 1.0
C      1  0.3944200000000  0.4822870000000  0.4673190000000 1.0
C      1  0.6087810000000  0.5640000000000  0.4797870000000 1.0
C      1  0.5375330000000  0.3884760000000  0.4809690000000 1.0
C      1  0.5391940000000  0.4829000000000  0.4103690000000 1.0
C      1  0.4705160000000  0.4737560000000  0.4191290000000 1.0
C      1  0.6231840000000  0.5313620000000  0.4937690000000 1.0
C      1  0.5220590000000  0.4950960000000  0.5432040000000 1.0
C      1  0.5379780000000  0.5753000000000  0.5844650000000 1.0
C      1  0.4937070000000  0.5418040000000  0.5224940000000 1.0
C      1  0.5607660000000  0.4183510000000  0.4450370000000 1.0
C      1  0.6200610000000  0.5205980000000  0.5437450000000 1.0
C      1  0.5661900000000  0.5419090000000  0.5025480000000 1.0
C      1  0.4636470000000  0.5110700000000  0.6110200000000 1.0
C      1  0.5106020000000  0.4770670000000  0.4970050000000 1.0
C      1  0.4040700000000  0.4836270000000  0.5433830000000 1.0
C      1  0.3962320000000  0.4730720000000  0.4957290000000 1.0
C      1  0.5897780000000  0.4530180000000  0.4893840000000 1.0
C      1  0.5887220000000  0.5285790000000  0.5471870000000 1.0
C      1  0.4426780000000  0.4576740000000  0.5134310000000 1.0
C      1  0.5738740000000  0.5435420000000  0.5696370000000 1.0
C      1  0.4726750000000  0.4985560000000  0.5178630000000 1.0
C      1  0.4480560000000  0.5368260000000  0.4671110000000 1.0
C      1  0.5261400000000  0.5421950000000  0.5556820000000 1.0
C      1  0.5727540000000  0.5208670000000  0.5231900000000 1.0
C      1  0.4227410000000  0.5764710000000  0.4745180000000 1.0
C      1  0.5807300000000  0.4205280000000  0.5413600000000 1.0
C      1  0.4251220000000  0.5371900000000  0.4129730000000 1.0
C      1  0.4696660000000  0.4782980000000  0.5574400000000 1.0
C      1  0.4891350000000  0.5184620000000  0.5769110000000 1.0
C      1  0.5718700000000  0.4674730000000  0.5373490000000 1.0
C      1  0.4631670000000  0.6008590000000  0.4877180000000 1.0
C      1  0.4495880000000  0.4397150000000  0.4368210000000 1.0
C      1  0.5136320000000  0.3890250000000  0.5368790000000 1.0
C      1  0.4795880000000  0.3998400000000  0.5110690000000 1.0
C      1  0.4830970000000  0.5102510000000  0.4881620000000 1.0
C      1  0.5432510000000  0.4644690000000  0.4696720000000 1.0
C      1  0.5399700000000  0.4430090000000  0.5915100000000 1.0
C      1  0.4316530000000  0.4418760000000  0.5631320000000 1.0
C      1  0.5231180000000  0.5843530000000  0.4585360000000 1.0
C      1  0.4601580000000  0.4261970000000  0.4803650000000 1.0
C      1  0.4483890000000  0.5463880000000  0.5159180000000 1.0
C      1  0.5358030000000  0.6049200000000  0.5036190000000 1.0
C      1  0.5150150000000  0.4608310000000  0.4737450000000 1.0
C      1  0.5309360000000  0.5215220000000  0.5358850000000 1.0
C      1  0.5187730000000  0.3780570000000  0.5014660000000 1.0
C      1  0.5021290000000  0.4231820000000  0.5119220000000 1.0
C      1  0.4397940000000  0.5712410000000  0.5772870000000 1.0
C      1  0.4386660000000  0.4252430000000  0.4603720000000 1.0
C      1  0.5220750000000  0.3876080000000  0.4543930000000 1.0
C      1  0.4225910000000  0.5657230000000  0.5526160000000 1.0
C      1  0.4905190000000  0.5090140000000  0.6149150000000 1.0
C      1  0.5683230000000  0.4205190000000  0.5676910000000 1.0
C      1  0.6167000000000  0.4850880000000  0.5086890000000 1.0
C      1  0.3912170000000  0.5654510000000  0.5103650000000 1.0
C      1  0.4276200000000  0.5147290000000  0.5484010000000 1.0
C      1  0.5241760000000  0.4605260000000  0.5734520000000 1.0
C      1  0.4931240000000  0.4642820000000  0.4042400000000 1.0
C      1  0.4906160000000  0.5315420000000  0.4381490000000 1.0
C      1  0.6142970000000  0.5217920000000  0.4677830000000 1.0
C      1  0.4890050000000  0.5779090000000  0.5838860000000 1.0
C      1  0.4735950000000  0.6030610000000  0.4616220000000 1.0
C      1  0.5676310000000  0.5896970000000  0.4708320000000 1.0
C      1  0.5857810000000  0.4900440000000  0.4408590000000 1.0
C      1  0.4772680000000  0.4503540000000  0.5538790000000 1.0
C      1  0.4144940000000  0.4493360000000  0.4994720000000 1.0
C      1  0.4509370000000  0.4864390000000  0.4027370000000 1.0
C      1  0.5702490000000  0.4919010000000  0.5150820000000 1.0
C      1  0.4870690000000  0.4694770000000  0.5108760000000 1.0
C      1  0.4799860000000  0.5597700000000  0.4467330000000 1.0
C      1  0.3906180000000  0.5302060000000  0.5738090000000 1.0
C      1  0.5866040000000  0.5786600000000  0.4911690000000 1.0
C      1  0.4613350000000  0.4066750000000  0.5438230000000 1.0
C      1  0.5457480000000  0.4555900000000  0.5250880000000 1.0
C      1  0.4344590000000  0.4665650000000  0.4439770000000 1.0
C      1  0.5607240000000  0.4142170000000  0.5202820000000 1.0
C      1  0.5404270000000  0.5839870000000  0.4330820000000 1.0
C      1  0.4928080000000  0.3901020000000  0.4626040000000 1.0
C      1  0.4070870000000  0.4594460000000  0.4531520000000 1.0
END
