TITL C-950530-3293-726 -1.10537637674812e-06 125000 -397.632264640467 0 0 65 (C1) n - 1
REM
REM in /home/bkarasulu/work/CARBON/AIRSS/Generating-Clusters/EDIP-Nigel-Params/with-SteepDescent/Only-C1/SD-CG/HFTN-CG
REM
REM
REM
REM
REM
REM ./C.cell (11c1c37f851c82e70ff6c80c92926a4b)
REM
REM compiler GCC version 9.2.1 20190827 (Red Hat 9.2.1-1)
REM options -cpp -mtune=generic -march=x86-64 -g -O0 -fpre-include=/usr/include/finclude/math-vector-fortran.h
REM seed -1395737527 1233731257 -1757573284 1257779832 -55149848 2114745031 -530630996 1784356628 306601157 373449151 -1359471014 -2082770807 1410846047 133033906 -1198587764 -953577902 305172054 -1044096439 1874734679 404759705 826324081 -978778556 -921031560 378466891 -1768507156 968323224 -22522101 -1509636253 -958051528 412241692 -844684777 -496179033 2106268453
REM
CELL 1.54180   50.00000   50.00000   50.00000   90.00000   90.00000   90.00000
LATT -1
SFAC C  
C      1  0.4933680000000  0.4758810000000  0.5660580000000 1.0
C      1  0.4891050000000  0.4434020000000  0.5298250000000 1.0
C      1  0.4785760000000  0.5698550000000  0.4447020000000 1.0
C      1  0.4430730000000  0.5282870000000  0.4753700000000 1.0
C      1  0.4828120000000  0.4984480000000  0.5786080000000 1.0
C      1  0.4987520000000  0.5519150000000  0.4362710000000 1.0
C      1  0.5113520000000  0.4436590000000  0.4889390000000 1.0
C      1  0.5571310000000  0.5610960000000  0.5030050000000 1.0
C      1  0.4914190000000  0.5489360000000  0.5556000000000 1.0
C      1  0.4965970000000  0.4815630000000  0.4362370000000 1.0
C      1  0.4853320000000  0.5627030000000  0.5290340000000 1.0
C      1  0.4269730000000  0.4850320000000  0.4920670000000 1.0
C      1  0.4687610000000  0.5428170000000  0.5712200000000 1.0
C      1  0.4698740000000  0.4844140000000  0.5219210000000 1.0
C      1  0.5366840000000  0.5678440000000  0.5252120000000 1.0
C      1  0.4519710000000  0.4428470000000  0.4984410000000 1.0
C      1  0.4636050000000  0.5158530000000  0.5664270000000 1.0
C      1  0.5664620000000  0.5057690000000  0.4802320000000 1.0
C      1  0.4719110000000  0.5430720000000  0.5109380000000 1.0
C      1  0.5142050000000  0.4253260000000  0.4654980000000 1.0
C      1  0.5666430000000  0.4751920000000  0.4722120000000 1.0
C      1  0.5160110000000  0.5023190000000  0.4701700000000 1.0
C      1  0.5393990000000  0.5491770000000  0.4812130000000 1.0
C      1  0.4448030000000  0.4373160000000  0.4718660000000 1.0
C      1  0.4548920000000  0.5045710000000  0.4332970000000 1.0
C      1  0.5664990000000  0.5048210000000  0.5438860000000 1.0
C      1  0.4372950000000  0.4782910000000  0.5413410000000 1.0
C      1  0.5480740000000  0.4547810000000  0.5191810000000 1.0
C      1  0.4820270000000  0.4477920000000  0.5011830000000 1.0
C      1  0.5836330000000  0.5137960000000  0.5039360000000 1.0
C      1  0.5472210000000  0.4764080000000  0.4979220000000 1.0
C      1  0.5165110000000  0.5336380000000  0.5582200000000 1.0
C      1  0.4901060000000  0.5082800000000  0.4839540000000 1.0
C      1  0.5852880000000  0.4944580000000  0.5251270000000 1.0
C      1  0.4815010000000  0.5040850000000  0.4273010000000 1.0
C      1  0.5119190000000  0.4272970000000  0.5337130000000 1.0
C      1  0.5102700000000  0.5723840000000  0.5126660000000 1.0
C      1  0.5641800000000  0.5333070000000  0.5416670000000 1.0
C      1  0.5284660000000  0.4342400000000  0.5119110000000 1.0
C      1  0.5444560000000  0.4639280000000  0.5457580000000 1.0
C      1  0.4494540000000  0.4846920000000  0.4717030000000 1.0
C      1  0.4338960000000  0.5255470000000  0.5258510000000 1.0
C      1  0.5774400000000  0.5410100000000  0.5161910000000 1.0
C      1  0.5397470000000  0.4653410000000  0.4550350000000 1.0
C      1  0.4936660000000  0.5283340000000  0.4231680000000 1.0
C      1  0.4366260000000  0.5138910000000  0.4510880000000 1.0
C      1  0.4545620000000  0.4589930000000  0.4571400000000 1.0
C      1  0.5395460000000  0.5195460000000  0.4790060000000 1.0
C      1  0.4279440000000  0.5148710000000  0.4980020000000 1.0
C      1  0.4896700000000  0.5552380000000  0.4680050000000 1.0
C      1  0.4959130000000  0.4328690000000  0.4449370000000 1.0
C      1  0.4732080000000  0.5333290000000  0.4828080000000 1.0
C      1  0.5191860000000  0.5047300000000  0.5670530000000 1.0
C      1  0.4897160000000  0.4702820000000  0.5384720000000 1.0
C      1  0.5230990000000  0.4716500000000  0.4803440000000 1.0
C      1  0.5135350000000  0.5638440000000  0.4842270000000 1.0
C      1  0.4826650000000  0.4581420000000  0.4474570000000 1.0
C      1  0.4368910000000  0.4663580000000  0.5129420000000 1.0
C      1  0.4423780000000  0.5066470000000  0.5472690000000 1.0
C      1  0.5251030000000  0.4839460000000  0.4371360000000 1.0
C      1  0.4746460000000  0.4843940000000  0.4908390000000 1.0
C      1  0.4485260000000  0.5506050000000  0.5246190000000 1.0
C      1  0.5374850000000  0.5436790000000  0.5414760000000 1.0
C      1  0.5344170000000  0.4367720000000  0.4484380000000 1.0
C      1  0.5435220000000  0.4904900000000  0.5546630000000 1.0
END
