TITL C-950533-5798-98 1.04263996102952e-06 125000 -617.247347812948 0 0 100 (C1) n - 1
REM
REM in /home/bkarasulu/work/CARBON/AIRSS/Generating-Clusters/EDIP-Nigel-Params/with-SteepDescent/Only-C1/SD-CG/HFTN-CG
REM
REM
REM
REM
REM
REM ./C.cell (11c1c37f851c82e70ff6c80c92926a4b)
REM
REM compiler GCC version 9.2.1 20190827 (Red Hat 9.2.1-1)
REM options -cpp -mtune=generic -march=x86-64 -g -O0 -fpre-include=/usr/include/finclude/math-vector-fortran.h
REM seed 608554765 1337657511 786325994 -1872948839 -562397724 1019421455 -367486694 921520201 -1958602603 -639299289 537416026 -1207542355 -1795217748 -1171867098 979111206 1947063413 1056077077 344859794 614503147 -1751485358 128903775 -623802452 356131651 1124834885 -32886905 1685184767 -1982812968 122611289 92773185 -1210823572 -1227994578 -1599725040 436954992
REM
CELL 1.54180   50.00000   50.00000   50.00000   90.00000   90.00000   90.00000
LATT -1
SFAC C  
C      1  0.5890390000000  0.4491700000000  0.4811130000000 1.0
C      1  0.4558050000000  0.5304930000000  0.5588110000000 1.0
C      1  0.5371780000000  0.5005360000000  0.4701130000000 1.0
C      1  0.5106320000000  0.5994830000000  0.4840720000000 1.0
C      1  0.5147850000000  0.5052450000000  0.4886800000000 1.0
C      1  0.5399460000000  0.5211100000000  0.4495290000000 1.0
C      1  0.5211340000000  0.4088140000000  0.4831620000000 1.0
C      1  0.4931880000000  0.5444440000000  0.4971020000000 1.0
C      1  0.4914890000000  0.5615570000000  0.5468120000000 1.0
C      1  0.4502950000000  0.5200770000000  0.5111170000000 1.0
C      1  0.4992320000000  0.5418520000000  0.4277190000000 1.0
C      1  0.4122810000000  0.4768070000000  0.5028250000000 1.0
C      1  0.4553900000000  0.5370270000000  0.4321890000000 1.0
C      1  0.4810400000000  0.5656660000000  0.4364930000000 1.0
C      1  0.5349150000000  0.4332790000000  0.5258470000000 1.0
C      1  0.5015380000000  0.5435790000000  0.5675950000000 1.0
C      1  0.5468760000000  0.5738510000000  0.4707550000000 1.0
C      1  0.5156420000000  0.4199150000000  0.5095740000000 1.0
C      1  0.5002890000000  0.4790300000000  0.4952140000000 1.0
C      1  0.4492950000000  0.4361870000000  0.5425450000000 1.0
C      1  0.5368230000000  0.4894970000000  0.5292350000000 1.0
C      1  0.4478900000000  0.5464360000000  0.4581160000000 1.0
C      1  0.4620540000000  0.4762220000000  0.5825870000000 1.0
C      1  0.5769530000000  0.4709630000000  0.4642540000000 1.0
C      1  0.4145230000000  0.5371010000000  0.5229870000000 1.0
C      1  0.4792530000000  0.5275660000000  0.5216930000000 1.0
C      1  0.4482870000000  0.5118200000000  0.4221040000000 1.0
C      1  0.5075220000000  0.5792510000000  0.5301390000000 1.0
C      1  0.4977010000000  0.4904170000000  0.4236880000000 1.0
C      1  0.5160120000000  0.5390050000000  0.4513560000000 1.0
C      1  0.5609590000000  0.4437600000000  0.5146860000000 1.0
C      1  0.4649640000000  0.5682680000000  0.4647610000000 1.0
C      1  0.5089820000000  0.4765920000000  0.5243000000000 1.0
C      1  0.4943570000000  0.4109620000000  0.4691370000000 1.0
C      1  0.4961690000000  0.4479600000000  0.5545350000000 1.0
C      1  0.5390430000000  0.4596790000000  0.4329070000000 1.0
C      1  0.5509540000000  0.5163370000000  0.4243200000000 1.0
C      1  0.4276540000000  0.5521810000000  0.5030200000000 1.0
C      1  0.4246430000000  0.4920040000000  0.4830810000000 1.0
C      1  0.5361040000000  0.5195570000000  0.5934490000000 1.0
C      1  0.5271810000000  0.5158650000000  0.5153620000000 1.0
C      1  0.4712760000000  0.4768130000000  0.5333290000000 1.0
C      1  0.5823150000000  0.5092670000000  0.5268910000000 1.0
C      1  0.4877340000000  0.4202510000000  0.5154770000000 1.0
C      1  0.4852490000000  0.4835890000000  0.4492580000000 1.0
C      1  0.4320910000000  0.4577120000000  0.5468890000000 1.0
C      1  0.4694110000000  0.4749910000000  0.4983700000000 1.0
C      1  0.4878260000000  0.4592460000000  0.5804380000000 1.0
C      1  0.4503120000000  0.4283810000000  0.4857450000000 1.0
C      1  0.4533490000000  0.4991440000000  0.4881440000000 1.0
C      1  0.4191310000000  0.5116090000000  0.5319400000000 1.0
C      1  0.4786680000000  0.5005670000000  0.5931220000000 1.0
C      1  0.4385260000000  0.5079030000000  0.5517330000000 1.0
C      1  0.5412360000000  0.5427770000000  0.5129680000000 1.0
C      1  0.5661950000000  0.4293190000000  0.4874100000000 1.0
C      1  0.5577460000000  0.4760030000000  0.5108290000000 1.0
C      1  0.4747240000000  0.5683770000000  0.4938880000000 1.0
C      1  0.5672810000000  0.5416290000000  0.5008150000000 1.0
C      1  0.5663430000000  0.4634300000000  0.4388920000000 1.0
C      1  0.5430910000000  0.4836620000000  0.5598940000000 1.0
C      1  0.5406280000000  0.5612840000000  0.5358740000000 1.0
C      1  0.4607740000000  0.4534010000000  0.4786310000000 1.0
C      1  0.5435990000000  0.4564860000000  0.5662140000000 1.0
C      1  0.4118040000000  0.5152290000000  0.4737550000000 1.0
C      1  0.4496020000000  0.4803610000000  0.5551270000000 1.0
C      1  0.4382690000000  0.4944480000000  0.4411670000000 1.0
C      1  0.4731420000000  0.4128470000000  0.4912950000000 1.0
C      1  0.5887580000000  0.5258210000000  0.5053080000000 1.0
C      1  0.5423810000000  0.4994780000000  0.4047160000000 1.0
C      1  0.5301480000000  0.5408060000000  0.5760300000000 1.0
C      1  0.4148100000000  0.4637940000000  0.5261340000000 1.0
C      1  0.4767950000000  0.4334360000000  0.5386590000000 1.0
C      1  0.5516000000000  0.5450860000000  0.5564120000000 1.0
C      1  0.5042580000000  0.5869840000000  0.4580860000000 1.0
C      1  0.4416180000000  0.4736510000000  0.4226670000000 1.0
C      1  0.5225860000000  0.5584240000000  0.4963390000000 1.0
C      1  0.5684320000000  0.5230440000000  0.5479120000000 1.0
C      1  0.5258090000000  0.4970610000000  0.5795000000000 1.0
C      1  0.5250990000000  0.5675970000000  0.4534300000000 1.0
C      1  0.5247090000000  0.4444360000000  0.5500030000000 1.0
C      1  0.4687710000000  0.5076940000000  0.4608840000000 1.0
C      1  0.4745170000000  0.4553120000000  0.4520340000000 1.0
C      1  0.4930630000000  0.5897240000000  0.5057000000000 1.0
C      1  0.4555120000000  0.4511400000000  0.4306650000000 1.0
C      1  0.5043790000000  0.4823080000000  0.5938820000000 1.0
C      1  0.4803270000000  0.5231160000000  0.5729690000000 1.0
C      1  0.4528850000000  0.5637060000000  0.5134880000000 1.0
C      1  0.4962930000000  0.5255570000000  0.4734070000000 1.0
C      1  0.5580910000000  0.4845880000000  0.4817780000000 1.0
C      1  0.5382610000000  0.5931300000000  0.4896460000000 1.0
C      1  0.5970310000000  0.4581720000000  0.5090650000000 1.0
C      1  0.4903820000000  0.5015480000000  0.5355030000000 1.0
C      1  0.5417490000000  0.4243500000000  0.4684320000000 1.0
C      1  0.4624750000000  0.5560000000000  0.5419460000000 1.0
C      1  0.5252870000000  0.4809800000000  0.4178890000000 1.0
C      1  0.4972870000000  0.4349250000000  0.4509310000000 1.0
C      1  0.4918000000000  0.5171590000000  0.4165440000000 1.0
C      1  0.5255180000000  0.4429060000000  0.4518410000000 1.0
C      1  0.5927880000000  0.4818980000000  0.5259690000000 1.0
C      1  0.4282420000000  0.5378790000000  0.4771510000000 1.0
END
