TITL C-950532-2784-14 -2.82081732667474e-06 125000 -518.200654335892 0 0 84 (C1) n - 1
REM
REM in /home/bkarasulu/work/CARBON/AIRSS/Generating-Clusters/EDIP-Nigel-Params/with-SteepDescent/Only-C1/SD-CG/HFTN-CG
REM
REM
REM
REM
REM
REM ./C.cell (11c1c37f851c82e70ff6c80c92926a4b)
REM
REM compiler GCC version 9.2.1 20190827 (Red Hat 9.2.1-1)
REM options -cpp -mtune=generic -march=x86-64 -g -O0 -fpre-include=/usr/include/finclude/math-vector-fortran.h
REM seed -1720624336 158921072 -1036683254 -1022912887 1800051824 1338135646 -1771385238 -1086970783 1796620833 -816993738 1604785250 -931836075 2139556177 -583954081 745129011 1781431620 694477265 -1196536770 1135240743 1762901257 1538976360 920824861 341574210 -1343604022 1198868922 -299468913 -1093037116 1480495523 605329706 151465649 -649523058 1090653824 -213330876
REM
CELL 1.54180   50.00000   50.00000   50.00000   90.00000   90.00000   90.00000
LATT -1
SFAC C  
C      1  0.5472320000000  0.5619920000000  0.4991220000000 1.0
C      1  0.5683230000000  0.5083590000000  0.4842590000000 1.0
C      1  0.5709810000000  0.4790670000000  0.4863010000000 1.0
C      1  0.5021800000000  0.4158920000000  0.5155180000000 1.0
C      1  0.5110090000000  0.5912740000000  0.4882390000000 1.0
C      1  0.4882620000000  0.5288150000000  0.4664020000000 1.0
C      1  0.4931320000000  0.5292060000000  0.4971790000000 1.0
C      1  0.4711310000000  0.4818730000000  0.4906160000000 1.0
C      1  0.4451930000000  0.4592530000000  0.4412010000000 1.0
C      1  0.4688650000000  0.4631910000000  0.4233830000000 1.0
C      1  0.4029960000000  0.4883900000000  0.5080250000000 1.0
C      1  0.4756190000000  0.4148280000000  0.5079150000000 1.0
C      1  0.5551760000000  0.4599290000000  0.4668350000000 1.0
C      1  0.4585540000000  0.5389100000000  0.5733010000000 1.0
C      1  0.4744910000000  0.5042960000000  0.5098280000000 1.0
C      1  0.4615790000000  0.4636250000000  0.5295140000000 1.0
C      1  0.4830490000000  0.4510770000000  0.5479710000000 1.0
C      1  0.5282000000000  0.5024620000000  0.4501670000000 1.0
C      1  0.5400010000000  0.4637470000000  0.5668760000000 1.0
C      1  0.5129620000000  0.4727090000000  0.5238430000000 1.0
C      1  0.5429890000000  0.5200420000000  0.4719790000000 1.0
C      1  0.5526700000000  0.5439260000000  0.4544800000000 1.0
C      1  0.4459260000000  0.4954140000000  0.5599320000000 1.0
C      1  0.5318630000000  0.4337970000000  0.4496530000000 1.0
C      1  0.4133480000000  0.4763300000000  0.5296950000000 1.0
C      1  0.4605570000000  0.4294870000000  0.4901200000000 1.0
C      1  0.5783790000000  0.5223880000000  0.5087700000000 1.0
C      1  0.4988770000000  0.4972810000000  0.4576530000000 1.0
C      1  0.5465290000000  0.4916500000000  0.5572410000000 1.0
C      1  0.5312090000000  0.5460870000000  0.4334040000000 1.0
C      1  0.4875140000000  0.4151160000000  0.4577690000000 1.0
C      1  0.4362620000000  0.4698120000000  0.4668380000000 1.0
C      1  0.4314180000000  0.4989240000000  0.4701890000000 1.0
C      1  0.5534370000000  0.4464250000000  0.5171300000000 1.0
C      1  0.5122030000000  0.5613350000000  0.4491490000000 1.0
C      1  0.5562950000000  0.5420360000000  0.5448360000000 1.0
C      1  0.4619070000000  0.4214580000000  0.4634330000000 1.0
C      1  0.5119610000000  0.5676870000000  0.5304350000000 1.0
C      1  0.4897450000000  0.4682820000000  0.5703320000000 1.0
C      1  0.4720960000000  0.4924640000000  0.5727160000000 1.0
C      1  0.5075160000000  0.4364540000000  0.5367130000000 1.0
C      1  0.5166910000000  0.4695980000000  0.4954780000000 1.0
C      1  0.5421350000000  0.4764310000000  0.4437810000000 1.0
C      1  0.4229110000000  0.5057480000000  0.4981880000000 1.0
C      1  0.5274920000000  0.5516020000000  0.5507600000000 1.0
C      1  0.5138150000000  0.4189840000000  0.4660790000000 1.0
C      1  0.5257510000000  0.5826200000000  0.4633130000000 1.0
C      1  0.4655110000000  0.5115820000000  0.4327560000000 1.0
C      1  0.5195980000000  0.5201480000000  0.4260810000000 1.0
C      1  0.4562330000000  0.4887580000000  0.4182340000000 1.0
C      1  0.4644020000000  0.5571240000000  0.5332870000000 1.0
C      1  0.4676160000000  0.5674870000000  0.4672000000000 1.0
C      1  0.4375570000000  0.5244530000000  0.5559950000000 1.0
C      1  0.5516980000000  0.5689490000000  0.4710590000000 1.0
C      1  0.5657220000000  0.4727900000000  0.5149910000000 1.0
C      1  0.5211700000000  0.4140390000000  0.4935940000000 1.0
C      1  0.5155250000000  0.4640120000000  0.5812950000000 1.0
C      1  0.5679980000000  0.5140030000000  0.5548040000000 1.0
C      1  0.4895500000000  0.4911430000000  0.5327550000000 1.0
C      1  0.4952190000000  0.4751530000000  0.4776140000000 1.0
C      1  0.5288090000000  0.5812680000000  0.5107940000000 1.0
C      1  0.5365490000000  0.4481840000000  0.4905720000000 1.0
C      1  0.5651280000000  0.5471080000000  0.5167280000000 1.0
C      1  0.5232440000000  0.4564560000000  0.4334140000000 1.0
C      1  0.5056950000000  0.5157970000000  0.5404150000000 1.0
C      1  0.4449950000000  0.5109240000000  0.5198640000000 1.0
C      1  0.5409180000000  0.4882250000000  0.5281650000000 1.0
C      1  0.4418580000000  0.5393560000000  0.5287880000000 1.0
C      1  0.5374540000000  0.4430780000000  0.5436280000000 1.0
C      1  0.4955570000000  0.4663790000000  0.4345790000000 1.0
C      1  0.4376580000000  0.4741090000000  0.5429180000000 1.0
C      1  0.5055860000000  0.5259600000000  0.5678400000000 1.0
C      1  0.4832760000000  0.5779810000000  0.4915950000000 1.0
C      1  0.4526350000000  0.4573810000000  0.4976070000000 1.0
C      1  0.5232830000000  0.5247820000000  0.4965300000000 1.0
C      1  0.4844970000000  0.5611850000000  0.4448860000000 1.0
C      1  0.4873260000000  0.5575100000000  0.5135900000000 1.0
C      1  0.4906400000000  0.5228890000000  0.4237390000000 1.0
C      1  0.4681800000000  0.5625400000000  0.5608850000000 1.0
C      1  0.4478650000000  0.5195270000000  0.4560630000000 1.0
C      1  0.4804690000000  0.5195870000000  0.5815770000000 1.0
C      1  0.5854090000000  0.5082050000000  0.5325250000000 1.0
C      1  0.5318920000000  0.5186820000000  0.5244950000000 1.0
C      1  0.4528480000000  0.5429730000000  0.4725760000000 1.0
END
