TITL C-951335-1172-254 1.35732007319772e-06 125000 -987.177453880524 0 0 158 (C1) n - 1
REM
REM in /home/bkarasulu/work/CARBON/AIRSS/Generating-Clusters/EDIP-Nigel-Params/with-SteepDescent/Only-C1/SD-CG/HFTN-CG
REM
REM
REM
REM
REM
REM ./C.cell (11c1c37f851c82e70ff6c80c92926a4b)
REM
REM compiler GCC version 9.2.1 20190827 (Red Hat 9.2.1-1)
REM options -cpp -mtune=generic -march=x86-64 -g -O0 -fpre-include=/usr/include/finclude/math-vector-fortran.h
REM seed 1651422028 1399618465 1340594710 1231528202 -574622967 236134124 1541116906 -1407499491 -156272079 -806341912 -2043653619 -1315303904 -385147773 -2121929164 -193854024 736314417 -185985744 1386551450 774850574 1463500607 -542397159 956044481 1782311416 430784317 -2127615863 610435441 7110778 -193665373 1342702076 1602101938 725226910 1468146877 1507869131
REM
CELL 1.54180   50.00000   50.00000   50.00000   90.00000   90.00000   90.00000
LATT -1
SFAC C  
C      1  0.5047740000000  0.5912090000000  0.5401050000000 1.0
C      1  0.5693550000000  0.4831890000000  0.4258230000000 1.0
C      1  0.5191940000000  0.5168190000000  0.4497430000000 1.0
C      1  0.5492060000000  0.5351130000000  0.5625090000000 1.0
C      1  0.5250950000000  0.4872070000000  0.4602690000000 1.0
C      1  0.5820770000000  0.5100500000000  0.5792940000000 1.0
C      1  0.4018860000000  0.5301930000000  0.5232200000000 1.0
C      1  0.4243210000000  0.5106900000000  0.5255190000000 1.0
C      1  0.4773220000000  0.4817480000000  0.4457610000000 1.0
C      1  0.4210260000000  0.4205650000000  0.4943760000000 1.0
C      1  0.4815160000000  0.4557330000000  0.5442240000000 1.0
C      1  0.4439140000000  0.6077100000000  0.5153600000000 1.0
C      1  0.5327620000000  0.4426500000000  0.4909170000000 1.0
C      1  0.5452070000000  0.4690780000000  0.4160350000000 1.0
C      1  0.5015560000000  0.4833470000000  0.3909850000000 1.0
C      1  0.4537410000000  0.5424800000000  0.4130250000000 1.0
C      1  0.5244060000000  0.5335260000000  0.5903140000000 1.0
C      1  0.4607670000000  0.6055030000000  0.4937940000000 1.0
C      1  0.5009930000000  0.5422120000000  0.4043450000000 1.0
C      1  0.5101480000000  0.6176520000000  0.4978480000000 1.0
C      1  0.5467390000000  0.5327770000000  0.4536070000000 1.0
C      1  0.6036570000000  0.5293720000000  0.5455060000000 1.0
C      1  0.4558880000000  0.4702700000000  0.5258130000000 1.0
C      1  0.5949930000000  0.4454600000000  0.5158550000000 1.0
C      1  0.4343400000000  0.5529290000000  0.5634630000000 1.0
C      1  0.4060830000000  0.5049960000000  0.4640030000000 1.0
C      1  0.5849740000000  0.4986190000000  0.4692680000000 1.0
C      1  0.4960070000000  0.4174700000000  0.4635060000000 1.0
C      1  0.4737060000000  0.5810710000000  0.5767130000000 1.0
C      1  0.5601830000000  0.5804770000000  0.5432160000000 1.0
C      1  0.5570460000000  0.4652090000000  0.4914680000000 1.0
C      1  0.4924730000000  0.4524160000000  0.5970740000000 1.0
C      1  0.5303480000000  0.4282140000000  0.5539620000000 1.0
C      1  0.5589850000000  0.5823820000000  0.5152430000000 1.0
C      1  0.4760980000000  0.5005680000000  0.3933920000000 1.0
C      1  0.4577080000000  0.5859270000000  0.4721460000000 1.0
C      1  0.5056310000000  0.5876320000000  0.4599130000000 1.0
C      1  0.5246080000000  0.5962290000000  0.4810360000000 1.0
C      1  0.4666740000000  0.5638380000000  0.4271740000000 1.0
C      1  0.5906130000000  0.5473950000000  0.4732990000000 1.0
C      1  0.5103600000000  0.4002130000000  0.5038340000000 1.0
C      1  0.4316610000000  0.5672650000000  0.5386210000000 1.0
C      1  0.4699930000000  0.4058490000000  0.5312060000000 1.0
C      1  0.5573940000000  0.4679920000000  0.5673670000000 1.0
C      1  0.4514020000000  0.5412770000000  0.5840090000000 1.0
C      1  0.5820250000000  0.5875950000000  0.5000830000000 1.0
C      1  0.5511520000000  0.4127950000000  0.4475460000000 1.0
C      1  0.5780340000000  0.5253040000000  0.4563910000000 1.0
C      1  0.4523420000000  0.4868140000000  0.4048350000000 1.0
C      1  0.4960400000000  0.5388360000000  0.5818960000000 1.0
C      1  0.4976590000000  0.4708450000000  0.4658850000000 1.0
C      1  0.4963780000000  0.4556310000000  0.3873030000000 1.0
C      1  0.5395240000000  0.4548880000000  0.4424110000000 1.0
C      1  0.4844490000000  0.4170660000000  0.5073870000000 1.0
C      1  0.4980950000000  0.3931380000000  0.4797790000000 1.0
C      1  0.4647050000000  0.5316410000000  0.5106440000000 1.0
C      1  0.4624060000000  0.5369460000000  0.5413800000000 1.0
C      1  0.5659720000000  0.5189140000000  0.5167280000000 1.0
C      1  0.5777530000000  0.5736120000000  0.4761100000000 1.0
C      1  0.5414460000000  0.5610790000000  0.4456700000000 1.0
C      1  0.5253350000000  0.5332580000000  0.4152560000000 1.0
C      1  0.5064630000000  0.4926820000000  0.5734050000000 1.0
C      1  0.4198950000000  0.4612420000000  0.4501130000000 1.0
C      1  0.5325580000000  0.5421950000000  0.4938480000000 1.0
C      1  0.4135640000000  0.4829490000000  0.5246250000000 1.0
C      1  0.5115360000000  0.5355270000000  0.5130530000000 1.0
C      1  0.5731630000000  0.4296470000000  0.4500410000000 1.0
C      1  0.4641510000000  0.4661470000000  0.4233210000000 1.0
C      1  0.6090300000000  0.4593690000000  0.5362160000000 1.0
C      1  0.4398450000000  0.5191920000000  0.4997940000000 1.0
C      1  0.5291840000000  0.4205070000000  0.4301130000000 1.0
C      1  0.5450540000000  0.4000380000000  0.4714460000000 1.0
C      1  0.4137330000000  0.4882820000000  0.4415420000000 1.0
C      1  0.4457620000000  0.4942400000000  0.4813560000000 1.0
C      1  0.4139560000000  0.5561110000000  0.5173240000000 1.0
C      1  0.5761670000000  0.4767960000000  0.4532780000000 1.0
C      1  0.4292980000000  0.4421860000000  0.5321180000000 1.0
C      1  0.5260490000000  0.4891720000000  0.4072790000000 1.0
C      1  0.5117360000000  0.5636910000000  0.4460920000000 1.0
C      1  0.4893870000000  0.5325480000000  0.5541140000000 1.0
C      1  0.5943090000000  0.4846820000000  0.5357720000000 1.0
C      1  0.4252460000000  0.5005420000000  0.5810980000000 1.0
C      1  0.4757400000000  0.5918710000000  0.5511280000000 1.0
C      1  0.4036820000000  0.4692530000000  0.4993450000000 1.0
C      1  0.4789740000000  0.5939960000000  0.4553900000000 1.0
C      1  0.4181930000000  0.4652710000000  0.5473590000000 1.0
C      1  0.4675910000000  0.5369990000000  0.4541510000000 1.0
C      1  0.4580340000000  0.5037420000000  0.4534450000000 1.0
C      1  0.5158710000000  0.4441040000000  0.4651690000000 1.0
C      1  0.5668840000000  0.5115060000000  0.4216390000000 1.0
C      1  0.4899260000000  0.5293400000000  0.4956520000000 1.0
C      1  0.4278620000000  0.4647600000000  0.4790540000000 1.0
C      1  0.4415220000000  0.4380620000000  0.4857650000000 1.0
C      1  0.4666610000000  0.4670450000000  0.6046620000000 1.0
C      1  0.5317360000000  0.4525720000000  0.5683950000000 1.0
C      1  0.4306790000000  0.5307730000000  0.4268710000000 1.0
C      1  0.5254870000000  0.5838020000000  0.5599370000000 1.0
C      1  0.5047860000000  0.4137670000000  0.5630040000000 1.0
C      1  0.5862330000000  0.4514740000000  0.4622940000000 1.0
C      1  0.4589400000000  0.4317540000000  0.5727890000000 1.0
C      1  0.4516800000000  0.5881320000000  0.5335930000000 1.0
C      1  0.4323330000000  0.4750970000000  0.5701880000000 1.0
C      1  0.4512200000000  0.4243470000000  0.5453980000000 1.0
C      1  0.5538090000000  0.5810830000000  0.4620960000000 1.0
C      1  0.5528060000000  0.4275890000000  0.5343750000000 1.0
C      1  0.4466430000000  0.5137840000000  0.5940980000000 1.0
C      1  0.4958930000000  0.5050820000000  0.5489450000000 1.0
C      1  0.4792140000000  0.4213570000000  0.4218560000000 1.0
C      1  0.4062900000000  0.4374930000000  0.5114990000000 1.0
C      1  0.5526240000000  0.5193760000000  0.4903170000000 1.0
C      1  0.5040400000000  0.4636630000000  0.5709530000000 1.0
C      1  0.4411110000000  0.4486590000000  0.4323330000000 1.0
C      1  0.5892720000000  0.4867560000000  0.4974010000000 1.0
C      1  0.5333770000000  0.5732630000000  0.5015490000000 1.0
C      1  0.5940310000000  0.5253520000000  0.5182850000000 1.0
C      1  0.5777960000000  0.5376620000000  0.5713450000000 1.0
C      1  0.5648700000000  0.4774670000000  0.5400160000000 1.0
C      1  0.5390980000000  0.4905510000000  0.4872730000000 1.0
C      1  0.5481900000000  0.5107200000000  0.5397100000000 1.0
C      1  0.5551520000000  0.4055840000000  0.5176310000000 1.0
C      1  0.4858370000000  0.4254150000000  0.5838820000000 1.0
C      1  0.5420790000000  0.5129410000000  0.4067450000000 1.0
C      1  0.6001160000000  0.4585330000000  0.4896220000000 1.0
C      1  0.4751630000000  0.5575780000000  0.5918550000000 1.0
C      1  0.6046280000000  0.5390400000000  0.4961360000000 1.0
C      1  0.5189980000000  0.5080800000000  0.5280010000000 1.0
C      1  0.4800350000000  0.4588680000000  0.4891010000000 1.0
C      1  0.5089460000000  0.5690240000000  0.5203610000000 1.0
C      1  0.4957290000000  0.5338790000000  0.4657140000000 1.0
C      1  0.5122880000000  0.6150510000000  0.5256600000000 1.0
C      1  0.5190110000000  0.4860360000000  0.5078890000000 1.0
C      1  0.4479100000000  0.4559000000000  0.5852490000000 1.0
C      1  0.6028290000000  0.5033200000000  0.5586980000000 1.0
C      1  0.4273210000000  0.5435820000000  0.4843770000000 1.0
C      1  0.5408710000000  0.5611060000000  0.5500640000000 1.0
C      1  0.4774110000000  0.5260080000000  0.4068910000000 1.0
C      1  0.4130270000000  0.5327670000000  0.4599410000000 1.0
C      1  0.4918100000000  0.4466310000000  0.5145400000000 1.0
C      1  0.5562960000000  0.4943810000000  0.5800450000000 1.0
C      1  0.4643990000000  0.4798440000000  0.4992390000000 1.0
C      1  0.4521280000000  0.5565060000000  0.4732360000000 1.0
C      1  0.5294120000000  0.5049280000000  0.5873150000000 1.0
C      1  0.4841450000000  0.4481720000000  0.4113100000000 1.0
C      1  0.4374270000000  0.5022490000000  0.4298860000000 1.0
C      1  0.4662370000000  0.4912560000000  0.5466440000000 1.0
C      1  0.5365720000000  0.4116730000000  0.4963060000000 1.0
C      1  0.4833650000000  0.6218580000000  0.4907220000000 1.0
C      1  0.5656160000000  0.4526110000000  0.5211680000000 1.0
C      1  0.5181990000000  0.4570410000000  0.5121200000000 1.0
C      1  0.5024560000000  0.4098110000000  0.4357270000000 1.0
C      1  0.4644790000000  0.4955670000000  0.6066370000000 1.0
C      1  0.3904630000000  0.4957440000000  0.4869530000000 1.0
C      1  0.4903600000000  0.3950230000000  0.5476110000000 1.0
C      1  0.3849500000000  0.5174450000000  0.5044520000000 1.0
C      1  0.4441570000000  0.5126800000000  0.5498560000000 1.0
C      1  0.4558730000000  0.4245040000000  0.4412550000000 1.0
C      1  0.4658070000000  0.4278870000000  0.4696780000000 1.0
C      1  0.4951670000000  0.5653260000000  0.4207950000000 1.0
END
