TITL C-951346-9544-628 -8.77737706836413e-05 125000 -249.936152141008 0 0 43 (C1) n - 1
REM
REM in /home/bkarasulu/work/CARBON/AIRSS/Generating-Clusters/EDIP-Nigel-Params/with-SteepDescent/Only-C1/SD-CG/HFTN-CG
REM
REM
REM
REM
REM
REM ./C.cell (11c1c37f851c82e70ff6c80c92926a4b)
REM
REM compiler GCC version 9.2.1 20190827 (Red Hat 9.2.1-1)
REM options -cpp -mtune=generic -march=x86-64 -g -O0 -fpre-include=/usr/include/finclude/math-vector-fortran.h
REM seed -1938290473 -341909400 -326597675 195501045 -1025952727 2089091152 1978519942 1232272898 -387091707 -1582057860 700618130 -3754618 1766492257 -1084591479 -1691853069 -1359582436 509936908 -2076789193 -435668158 -382449148 -1287409318 -949140547 624868310 1352177065 1806041785 -1182452497 954713099 -264711354 -1375727470 -650255321 -529438004 -1723388159 2117257621
REM
CELL 1.54180   50.00000   50.00000   50.00000   90.00000   90.00000   90.00000
LATT -1
SFAC C  
C      1  0.4706810000000  0.4626740000000  0.5242170000000 1.0
C      1  0.4514470000000  0.5083290000000  0.5285040000000 1.0
C      1  0.5065270000000  0.4713160000000  0.4698650000000 1.0
C      1  0.4831330000000  0.5591740000000  0.5068350000000 1.0
C      1  0.5439990000000  0.4650230000000  0.4427580000000 1.0
C      1  0.5349090000000  0.4610010000000  0.4694200000000 1.0
C      1  0.5026840000000  0.5727520000000  0.5233000000000 1.0
C      1  0.5262360000000  0.5429480000000  0.5002640000000 1.0
C      1  0.5149400000000  0.5294180000000  0.4574280000000 1.0
C      1  0.5299970000000  0.5659230000000  0.5177400000000 1.0
C      1  0.4433580000000  0.4653860000000  0.4967690000000 1.0
C      1  0.4719640000000  0.5071790000000  0.4837570000000 1.0
C      1  0.4866380000000  0.5277990000000  0.4537860000000 1.0
C      1  0.4436850000000  0.5371560000000  0.4905770000000 1.0
C      1  0.5194340000000  0.4523950000000  0.5236740000000 1.0
C      1  0.4575750000000  0.4888830000000  0.4624330000000 1.0
C      1  0.5026740000000  0.5003240000000  0.5152480000000 1.0
C      1  0.5464720000000  0.5442440000000  0.5333110000000 1.0
C      1  0.4339800000000  0.5148670000000  0.5050320000000 1.0
C      1  0.5453240000000  0.4672420000000  0.5205830000000 1.0
C      1  0.4977900000000  0.4722640000000  0.5263600000000 1.0
C      1  0.5464360000000  0.5047420000000  0.4888990000000 1.0
C      1  0.5407470000000  0.5031540000000  0.5619580000000 1.0
C      1  0.4499270000000  0.4795130000000  0.5322940000000 1.0
C      1  0.5374390000000  0.5349340000000  0.5607780000000 1.0
C      1  0.4301080000000  0.4910180000000  0.4891520000000 1.0
C      1  0.4603660000000  0.4593760000000  0.4727020000000 1.0
C      1  0.5226010000000  0.4748870000000  0.4289670000000 1.0
C      1  0.5058470000000  0.5352480000000  0.5642850000000 1.0
C      1  0.4875050000000  0.5430420000000  0.5420140000000 1.0
C      1  0.4772250000000  0.5016520000000  0.4405740000000 1.0
C      1  0.4699270000000  0.5459010000000  0.4835040000000 1.0
C      1  0.4970060000000  0.4253070000000  0.4859030000000 1.0
C      1  0.4978080000000  0.4860220000000  0.4293790000000 1.0
C      1  0.5315280000000  0.5159080000000  0.5118000000000 1.0
C      1  0.5028640000000  0.4992900000000  0.4827640000000 1.0
C      1  0.4875040000000  0.4511790000000  0.4785410000000 1.0
C      1  0.5505720000000  0.4756470000000  0.4914900000000 1.0
C      1  0.5137170000000  0.4299080000000  0.5071250000000 1.0
C      1  0.5119380000000  0.5063760000000  0.5666000000000 1.0
C      1  0.5489860000000  0.4876850000000  0.5400970000000 1.0
C      1  0.5365960000000  0.5137850000000  0.4639120000000 1.0
C      1  0.4799060000000  0.5191290000000  0.5254020000000 1.0
END
