TITL C-950525-1983-442 -2.66750072201844e-06 125000 -610.42131531313 0 0 99 (C1) n - 1
REM
REM in /home/bkarasulu/work/CARBON/AIRSS/Generating-Clusters/EDIP-Nigel-Params/with-SteepDescent/Only-C1/SD-CG/HFTN-CG
REM
REM
REM
REM
REM
REM ./C.cell (11c1c37f851c82e70ff6c80c92926a4b)
REM
REM compiler GCC version 9.2.1 20190827 (Red Hat 9.2.1-1)
REM options -cpp -mtune=generic -march=x86-64 -g -O0 -fpre-include=/usr/include/finclude/math-vector-fortran.h
REM seed 496328480 -2080745019 -1597454282 337366933 -1806234883 2145060651 -954553514 294718299 -860590072 91538824 -1557819936 1406365458 -338623001 -904159625 -1788261780 1670691713 -1923217556 1483112191 1270020362 1459864385 1337300136 -450248780 1644160406 -785857780 -44984319 -688513772 -1079565237 -267223708 -252986392 -271148063 -632150232 936787809 -130596643
REM
CELL 1.54180   50.00000   50.00000   50.00000   90.00000   90.00000   90.00000
LATT -1
SFAC C  
C      1  0.4893580000000  0.4246050000000  0.4515870000000 1.0
C      1  0.4664840000000  0.5230830000000  0.4606690000000 1.0
C      1  0.4519130000000  0.4174040000000  0.4819380000000 1.0
C      1  0.5269370000000  0.5359240000000  0.5268990000000 1.0
C      1  0.5528520000000  0.4439350000000  0.5558500000000 1.0
C      1  0.5291460000000  0.5087610000000  0.4140680000000 1.0
C      1  0.5346240000000  0.5651030000000  0.4818760000000 1.0
C      1  0.5685060000000  0.5451690000000  0.5146340000000 1.0
C      1  0.4465360000000  0.5825200000000  0.4840910000000 1.0
C      1  0.4983080000000  0.4750340000000  0.4628000000000 1.0
C      1  0.4998620000000  0.5510470000000  0.5261970000000 1.0
C      1  0.5815270000000  0.5064340000000  0.5612340000000 1.0
C      1  0.4575100000000  0.5543620000000  0.5509360000000 1.0
C      1  0.5226380000000  0.4700200000000  0.5043140000000 1.0
C      1  0.4489680000000  0.4773690000000  0.4891010000000 1.0
C      1  0.5360680000000  0.4588800000000  0.4247340000000 1.0
C      1  0.5269950000000  0.4240490000000  0.5180020000000 1.0
C      1  0.4606990000000  0.4279500000000  0.4575090000000 1.0
C      1  0.5184460000000  0.5383720000000  0.5753340000000 1.0
C      1  0.4912780000000  0.4754080000000  0.4146180000000 1.0
C      1  0.4417670000000  0.5073350000000  0.5456440000000 1.0
C      1  0.4910080000000  0.5870590000000  0.5368150000000 1.0
C      1  0.5333370000000  0.4973930000000  0.4962240000000 1.0
C      1  0.5175330000000  0.5902440000000  0.5240640000000 1.0
C      1  0.5209950000000  0.5157980000000  0.4767530000000 1.0
C      1  0.4598070000000  0.5051520000000  0.4379040000000 1.0
C      1  0.5834500000000  0.4708150000000  0.5268530000000 1.0
C      1  0.5547450000000  0.5098020000000  0.5692310000000 1.0
C      1  0.5561570000000  0.4604220000000  0.5313420000000 1.0
C      1  0.4223440000000  0.4874560000000  0.5363240000000 1.0
C      1  0.4132640000000  0.4904170000000  0.4648500000000 1.0
C      1  0.4848800000000  0.4605750000000  0.4413920000000 1.0
C      1  0.5835490000000  0.5195640000000  0.5116370000000 1.0
C      1  0.5498790000000  0.4614080000000  0.5779470000000 1.0
C      1  0.4358240000000  0.5365130000000  0.5414350000000 1.0
C      1  0.5275310000000  0.4295250000000  0.5475930000000 1.0
C      1  0.5373570000000  0.4845070000000  0.5383390000000 1.0
C      1  0.5400270000000  0.5795460000000  0.5378340000000 1.0
C      1  0.5169330000000  0.5850630000000  0.4942900000000 1.0
C      1  0.5055690000000  0.5156760000000  0.4325110000000 1.0
C      1  0.4802160000000  0.5360650000000  0.5433320000000 1.0
C      1  0.5004620000000  0.4241990000000  0.5038430000000 1.0
C      1  0.4503320000000  0.4228160000000  0.5093620000000 1.0
C      1  0.5874100000000  0.4622930000000  0.4757240000000 1.0
C      1  0.5095850000000  0.4856970000000  0.5819330000000 1.0
C      1  0.4799270000000  0.5640050000000  0.4514750000000 1.0
C      1  0.4604340000000  0.4920380000000  0.5641150000000 1.0
C      1  0.4348850000000  0.5124370000000  0.4273350000000 1.0
C      1  0.5935640000000  0.4640080000000  0.5019740000000 1.0
C      1  0.5417520000000  0.4447130000000  0.5014900000000 1.0
C      1  0.4299480000000  0.5468720000000  0.5141690000000 1.0
C      1  0.4487450000000  0.5687510000000  0.5088250000000 1.0
C      1  0.4521150000000  0.5652320000000  0.4622040000000 1.0
C      1  0.5080250000000  0.4210280000000  0.4739500000000 1.0
C      1  0.5526770000000  0.5120660000000  0.4324110000000 1.0
C      1  0.5041850000000  0.4472040000000  0.5541580000000 1.0
C      1  0.4861150000000  0.4858990000000  0.5233770000000 1.0
C      1  0.5348820000000  0.4337100000000  0.4722490000000 1.0
C      1  0.5487710000000  0.5518940000000  0.5390430000000 1.0
C      1  0.4871950000000  0.5014400000000  0.5733280000000 1.0
C      1  0.4226730000000  0.5318510000000  0.4419430000000 1.0
C      1  0.5451130000000  0.5374180000000  0.5672130000000 1.0
C      1  0.4817090000000  0.5030110000000  0.4196360000000 1.0
C      1  0.5416350000000  0.4452780000000  0.4475880000000 1.0
C      1  0.5277890000000  0.5534570000000  0.4552050000000 1.0
C      1  0.5783190000000  0.4995380000000  0.5333300000000 1.0
C      1  0.5552640000000  0.4888620000000  0.4496300000000 1.0
C      1  0.5785000000000  0.4873460000000  0.4673550000000 1.0
C      1  0.4739700000000  0.4671460000000  0.5043740000000 1.0
C      1  0.5178140000000  0.4964360000000  0.4547020000000 1.0
C      1  0.5732280000000  0.5448580000000  0.4659220000000 1.0
C      1  0.5389400000000  0.4872270000000  0.5817460000000 1.0
C      1  0.5427730000000  0.5097260000000  0.5204630000000 1.0
C      1  0.4326290000000  0.4603850000000  0.5430160000000 1.0
C      1  0.4531860000000  0.5077360000000  0.4948830000000 1.0
C      1  0.4101450000000  0.4846500000000  0.5089520000000 1.0
C      1  0.4982320000000  0.4602490000000  0.4890720000000 1.0
C      1  0.4164320000000  0.4586030000000  0.4980070000000 1.0
C      1  0.4762680000000  0.4203370000000  0.5229690000000 1.0
C      1  0.4779030000000  0.4359710000000  0.5480850000000 1.0
C      1  0.5488300000000  0.5324570000000  0.4550880000000 1.0
C      1  0.4295360000000  0.5265840000000  0.4917840000000 1.0
C      1  0.4933490000000  0.5283880000000  0.5684160000000 1.0
C      1  0.4622540000000  0.5783800000000  0.5337770000000 1.0
C      1  0.4882810000000  0.5512370000000  0.4989250000000 1.0
C      1  0.4083510000000  0.5057940000000  0.4882280000000 1.0
C      1  0.4290720000000  0.4685260000000  0.4568400000000 1.0
C      1  0.4903170000000  0.5777310000000  0.4853970000000 1.0
C      1  0.5213440000000  0.4782050000000  0.4098260000000 1.0
C      1  0.4556490000000  0.4629670000000  0.5605300000000 1.0
C      1  0.4548910000000  0.4562740000000  0.4509890000000 1.0
C      1  0.4401770000000  0.5381560000000  0.4643200000000 1.0
C      1  0.4360010000000  0.4479450000000  0.5162860000000 1.0
C      1  0.5852020000000  0.5077720000000  0.4857510000000 1.0
C      1  0.5018020000000  0.5444840000000  0.4457110000000 1.0
C      1  0.4753780000000  0.5130870000000  0.5176070000000 1.0
C      1  0.5625730000000  0.5584790000000  0.4886200000000 1.0
C      1  0.4908010000000  0.5251990000000  0.4840270000000 1.0
C      1  0.5078340000000  0.4761830000000  0.5441140000000 1.0
END
