TITL C-950535-5962-761 -0.00443936431550881 125000 -141.429519522614 0 0 25 (C1) n - 1
REM
REM in /home/bkarasulu/work/CARBON/AIRSS/Generating-Clusters/EDIP-Nigel-Params/with-SteepDescent/Only-C1/SD-CG/HFTN-CG
REM
REM
REM
REM
REM
REM ./C.cell (11c1c37f851c82e70ff6c80c92926a4b)
REM
REM compiler GCC version 9.2.1 20190827 (Red Hat 9.2.1-1)
REM options -cpp -mtune=generic -march=x86-64 -g -O0 -fpre-include=/usr/include/finclude/math-vector-fortran.h
REM seed 568122104 111025703 1833405484 1097941815 1569577619 1418156075 -757489798 -1143275546 -440288590 1641795345 -52384697 -509783341 -732015225 888498033 1859549602 76882260 59976829 417493071 -1051946813 -196084357 -543935488 55722807 249124843 1593634367 -1707639111 -930591612 1016255169 -1149715549 505365938 -445683280 -874453530 -892819330 392119990
REM
CELL 1.54180   50.00000   50.00000   50.00000   90.00000   90.00000   90.00000
LATT -1
SFAC C  
C      1  0.5039740000000  0.5361050000000  0.4975240000000 1.0
C      1  0.4225550000000  0.5226920000000  0.4892560000000 1.0
C      1  0.5212400000000  0.5137060000000  0.4586030000000 1.0
C      1  0.5767390000000  0.4299080000000  0.5030300000000 1.0
C      1  0.4595440000000  0.5491990000000  0.4785150000000 1.0
C      1  0.4855150000000  0.5393630000000  0.4745910000000 1.0
C      1  0.4458520000000  0.5382920000000  0.5204540000000 1.0
C      1  0.5414490000000  0.4692270000000  0.5127240000000 1.0
C      1  0.5401320000000  0.4809970000000  0.5385170000000 1.0
C      1  0.4929220000000  0.5201320000000  0.5216590000000 1.0
C      1  0.5046170000000  0.4909880000000  0.5232030000000 1.0
C      1  0.5082370000000  0.5206630000000  0.5479540000000 1.0
C      1  0.4757370000000  0.4809560000000  0.4917010000000 1.0
C      1  0.4928470000000  0.5195340000000  0.4547300000000 1.0
C      1  0.4372580000000  0.5459730000000  0.4948310000000 1.0
C      1  0.4551610000000  0.4936430000000  0.5058760000000 1.0
C      1  0.5176320000000  0.4929180000000  0.5515890000000 1.0
C      1  0.5342160000000  0.4874000000000  0.4918560000000 1.0
C      1  0.5279740000000  0.5247400000000  0.4853530000000 1.0
C      1  0.5608380000000  0.4504670000000  0.5078060000000 1.0
C      1  0.5933870000000  0.4110560000000  0.4984140000000 1.0
C      1  0.5193640000000  0.4853970000000  0.4666130000000 1.0
C      1  0.4898650000000  0.4838230000000  0.4679110000000 1.0
C      1  0.4297770000000  0.4968340000000  0.4943940000000 1.0
C      1  0.4631710000000  0.5159860000000  0.5228940000000 1.0
END
