TITL C-950531-5884-294 -8.42337068577294e-07 125000 -1071.82710605891 0 0 170 (C1) n - 1
REM
REM in /home/bkarasulu/work/CARBON/AIRSS/Generating-Clusters/EDIP-Nigel-Params/with-SteepDescent/Only-C1/SD-CG/HFTN-CG
REM
REM
REM
REM
REM
REM ./C.cell (11c1c37f851c82e70ff6c80c92926a4b)
REM
REM compiler GCC version 9.2.1 20190827 (Red Hat 9.2.1-1)
REM options -cpp -mtune=generic -march=x86-64 -g -O0 -fpre-include=/usr/include/finclude/math-vector-fortran.h
REM seed -41279750 -526089133 -483071824 -1468047795 1268194289 -1953693059 869216650 2126342420 1036481836 -111202863 1764712808 1146284462 1787677861 1464989473 -928618231 607662818 -962817047 943385517 232338504 -1324372911 1853595857 1461348461 -872766749 -1112762961 1393251174 1811275961 989604251 634362975 -918203873 28506655 1149596188 -548081718 1313845815
REM
CELL 1.54180   50.00000   50.00000   50.00000   90.00000   90.00000   90.00000
LATT -1
SFAC C  
C      1  0.5374560000000  0.5274790000000  0.3973350000000 1.0
C      1  0.4730490000000  0.5250640000000  0.5528500000000 1.0
C      1  0.4956300000000  0.4812790000000  0.5439220000000 1.0
C      1  0.4550670000000  0.4958320000000  0.4890340000000 1.0
C      1  0.4743340000000  0.6089260000000  0.5101410000000 1.0
C      1  0.4308200000000  0.4107650000000  0.5350240000000 1.0
C      1  0.4842780000000  0.4847080000000  0.4949550000000 1.0
C      1  0.5040570000000  0.5312720000000  0.4419370000000 1.0
C      1  0.5915370000000  0.4672940000000  0.4491160000000 1.0
C      1  0.4967570000000  0.3958000000000  0.5068100000000 1.0
C      1  0.4811470000000  0.5686450000000  0.4269780000000 1.0
C      1  0.5126080000000  0.4466290000000  0.5051140000000 1.0
C      1  0.4076900000000  0.5027660000000  0.4544990000000 1.0
C      1  0.5533310000000  0.4343040000000  0.4222210000000 1.0
C      1  0.5726700000000  0.4963230000000  0.5073580000000 1.0
C      1  0.5046340000000  0.4016600000000  0.5348230000000 1.0
C      1  0.4750140000000  0.4773030000000  0.4424700000000 1.0
C      1  0.5522310000000  0.5766980000000  0.4960960000000 1.0
C      1  0.5342470000000  0.5023490000000  0.5709450000000 1.0
C      1  0.5262310000000  0.5810590000000  0.4486390000000 1.0
C      1  0.4551950000000  0.4928270000000  0.4583320000000 1.0
C      1  0.6078090000000  0.5221800000000  0.4979770000000 1.0
C      1  0.4301270000000  0.4837840000000  0.4463260000000 1.0
C      1  0.4672920000000  0.3954460000000  0.5059130000000 1.0
C      1  0.4339860000000  0.5325660000000  0.5803100000000 1.0
C      1  0.4942850000000  0.5024320000000  0.3955210000000 1.0
C      1  0.4788270000000  0.4416700000000  0.5236370000000 1.0
C      1  0.5957160000000  0.4752120000000  0.5688640000000 1.0
C      1  0.5524480000000  0.5306460000000  0.6014470000000 1.0
C      1  0.4567460000000  0.4007540000000  0.5331470000000 1.0
C      1  0.4932610000000  0.5273580000000  0.4695160000000 1.0
C      1  0.5326620000000  0.4752560000000  0.4014470000000 1.0
C      1  0.5038720000000  0.6190280000000  0.4725330000000 1.0
C      1  0.4394410000000  0.4757010000000  0.5637280000000 1.0
C      1  0.5223890000000  0.5031320000000  0.4069360000000 1.0
C      1  0.4822890000000  0.6009180000000  0.4627600000000 1.0
C      1  0.5835410000000  0.5413340000000  0.4933560000000 1.0
C      1  0.4497460000000  0.5276610000000  0.3990000000000 1.0
C      1  0.4342550000000  0.5047940000000  0.4002360000000 1.0
C      1  0.4779980000000  0.5247030000000  0.4032660000000 1.0
C      1  0.5132580000000  0.5230330000000  0.5159350000000 1.0
C      1  0.4967780000000  0.4987920000000  0.4738840000000 1.0
C      1  0.4469910000000  0.5528040000000  0.4587440000000 1.0
C      1  0.5274030000000  0.5740790000000  0.5135480000000 1.0
C      1  0.5409850000000  0.4771820000000  0.4828270000000 1.0
C      1  0.5527670000000  0.4640920000000  0.4191500000000 1.0
C      1  0.4950890000000  0.5449040000000  0.4169520000000 1.0
C      1  0.5512780000000  0.4753490000000  0.5317930000000 1.0
C      1  0.5238970000000  0.4623150000000  0.4637360000000 1.0
C      1  0.5419290000000  0.5235320000000  0.5235570000000 1.0
C      1  0.4853580000000  0.5007310000000  0.5652970000000 1.0
C      1  0.4780420000000  0.5909250000000  0.5327690000000 1.0
C      1  0.5281870000000  0.4194460000000  0.4222420000000 1.0
C      1  0.5745230000000  0.4485700000000  0.5052090000000 1.0
C      1  0.4801390000000  0.4173980000000  0.5438070000000 1.0
C      1  0.4393550000000  0.4535460000000  0.4885130000000 1.0
C      1  0.5603480000000  0.5311330000000  0.4156320000000 1.0
C      1  0.4515630000000  0.4027430000000  0.4834360000000 1.0
C      1  0.4048940000000  0.4515880000000  0.5235910000000 1.0
C      1  0.5509540000000  0.4633160000000  0.5827650000000 1.0
C      1  0.5046120000000  0.5250180000000  0.6027620000000 1.0
C      1  0.5357250000000  0.5733480000000  0.4177240000000 1.0
C      1  0.5058150000000  0.4341930000000  0.4129820000000 1.0
C      1  0.5347900000000  0.4333470000000  0.4621920000000 1.0
C      1  0.5314120000000  0.6082220000000  0.4646370000000 1.0
C      1  0.5157870000000  0.4003870000000  0.4844610000000 1.0
C      1  0.4255790000000  0.5762160000000  0.5454910000000 1.0
C      1  0.5737850000000  0.5105560000000  0.4322840000000 1.0
C      1  0.4399920000000  0.5511490000000  0.4098830000000 1.0
C      1  0.4564930000000  0.4387790000000  0.4196730000000 1.0
C      1  0.5218810000000  0.5080400000000  0.4384570000000 1.0
C      1  0.3984660000000  0.4532060000000  0.4695400000000 1.0
C      1  0.4653370000000  0.5916020000000  0.4858330000000 1.0
C      1  0.5565820000000  0.4253320000000  0.5072790000000 1.0
C      1  0.4771460000000  0.5320260000000  0.6031610000000 1.0
C      1  0.4223070000000  0.5377300000000  0.5078720000000 1.0
C      1  0.4119980000000  0.5529370000000  0.4838760000000 1.0
C      1  0.4871360000000  0.5859180000000  0.5695610000000 1.0
C      1  0.4466410000000  0.4830740000000  0.5352420000000 1.0
C      1  0.4590080000000  0.4137420000000  0.4583260000000 1.0
C      1  0.5048830000000  0.4837890000000  0.4502040000000 1.0
C      1  0.4519250000000  0.4954590000000  0.6058490000000 1.0
C      1  0.5543200000000  0.4184160000000  0.5353490000000 1.0
C      1  0.5579020000000  0.5575360000000  0.4284590000000 1.0
C      1  0.6077330000000  0.5085320000000  0.4713530000000 1.0
C      1  0.5530140000000  0.5037830000000  0.5459400000000 1.0
C      1  0.5055420000000  0.4925310000000  0.5170400000000 1.0
C      1  0.5286230000000  0.4734330000000  0.5098810000000 1.0
C      1  0.4519700000000  0.5249020000000  0.4999670000000 1.0
C      1  0.4035420000000  0.5158220000000  0.5142150000000 1.0
C      1  0.5712860000000  0.4723350000000  0.4872060000000 1.0
C      1  0.4152640000000  0.5318560000000  0.4615850000000 1.0
C      1  0.5889760000000  0.5286550000000  0.5407260000000 1.0
C      1  0.5982240000000  0.5054350000000  0.5221450000000 1.0
C      1  0.4342300000000  0.4787030000000  0.5035600000000 1.0
C      1  0.5727310000000  0.5526840000000  0.5354690000000 1.0
C      1  0.4497880000000  0.5144750000000  0.5369640000000 1.0
C      1  0.5751250000000  0.4353280000000  0.5507890000000 1.0
C      1  0.5434570000000  0.5034620000000  0.6000730000000 1.0
C      1  0.5630130000000  0.4268270000000  0.4488270000000 1.0
C      1  0.5866110000000  0.4404810000000  0.4533210000000 1.0
C      1  0.4529010000000  0.4325330000000  0.5800080000000 1.0
C      1  0.5174130000000  0.4994350000000  0.6154010000000 1.0
C      1  0.5108260000000  0.4039900000000  0.4528340000000 1.0
C      1  0.5394820000000  0.5280350000000  0.4676750000000 1.0
C      1  0.5583080000000  0.5219350000000  0.4970460000000 1.0
C      1  0.5083720000000  0.4585020000000  0.3973400000000 1.0
C      1  0.5783760000000  0.4515780000000  0.5774150000000 1.0
C      1  0.5419620000000  0.4559770000000  0.5539590000000 1.0
C      1  0.4628820000000  0.4682040000000  0.4166270000000 1.0
C      1  0.4069880000000  0.4933390000000  0.4967080000000 1.0
C      1  0.4793610000000  0.4265880000000  0.5731870000000 1.0
C      1  0.5310210000000  0.4053600000000  0.5428300000000 1.0
C      1  0.5267450000000  0.6119040000000  0.5142650000000 1.0
C      1  0.5095920000000  0.5653130000000  0.4902860000000 1.0
C      1  0.4646830000000  0.4378440000000  0.4939570000000 1.0
C      1  0.5116930000000  0.4579390000000  0.5546870000000 1.0
C      1  0.4823360000000  0.4055080000000  0.4431730000000 1.0
C      1  0.4903960000000  0.4559440000000  0.4845960000000 1.0
C      1  0.3787200000000  0.4807480000000  0.5036920000000 1.0
C      1  0.4805620000000  0.4217790000000  0.4190200000000 1.0
C      1  0.5309980000000  0.5876920000000  0.5445520000000 1.0
C      1  0.5664060000000  0.5438330000000  0.5806070000000 1.0
C      1  0.5093800000000  0.4715790000000  0.6088690000000 1.0
C      1  0.4626430000000  0.5411460000000  0.5790800000000 1.0
C      1  0.5885360000000  0.4517180000000  0.5302130000000 1.0
C      1  0.5006340000000  0.4474360000000  0.5796630000000 1.0
C      1  0.3973180000000  0.4430680000000  0.4968390000000 1.0
C      1  0.5532680000000  0.5550050000000  0.4582340000000 1.0
C      1  0.3989270000000  0.5021460000000  0.5401370000000 1.0
C      1  0.4617950000000  0.4857060000000  0.5812430000000 1.0
C      1  0.3870380000000  0.4814590000000  0.4657030000000 1.0
C      1  0.5763610000000  0.5657100000000  0.5094460000000 1.0
C      1  0.4635070000000  0.5712190000000  0.5770120000000 1.0
C      1  0.4209750000000  0.5508920000000  0.5353510000000 1.0
C      1  0.5138300000000  0.5755770000000  0.5668930000000 1.0
C      1  0.4316920000000  0.5126240000000  0.5996240000000 1.0
C      1  0.5540610000000  0.5600200000000  0.5577550000000 1.0
C      1  0.4947970000000  0.5408380000000  0.5358650000000 1.0
C      1  0.4527740000000  0.5638960000000  0.4312490000000 1.0
C      1  0.4800920000000  0.5658840000000  0.4943310000000 1.0
C      1  0.5119070000000  0.5212700000000  0.5743130000000 1.0
C      1  0.5741430000000  0.4811490000000  0.4303770000000 1.0
C      1  0.4837260000000  0.4749160000000  0.3946160000000 1.0
C      1  0.4271260000000  0.4545250000000  0.4604470000000 1.0
C      1  0.4401350000000  0.5825030000000  0.5670910000000 1.0
C      1  0.4255050000000  0.5261900000000  0.5517420000000 1.0
C      1  0.5155350000000  0.5367540000000  0.4868850000000 1.0
C      1  0.5006830000000  0.6218060000000  0.5022230000000 1.0
C      1  0.4723010000000  0.4682450000000  0.5346580000000 1.0
C      1  0.5782960000000  0.4971440000000  0.5741600000000 1.0
C      1  0.5203000000000  0.5526020000000  0.4013010000000 1.0
C      1  0.4358620000000  0.4820310000000  0.4160550000000 1.0
C      1  0.4200850000000  0.4352290000000  0.5426290000000 1.0
C      1  0.4328980000000  0.4470870000000  0.5663520000000 1.0
C      1  0.5821820000000  0.5486210000000  0.4646060000000 1.0
C      1  0.4793210000000  0.5638100000000  0.5232190000000 1.0
C      1  0.4956400000000  0.5784150000000  0.4501040000000 1.0
C      1  0.4405520000000  0.4315610000000  0.4439700000000 1.0
C      1  0.5312020000000  0.4253630000000  0.4916050000000 1.0
C      1  0.4334460000000  0.5746540000000  0.4763600000000 1.0
C      1  0.3882080000000  0.4750800000000  0.5321030000000 1.0
C      1  0.5310470000000  0.4537160000000  0.6022420000000 1.0
C      1  0.5172000000000  0.5474690000000  0.5564860000000 1.0
C      1  0.5914130000000  0.5235760000000  0.4518560000000 1.0
C      1  0.5846960000000  0.5240630000000  0.5684950000000 1.0
C      1  0.6024030000000  0.4758020000000  0.5396150000000 1.0
C      1  0.4678370000000  0.5421180000000  0.4797090000000 1.0
C      1  0.5467950000000  0.6058590000000  0.4908020000000 1.0
C      1  0.6048470000000  0.4802430000000  0.4705410000000 1.0
END
