TITL C-951340-9809-142 5.77046202852383e-07 125000 -345.167299064493 0 0 57 (C1) n - 1
REM
REM in /home/bkarasulu/work/CARBON/AIRSS/Generating-Clusters/EDIP-Nigel-Params/with-SteepDescent/Only-C1/SD-CG/HFTN-CG
REM
REM
REM
REM
REM
REM ./C.cell (11c1c37f851c82e70ff6c80c92926a4b)
REM
REM compiler GCC version 9.2.1 20190827 (Red Hat 9.2.1-1)
REM options -cpp -mtune=generic -march=x86-64 -g -O0 -fpre-include=/usr/include/finclude/math-vector-fortran.h
REM seed -1386108037 1691195302 658709353 1243564435 -906640611 393861828 600083471 1787457234 2000351153 -1305847195 331171257 -154620333 1113365050 -1593281340 1127239700 416780328 1091081330 831835942 1829016502 -792801743 471975595 -380385443 -279923475 11749460 960575219 -689756496 525924229 758079263 1228789580 -2008896980 74138279 -1602322728 -863321500
REM
CELL 1.54180   50.00000   50.00000   50.00000   90.00000   90.00000   90.00000
LATT -1
SFAC C  
C      1  0.5013270000000  0.4264300000000  0.5134440000000 1.0
C      1  0.4778080000000  0.4534160000000  0.4846620000000 1.0
C      1  0.5130220000000  0.5192970000000  0.5116890000000 1.0
C      1  0.4907830000000  0.5429110000000  0.5512100000000 1.0
C      1  0.5158900000000  0.5226410000000  0.4478140000000 1.0
C      1  0.4779860000000  0.4266400000000  0.4967280000000 1.0
C      1  0.5403990000000  0.5068270000000  0.4526270000000 1.0
C      1  0.5863290000000  0.4908580000000  0.5022090000000 1.0
C      1  0.4881000000000  0.4460030000000  0.4578670000000 1.0
C      1  0.4197800000000  0.4880390000000  0.4952190000000 1.0
C      1  0.4469290000000  0.4732710000000  0.4608020000000 1.0
C      1  0.4448650000000  0.5208380000000  0.4672060000000 1.0
C      1  0.5058620000000  0.4247150000000  0.4663960000000 1.0
C      1  0.5429630000000  0.5209550000000  0.5048040000000 1.0
C      1  0.5405160000000  0.4722300000000  0.4374750000000 1.0
C      1  0.5818120000000  0.5028960000000  0.4785780000000 1.0
C      1  0.5064740000000  0.5464000000000  0.5263710000000 1.0
C      1  0.5084870000000  0.5476460000000  0.4599870000000 1.0
C      1  0.5308000000000  0.5601790000000  0.5345260000000 1.0
C      1  0.5205260000000  0.5594480000000  0.4836350000000 1.0
C      1  0.5458280000000  0.5502610000000  0.4963950000000 1.0
C      1  0.4119790000000  0.4844150000000  0.5219860000000 1.0
C      1  0.4334380000000  0.4942080000000  0.5370520000000 1.0
C      1  0.4835510000000  0.4935670000000  0.4391660000000 1.0
C      1  0.5187420000000  0.4622990000000  0.4235530000000 1.0
C      1  0.5005320000000  0.4548130000000  0.5268340000000 1.0
C      1  0.5006010000000  0.4694830000000  0.4988260000000 1.0
C      1  0.5423540000000  0.4700640000000  0.4659120000000 1.0
C      1  0.4577620000000  0.4977470000000  0.4523230000000 1.0
C      1  0.5659480000000  0.4874380000000  0.5210800000000 1.0
C      1  0.4917830000000  0.5639860000000  0.5071500000000 1.0
C      1  0.4527650000000  0.5442120000000  0.5281180000000 1.0
C      1  0.5548110000000  0.5107350000000  0.4783200000000 1.0
C      1  0.4659120000000  0.4984130000000  0.4994450000000 1.0
C      1  0.4964630000000  0.4673090000000  0.4397030000000 1.0
C      1  0.4664950000000  0.5506450000000  0.5027410000000 1.0
C      1  0.5462270000000  0.4658960000000  0.5163660000000 1.0
C      1  0.5211870000000  0.4831250000000  0.5566320000000 1.0
C      1  0.4377160000000  0.5212140000000  0.5315340000000 1.0
C      1  0.4559170000000  0.4775850000000  0.5402620000000 1.0
C      1  0.5525060000000  0.5661160000000  0.5190540000000 1.0
C      1  0.4650100000000  0.5531660000000  0.5515800000000 1.0
C      1  0.4981250000000  0.5144360000000  0.4277590000000 1.0
C      1  0.5268670000000  0.4623970000000  0.5376380000000 1.0
C      1  0.4807980000000  0.4668730000000  0.5473590000000 1.0
C      1  0.4943280000000  0.4985980000000  0.5009560000000 1.0
C      1  0.4606100000000  0.5450350000000  0.4742360000000 1.0
C      1  0.5295490000000  0.5268600000000  0.5741940000000 1.0
C      1  0.5214880000000  0.4288790000000  0.4903990000000 1.0
C      1  0.5303850000000  0.4586700000000  0.4908760000000 1.0
C      1  0.5393260000000  0.5055300000000  0.5592610000000 1.0
C      1  0.4472890000000  0.4770860000000  0.4899610000000 1.0
C      1  0.4952530000000  0.4805560000000  0.5674900000000 1.0
C      1  0.4812450000000  0.5531700000000  0.4569000000000 1.0
C      1  0.5582560000000  0.5097560000000  0.5377990000000 1.0
C      1  0.4223400000000  0.5139980000000  0.4836990000000 1.0
C      1  0.5059520000000  0.5398200000000  0.5741930000000 1.0
END
