TITL C-951342-2639-559 4.569913311401e-05 125000 -163.769439341157 0 0 28 (C1) n - 1
REM
REM in /home/bkarasulu/work/CARBON/AIRSS/Generating-Clusters/EDIP-Nigel-Params/with-SteepDescent/Only-C1/SD-CG/HFTN-CG
REM
REM
REM
REM
REM
REM ./C.cell (11c1c37f851c82e70ff6c80c92926a4b)
REM
REM compiler GCC version 9.2.1 20190827 (Red Hat 9.2.1-1)
REM options -cpp -mtune=generic -march=x86-64 -g -O0 -fpre-include=/usr/include/finclude/math-vector-fortran.h
REM seed 1963694007 1549375274 -1273843740 -890510038 -723206588 -1510897494 -1881248981 -402685588 1118702595 249837751 -686742208 1993916458 316486309 424763184 1461808761 526374836 -393695527 -125874263 -1950686195 2008247204 -1368727045 85309403 -1919845129 -1148803412 579216906 -764930163 -1094559298 -1451615171 -208036874 1959860964 -373560579 770999802 -1733053393
REM
CELL 1.54180   50.00000   50.00000   50.00000   90.00000   90.00000   90.00000
LATT -1
SFAC C  
C      1  0.4935960000000  0.4575750000000  0.5485420000000 1.0
C      1  0.4692610000000  0.4731470000000  0.4557070000000 1.0
C      1  0.4623420000000  0.5259130000000  0.4862410000000 1.0
C      1  0.5098310000000  0.5298920000000  0.5440740000000 1.0
C      1  0.4930820000000  0.5175180000000  0.4472280000000 1.0
C      1  0.5117860000000  0.5484850000000  0.4979910000000 1.0
C      1  0.5145520000000  0.5545150000000  0.4716370000000 1.0
C      1  0.4892290000000  0.5201380000000  0.5602800000000 1.0
C      1  0.5297400000000  0.4905410000000  0.5490190000000 1.0
C      1  0.5245710000000  0.4829090000000  0.4365760000000 1.0
C      1  0.4879120000000  0.4969050000000  0.5738490000000 1.0
C      1  0.5710420000000  0.4729840000000  0.5252320000000 1.0
C      1  0.4977650000000  0.4648270000000  0.4565100000000 1.0
C      1  0.5343140000000  0.5183280000000  0.5523070000000 1.0
C      1  0.4679830000000  0.5025660000000  0.4444630000000 1.0
C      1  0.5059430000000  0.4788650000000  0.5618800000000 1.0
C      1  0.5110390000000  0.4590190000000  0.4328560000000 1.0
C      1  0.5558990000000  0.4512610000000  0.5303580000000 1.0
C      1  0.4917330000000  0.5444830000000  0.4586640000000 1.0
C      1  0.4683390000000  0.5502490000000  0.4731560000000 1.0
C      1  0.5144180000000  0.5082240000000  0.4319370000000 1.0
C      1  0.5030010000000  0.5284020000000  0.5155580000000 1.0
C      1  0.4499470000000  0.5044480000000  0.4698840000000 1.0
C      1  0.4570950000000  0.4776370000000  0.4851120000000 1.0
C      1  0.4792910000000  0.4676460000000  0.5280750000000 1.0
C      1  0.4775880000000  0.5145780000000  0.5087360000000 1.0
C      1  0.4754580000000  0.4850890000000  0.5068140000000 1.0
C      1  0.5532440000000  0.4738560000000  0.5473120000000 1.0
END
