TITL C-951333-8791-711 -2.31950874549412e-06 125000 -557.860533540801 0 0 91 (C1) n - 1
REM
REM in /home/bkarasulu/work/CARBON/AIRSS/Generating-Clusters/EDIP-Nigel-Params/with-SteepDescent/Only-C1/SD-CG/HFTN-CG
REM
REM
REM
REM
REM
REM ./C.cell (11c1c37f851c82e70ff6c80c92926a4b)
REM
REM compiler GCC version 9.2.1 20190827 (Red Hat 9.2.1-1)
REM options -cpp -mtune=generic -march=x86-64 -g -O0 -fpre-include=/usr/include/finclude/math-vector-fortran.h
REM seed 191850100 1699750702 1761145302 1043432145 689182880 2102473686 -497541767 -556387012 -1955661074 324641647 -221559041 1433443250 -1390719924 1382579113 -1953021829 -1522683097 -293957679 513344276 2123540951 724929849 1362429750 -1122288624 -810033743 -1598362916 -2009600876 -508247183 1184516401 2137051284 741070354 1019606778 -109574184 -548896586 -1452688812
REM
CELL 1.54180   50.00000   50.00000   50.00000   90.00000   90.00000   90.00000
LATT -1
SFAC C  
C      1  0.5011580000000  0.4363620000000  0.4742530000000 1.0
C      1  0.4811570000000  0.4095000000000  0.5272130000000 1.0
C      1  0.4830620000000  0.4774450000000  0.4129020000000 1.0
C      1  0.4763510000000  0.4528060000000  0.4701860000000 1.0
C      1  0.4291760000000  0.4719160000000  0.4645560000000 1.0
C      1  0.4833560000000  0.5894080000000  0.4723390000000 1.0
C      1  0.4727890000000  0.5043260000000  0.4111570000000 1.0
C      1  0.5179840000000  0.5613660000000  0.4575980000000 1.0
C      1  0.4884610000000  0.5738460000000  0.5388490000000 1.0
C      1  0.4919060000000  0.4947870000000  0.5896670000000 1.0
C      1  0.4768040000000  0.4255120000000  0.5518470000000 1.0
C      1  0.5497470000000  0.5485710000000  0.4411350000000 1.0
C      1  0.4180180000000  0.4597930000000  0.4877600000000 1.0
C      1  0.5121240000000  0.5852570000000  0.4755430000000 1.0
C      1  0.5587460000000  0.5370380000000  0.5175980000000 1.0
C      1  0.5750920000000  0.4622450000000  0.5074910000000 1.0
C      1  0.5127090000000  0.4888660000000  0.4678230000000 1.0
C      1  0.5320040000000  0.5332750000000  0.5589940000000 1.0
C      1  0.5258230000000  0.4838790000000  0.5174770000000 1.0
C      1  0.5191870000000  0.5853000000000  0.5022090000000 1.0
C      1  0.5066120000000  0.5354180000000  0.4697800000000 1.0
C      1  0.4584530000000  0.4373210000000  0.4878510000000 1.0
C      1  0.5493600000000  0.4321750000000  0.4757140000000 1.0
C      1  0.5534760000000  0.4774930000000  0.4398740000000 1.0
C      1  0.5237520000000  0.5124560000000  0.4245890000000 1.0
C      1  0.4176230000000  0.5389860000000  0.4955680000000 1.0
C      1  0.4579490000000  0.5351100000000  0.4301750000000 1.0
C      1  0.4681250000000  0.4512400000000  0.5386880000000 1.0
C      1  0.5753960000000  0.5056840000000  0.4712300000000 1.0
C      1  0.4376000000000  0.4550010000000  0.5328710000000 1.0
C      1  0.4769070000000  0.5749600000000  0.4469360000000 1.0
C      1  0.5060220000000  0.5392770000000  0.5169060000000 1.0
C      1  0.5439030000000  0.4158210000000  0.5020620000000 1.0
C      1  0.5225030000000  0.5281290000000  0.4942830000000 1.0
C      1  0.5085740000000  0.5125990000000  0.4509880000000 1.0
C      1  0.5252840000000  0.4688880000000  0.4459290000000 1.0
C      1  0.4671530000000  0.5663450000000  0.5181210000000 1.0
C      1  0.4472770000000  0.5359800000000  0.5481610000000 1.0
C      1  0.4218550000000  0.5115940000000  0.4937310000000 1.0
C      1  0.5079850000000  0.4129180000000  0.5165020000000 1.0
C      1  0.5364550000000  0.4304670000000  0.5517750000000 1.0
C      1  0.5765320000000  0.4870080000000  0.5206570000000 1.0
C      1  0.5544090000000  0.4934870000000  0.5416270000000 1.0
C      1  0.4654860000000  0.5056570000000  0.4681550000000 1.0
C      1  0.4912420000000  0.5512040000000  0.5591890000000 1.0
C      1  0.5116090000000  0.4779710000000  0.4194470000000 1.0
C      1  0.4346090000000  0.4983200000000  0.5173440000000 1.0
C      1  0.5288760000000  0.4994650000000  0.4919920000000 1.0
C      1  0.4665810000000  0.5399570000000  0.5709900000000 1.0
C      1  0.5134010000000  0.5684330000000  0.5232670000000 1.0
C      1  0.5542380000000  0.5233210000000  0.5434300000000 1.0
C      1  0.5229320000000  0.4520670000000  0.5629280000000 1.0
C      1  0.5065220000000  0.4397070000000  0.5036650000000 1.0
C      1  0.4756850000000  0.5347130000000  0.4762220000000 1.0
C      1  0.5019490000000  0.5659000000000  0.4328040000000 1.0
C      1  0.4610920000000  0.5512280000000  0.4539770000000 1.0
C      1  0.4354760000000  0.4693010000000  0.5082560000000 1.0
C      1  0.5329030000000  0.4793550000000  0.5611570000000 1.0
C      1  0.5961290000000  0.5347930000000  0.5083700000000 1.0
C      1  0.5811180000000  0.5100910000000  0.5008030000000 1.0
C      1  0.5337810000000  0.4546340000000  0.5097470000000 1.0
C      1  0.4744650000000  0.5170380000000  0.5859920000000 1.0
C      1  0.5320060000000  0.5221780000000  0.5848120000000 1.0
C      1  0.4822010000000  0.5008040000000  0.5394620000000 1.0
C      1  0.4660260000000  0.5096490000000  0.4383150000000 1.0
C      1  0.4633250000000  0.4179550000000  0.5067830000000 1.0
C      1  0.5293250000000  0.5424040000000  0.4204900000000 1.0
C      1  0.5252390000000  0.4402070000000  0.4580070000000 1.0
C      1  0.4843480000000  0.4821480000000  0.4789320000000 1.0
C      1  0.4356080000000  0.5005470000000  0.4697160000000 1.0
C      1  0.4204410000000  0.5576760000000  0.5144130000000 1.0
C      1  0.5200810000000  0.4969450000000  0.5810050000000 1.0
C      1  0.4597090000000  0.5176520000000  0.5269070000000 1.0
C      1  0.5806550000000  0.5559140000000  0.5175700000000 1.0
C      1  0.4457050000000  0.4559080000000  0.4464990000000 1.0
C      1  0.4412120000000  0.5610020000000  0.5324660000000 1.0
C      1  0.4671150000000  0.5841880000000  0.4951420000000 1.0
C      1  0.5640350000000  0.5239380000000  0.4497180000000 1.0
C      1  0.5523250000000  0.5051840000000  0.4302280000000 1.0
C      1  0.4756440000000  0.5387760000000  0.5080800000000 1.0
C      1  0.4663830000000  0.4617080000000  0.4291260000000 1.0
C      1  0.5055000000000  0.5280330000000  0.5455320000000 1.0
C      1  0.4855580000000  0.4577210000000  0.5156010000000 1.0
C      1  0.4360840000000  0.4792850000000  0.5513480000000 1.0
C      1  0.5488650000000  0.4330680000000  0.5271590000000 1.0
C      1  0.4669650000000  0.4784250000000  0.5562140000000 1.0
C      1  0.4949310000000  0.4851810000000  0.5163360000000 1.0
C      1  0.4793250000000  0.4694410000000  0.5819070000000 1.0
C      1  0.5700340000000  0.4781090000000  0.4631430000000 1.0
C      1  0.5670070000000  0.4559420000000  0.4814480000000 1.0
C      1  0.4973940000000  0.4470060000000  0.5752910000000 1.0
END
