TITL C-950534-5965-386 -1.09313512195715e-06 125000 -287.43917864057 0 0 48 (C1) n - 1
REM
REM in /home/bkarasulu/work/CARBON/AIRSS/Generating-Clusters/EDIP-Nigel-Params/with-SteepDescent/Only-C1/SD-CG/HFTN-CG
REM
REM
REM
REM
REM
REM ./C.cell (11c1c37f851c82e70ff6c80c92926a4b)
REM
REM compiler GCC version 9.2.1 20190827 (Red Hat 9.2.1-1)
REM options -cpp -mtune=generic -march=x86-64 -g -O0 -fpre-include=/usr/include/finclude/math-vector-fortran.h
REM seed 1490733375 -1057602875 1797068025 -332840572 1436584198 1494224788 577084380 -784622308 -454119129 -561934739 1966120281 -2058857223 1271526777 -2144537338 1159834686 1874640440 -1910781172 -731505987 336004484 1352291631 471052895 -1814481662 -1441217753 1617244928 1562757093 1529447296 498991249 1329743576 -1123332620 -1611581159 -1893864610 -1578793568 1150535716
REM
CELL 1.54180   50.00000   50.00000   50.00000   90.00000   90.00000   90.00000
LATT -1
SFAC C  
C      1  0.5406960000000  0.4380460000000  0.4921020000000 1.0
C      1  0.4661160000000  0.4495210000000  0.4902930000000 1.0
C      1  0.4373850000000  0.4623350000000  0.5215830000000 1.0
C      1  0.4917340000000  0.4389130000000  0.4872380000000 1.0
C      1  0.5087850000000  0.5111910000000  0.4664780000000 1.0
C      1  0.5156670000000  0.5285790000000  0.5173050000000 1.0
C      1  0.5164930000000  0.4532050000000  0.4856300000000 1.0
C      1  0.4355280000000  0.4847590000000  0.5018370000000 1.0
C      1  0.4527530000000  0.4699280000000  0.5464710000000 1.0
C      1  0.4484180000000  0.4389260000000  0.5093490000000 1.0
C      1  0.4509270000000  0.4795240000000  0.4547210000000 1.0
C      1  0.4826560000000  0.5699450000000  0.4979010000000 1.0
C      1  0.5201790000000  0.4628070000000  0.4576320000000 1.0
C      1  0.4910450000000  0.5314100000000  0.4564400000000 1.0
C      1  0.4769070000000  0.4543460000000  0.5470130000000 1.0
C      1  0.5296440000000  0.5042270000000  0.5583350000000 1.0
C      1  0.4881420000000  0.5350760000000  0.4302980000000 1.0
C      1  0.5153120000000  0.4759740000000  0.5075400000000 1.0
C      1  0.5546300000000  0.5331250000000  0.4728100000000 1.0
C      1  0.4779480000000  0.5167700000000  0.5539960000000 1.0
C      1  0.5583690000000  0.5088820000000  0.4895270000000 1.0
C      1  0.5026810000000  0.5098830000000  0.5649170000000 1.0
C      1  0.4992460000000  0.4653540000000  0.5317380000000 1.0
C      1  0.5441580000000  0.4772410000000  0.5211340000000 1.0
C      1  0.5278700000000  0.5535850000000  0.5072560000000 1.0
C      1  0.4730720000000  0.5055470000000  0.4931930000000 1.0
C      1  0.4937390000000  0.5598890000000  0.5240160000000 1.0
C      1  0.5011350000000  0.5771860000000  0.4775430000000 1.0
C      1  0.5339100000000  0.5080540000000  0.4524700000000 1.0
C      1  0.5146360000000  0.4584700000000  0.5551680000000 1.0
C      1  0.4404220000000  0.5105800000000  0.5144350000000 1.0
C      1  0.5050580000000  0.5049500000000  0.4965950000000 1.0
C      1  0.4981320000000  0.4669590000000  0.4409870000000 1.0
C      1  0.5258200000000  0.5747360000000  0.4660060000000 1.0
C      1  0.4763560000000  0.5375100000000  0.5335600000000 1.0
C      1  0.5403660000000  0.5567120000000  0.4820680000000 1.0
C      1  0.5618870000000  0.4811400000000  0.4784730000000 1.0
C      1  0.4584380000000  0.4779380000000  0.4825850000000 1.0
C      1  0.4597550000000  0.5512170000000  0.4908160000000 1.0
C      1  0.5375850000000  0.4754660000000  0.5516850000000 1.0
C      1  0.5557530000000  0.5043820000000  0.5182810000000 1.0
C      1  0.5382910000000  0.5206480000000  0.5351920000000 1.0
C      1  0.5437060000000  0.4806540000000  0.4544860000000 1.0
C      1  0.4578890000000  0.4971640000000  0.5530220000000 1.0
C      1  0.5580360000000  0.4592880000000  0.5000950000000 1.0
C      1  0.4677810000000  0.5281150000000  0.4733950000000 1.0
C      1  0.4721770000000  0.4729860000000  0.4397970000000 1.0
C      1  0.4527680000000  0.5368600000000  0.5165890000000 1.0
END
