TITL C-951333-8791-716 1.45067988014494e-06 125000 -252.323995035364 0 0 42 (C1) n - 1
REM
REM in /home/bkarasulu/work/CARBON/AIRSS/Generating-Clusters/EDIP-Nigel-Params/with-SteepDescent/Only-C1/SD-CG/HFTN-CG
REM
REM
REM
REM
REM
REM ./C.cell (11c1c37f851c82e70ff6c80c92926a4b)
REM
REM compiler GCC version 9.2.1 20190827 (Red Hat 9.2.1-1)
REM options -cpp -mtune=generic -march=x86-64 -g -O0 -fpre-include=/usr/include/finclude/math-vector-fortran.h
REM seed 444559714 -117046730 2109855628 -1232423882 -466551378 1046418855 -1969014777 658680347 -2120992379 -1727696685 -24764446 -1114603915 -2121216675 -1541476525 -1973750789 982015087 -1452950575 -309937010 1042487168 -317388158 1070597300 -705885253 -1931522688 990708582 1300263889 -936595722 691722630 1989163697 -286101694 -256154841 1570021595 -2006537427 -918694056
REM
CELL 1.54180   50.00000   50.00000   50.00000   90.00000   90.00000   90.00000
LATT -1
SFAC C  
C      1  0.5327750000000  0.4887150000000  0.4475470000000 1.0
C      1  0.5547580000000  0.4558900000000  0.5149330000000 1.0
C      1  0.4515670000000  0.5124690000000  0.5176810000000 1.0
C      1  0.5816510000000  0.4562610000000  0.5049090000000 1.0
C      1  0.4985240000000  0.4402870000000  0.4909830000000 1.0
C      1  0.5211300000000  0.5472990000000  0.5480090000000 1.0
C      1  0.5353060000000  0.5586410000000  0.4537390000000 1.0
C      1  0.5366310000000  0.4356690000000  0.5025200000000 1.0
C      1  0.4229290000000  0.5032450000000  0.4730660000000 1.0
C      1  0.5183050000000  0.5121200000000  0.4499400000000 1.0
C      1  0.4616920000000  0.4743880000000  0.4733150000000 1.0
C      1  0.5328230000000  0.4653750000000  0.4603480000000 1.0
C      1  0.4812770000000  0.4654490000000  0.4952480000000 1.0
C      1  0.5254540000000  0.5370220000000  0.4364450000000 1.0
C      1  0.5972770000000  0.4798490000000  0.5029390000000 1.0
C      1  0.4760140000000  0.4849070000000  0.5648040000000 1.0
C      1  0.4724820000000  0.5220280000000  0.5358720000000 1.0
C      1  0.4745110000000  0.5489300000000  0.4969860000000 1.0
C      1  0.5044200000000  0.5529740000000  0.4926330000000 1.0
C      1  0.4794220000000  0.5124040000000  0.5620110000000 1.0
C      1  0.5891690000000  0.4679140000000  0.4801580000000 1.0
C      1  0.4896170000000  0.5103510000000  0.4522280000000 1.0
C      1  0.5032660000000  0.5240090000000  0.5728360000000 1.0
C      1  0.4771000000000  0.5355320000000  0.4456720000000 1.0
C      1  0.4782090000000  0.5494530000000  0.5275470000000 1.0
C      1  0.5076010000000  0.5577450000000  0.5246420000000 1.0
C      1  0.4348530000000  0.4803950000000  0.4855350000000 1.0
C      1  0.5103830000000  0.5507420000000  0.5733530000000 1.0
C      1  0.4656960000000  0.4651240000000  0.5205630000000 1.0
C      1  0.5115860000000  0.5676960000000  0.4685070000000 1.0
C      1  0.4785490000000  0.5005130000000  0.4777450000000 1.0
C      1  0.5251280000000  0.4425970000000  0.4741230000000 1.0
C      1  0.4376510000000  0.5271040000000  0.4721590000000 1.0
C      1  0.4426480000000  0.4838640000000  0.5155620000000 1.0
C      1  0.4815950000000  0.4656920000000  0.5451360000000 1.0
C      1  0.4488730000000  0.5372700000000  0.4485100000000 1.0
C      1  0.5078530000000  0.4541350000000  0.5405160000000 1.0
C      1  0.5296600000000  0.4556170000000  0.5582320000000 1.0
C      1  0.4602560000000  0.5227590000000  0.4908050000000 1.0
C      1  0.5519000000000  0.4572400000000  0.5426600000000 1.0
C      1  0.5104470000000  0.4342330000000  0.5191600000000 1.0
C      1  0.4990130000000  0.5560960000000  0.4404190000000 1.0
END
