TITL C-950528-5794-22 -2.14481104289635e-06 125000 -999.626097705817 0 0 160 (C1) n - 1
REM
REM in /home/bkarasulu/work/CARBON/AIRSS/Generating-Clusters/EDIP-Nigel-Params/with-SteepDescent/Only-C1/SD-CG/HFTN-CG
REM
REM
REM
REM
REM
REM ./C.cell (11c1c37f851c82e70ff6c80c92926a4b)
REM
REM compiler GCC version 9.2.1 20190827 (Red Hat 9.2.1-1)
REM options -cpp -mtune=generic -march=x86-64 -g -O0 -fpre-include=/usr/include/finclude/math-vector-fortran.h
REM seed 420210319 -1418618794 1123595753 936695874 -1286226852 476986664 -1583281589 2019550358 961086323 -1767399857 1856898150 2081303816 -728417430 1123906345 1834964998 -1981109335 262755994 -1123751208 63664852 -1172983458 -1488861248 526981163 -103973027 1865286480 -1024179512 362074432 839868650 -1452318431 1483688070 727849323 -74314120 2039947599 -68063186
REM
CELL 1.54180   50.00000   50.00000   50.00000   90.00000   90.00000   90.00000
LATT -1
SFAC C  
C      1  0.4918110000000  0.5402040000000  0.4092040000000 1.0
C      1  0.5456290000000  0.5060840000000  0.5352690000000 1.0
C      1  0.4216810000000  0.5288150000000  0.4408450000000 1.0
C      1  0.5888860000000  0.4896380000000  0.4410270000000 1.0
C      1  0.4963680000000  0.5007660000000  0.5388710000000 1.0
C      1  0.5921490000000  0.5307650000000  0.4295650000000 1.0
C      1  0.5469450000000  0.4767720000000  0.5387630000000 1.0
C      1  0.5971650000000  0.5539830000000  0.5152580000000 1.0
C      1  0.4920230000000  0.4727800000000  0.4701040000000 1.0
C      1  0.3908940000000  0.5304480000000  0.5106930000000 1.0
C      1  0.4526560000000  0.3897240000000  0.5315520000000 1.0
C      1  0.4821240000000  0.4365910000000  0.5039140000000 1.0
C      1  0.5184470000000  0.5169000000000  0.5258960000000 1.0
C      1  0.4915320000000  0.4230790000000  0.4510500000000 1.0
C      1  0.4023190000000  0.5321710000000  0.4839370000000 1.0
C      1  0.5758150000000  0.5693930000000  0.4449350000000 1.0
C      1  0.4930420000000  0.5267680000000  0.5941940000000 1.0
C      1  0.4753280000000  0.4472900000000  0.4614500000000 1.0
C      1  0.4472830000000  0.4758960000000  0.5976370000000 1.0
C      1  0.5279240000000  0.5042790000000  0.3988120000000 1.0
C      1  0.5935010000000  0.4620430000000  0.4753960000000 1.0
C      1  0.4584120000000  0.4278230000000  0.4323540000000 1.0
C      1  0.5745660000000  0.4228550000000  0.5416310000000 1.0
C      1  0.4947890000000  0.5554020000000  0.5091470000000 1.0
C      1  0.5738270000000  0.5650670000000  0.4739850000000 1.0
C      1  0.4343230000000  0.4351240000000  0.4508170000000 1.0
C      1  0.5275150000000  0.5180310000000  0.5811830000000 1.0
C      1  0.5719630000000  0.4966940000000  0.5736690000000 1.0
C      1  0.4717920000000  0.5932380000000  0.5435920000000 1.0
C      1  0.5101090000000  0.4565870000000  0.3945560000000 1.0
C      1  0.4411260000000  0.4702480000000  0.4184990000000 1.0
C      1  0.5004990000000  0.5122350000000  0.4069980000000 1.0
C      1  0.4406650000000  0.4886620000000  0.4797280000000 1.0
C      1  0.4730590000000  0.5734710000000  0.5209910000000 1.0
C      1  0.5226660000000  0.4630880000000  0.4304370000000 1.0
C      1  0.4276630000000  0.4455460000000  0.5398590000000 1.0
C      1  0.5983510000000  0.5513700000000  0.4869200000000 1.0
C      1  0.5576800000000  0.4709220000000  0.5667990000000 1.0
C      1  0.5140260000000  0.4878180000000  0.4519160000000 1.0
C      1  0.5035170000000  0.4691150000000  0.4987250000000 1.0
C      1  0.4712080000000  0.5022380000000  0.4440450000000 1.0
C      1  0.6071000000000  0.4746510000000  0.4970840000000 1.0
C      1  0.4454850000000  0.4966770000000  0.5397100000000 1.0
C      1  0.4166310000000  0.5795060000000  0.5175280000000 1.0
C      1  0.5514400000000  0.5089260000000  0.4161550000000 1.0
C      1  0.4632830000000  0.5698050000000  0.4612970000000 1.0
C      1  0.4577540000000  0.4135600000000  0.5451090000000 1.0
C      1  0.4170000000000  0.4818310000000  0.4600750000000 1.0
C      1  0.6000360000000  0.4675700000000  0.5241280000000 1.0
C      1  0.6202910000000  0.5098980000000  0.5238800000000 1.0
C      1  0.4735130000000  0.5331750000000  0.5720470000000 1.0
C      1  0.4856460000000  0.4651860000000  0.4057470000000 1.0
C      1  0.5094980000000  0.5240280000000  0.4487800000000 1.0
C      1  0.5546840000000  0.5705490000000  0.5622800000000 1.0
C      1  0.4592040000000  0.5974560000000  0.5071520000000 1.0
C      1  0.4665990000000  0.5445430000000  0.4255470000000 1.0
C      1  0.5520480000000  0.5428340000000  0.4845440000000 1.0
C      1  0.5397550000000  0.6002160000000  0.4706150000000 1.0
C      1  0.5198230000000  0.5900120000000  0.4899310000000 1.0
C      1  0.5178130000000  0.5812860000000  0.4254610000000 1.0
C      1  0.4754220000000  0.4387960000000  0.5808730000000 1.0
C      1  0.5010810000000  0.4575050000000  0.5437400000000 1.0
C      1  0.4856160000000  0.4069160000000  0.5009640000000 1.0
C      1  0.4186210000000  0.5469390000000  0.4645750000000 1.0
C      1  0.4820190000000  0.5925820000000  0.4629300000000 1.0
C      1  0.4370380000000  0.5689460000000  0.4730450000000 1.0
C      1  0.5577780000000  0.4680810000000  0.4623730000000 1.0
C      1  0.5961740000000  0.4387520000000  0.5295790000000 1.0
C      1  0.4268170000000  0.4941730000000  0.5931910000000 1.0
C      1  0.5490010000000  0.5556210000000  0.5134900000000 1.0
C      1  0.4192270000000  0.5609480000000  0.5381250000000 1.0
C      1  0.5726260000000  0.5431780000000  0.5275250000000 1.0
C      1  0.4029230000000  0.5203790000000  0.5576420000000 1.0
C      1  0.4365980000000  0.4054490000000  0.4898470000000 1.0
C      1  0.4255800000000  0.4611280000000  0.4411500000000 1.0
C      1  0.4680190000000  0.4900860000000  0.4690490000000 1.0
C      1  0.4782520000000  0.5290960000000  0.4501130000000 1.0
C      1  0.5276830000000  0.4774170000000  0.3905670000000 1.0
C      1  0.5102940000000  0.5145360000000  0.4943380000000 1.0
C      1  0.5815970000000  0.4358160000000  0.4812500000000 1.0
C      1  0.5317860000000  0.5965800000000  0.5267250000000 1.0
C      1  0.4946910000000  0.4993550000000  0.6044930000000 1.0
C      1  0.4264040000000  0.4433330000000  0.5678950000000 1.0
C      1  0.5000570000000  0.4555510000000  0.5754050000000 1.0
C      1  0.4120370000000  0.5333150000000  0.5317310000000 1.0
C      1  0.5257700000000  0.4012310000000  0.4768140000000 1.0
C      1  0.4845200000000  0.5594100000000  0.5611370000000 1.0
C      1  0.5679320000000  0.4854100000000  0.4222670000000 1.0
C      1  0.5219900000000  0.5374850000000  0.4754930000000 1.0
C      1  0.4709650000000  0.4853310000000  0.6081240000000 1.0
C      1  0.4495540000000  0.4531390000000  0.5803820000000 1.0
C      1  0.4427660000000  0.5270870000000  0.4191550000000 1.0
C      1  0.4791500000000  0.4933160000000  0.4013390000000 1.0
C      1  0.5383300000000  0.4219500000000  0.4589770000000 1.0
C      1  0.5903000000000  0.4233210000000  0.5058820000000 1.0
C      1  0.5682120000000  0.5153930000000  0.5184090000000 1.0
C      1  0.4603360000000  0.4421620000000  0.4860770000000 1.0
C      1  0.4374730000000  0.5176120000000  0.4903910000000 1.0
C      1  0.4795080000000  0.4144490000000  0.5639500000000 1.0
C      1  0.5558480000000  0.5561490000000  0.4308130000000 1.0
C      1  0.4964390000000  0.4022220000000  0.4728610000000 1.0
C      1  0.5635990000000  0.5911010000000  0.4857570000000 1.0
C      1  0.4795710000000  0.6083160000000  0.4880810000000 1.0
C      1  0.5189080000000  0.4915210000000  0.5900110000000 1.0
C      1  0.5224430000000  0.4380510000000  0.5871700000000 1.0
C      1  0.5358110000000  0.4665350000000  0.5881010000000 1.0
C      1  0.4580290000000  0.3947730000000  0.5048740000000 1.0
C      1  0.4612200000000  0.4496840000000  0.4117450000000 1.0
C      1  0.5501460000000  0.4351300000000  0.5524840000000 1.0
C      1  0.5529060000000  0.4630980000000  0.4331030000000 1.0
C      1  0.4265170000000  0.5147380000000  0.5741390000000 1.0
C      1  0.4735370000000  0.4434620000000  0.5315120000000 1.0
C      1  0.5304800000000  0.4094190000000  0.5055300000000 1.0
C      1  0.4358110000000  0.5183160000000  0.5205990000000 1.0
C      1  0.5957020000000  0.5211720000000  0.4798330000000 1.0
C      1  0.4078470000000  0.5048820000000  0.4453220000000 1.0
C      1  0.5979390000000  0.4961940000000  0.5638520000000 1.0
C      1  0.5317400000000  0.4517020000000  0.5324030000000 1.0
C      1  0.5074390000000  0.5633000000000  0.4841280000000 1.0
C      1  0.4488500000000  0.4638850000000  0.5279720000000 1.0
C      1  0.5560370000000  0.5846430000000  0.5138730000000 1.0
C      1  0.6113190000000  0.4888150000000  0.5406840000000 1.0
C      1  0.5297290000000  0.4186380000000  0.5660170000000 1.0
C      1  0.5518830000000  0.4408750000000  0.4778590000000 1.0
C      1  0.5054850000000  0.4141040000000  0.5494610000000 1.0
C      1  0.5669240000000  0.5336960000000  0.4169010000000 1.0
C      1  0.5130730000000  0.5581260000000  0.5539830000000 1.0
C      1  0.4126150000000  0.4510740000000  0.4938150000000 1.0
C      1  0.5463820000000  0.5815960000000  0.4224290000000 1.0
C      1  0.4876270000000  0.4833440000000  0.5186380000000 1.0
C      1  0.4549420000000  0.4978740000000  0.4187590000000 1.0
C      1  0.3878060000000  0.4975880000000  0.5467950000000 1.0
C      1  0.3970460000000  0.4696020000000  0.4771240000000 1.0
C      1  0.5299110000000  0.4820240000000  0.4979750000000 1.0
C      1  0.5667080000000  0.5164280000000  0.4888900000000 1.0
C      1  0.4366430000000  0.5627400000000  0.5622360000000 1.0
C      1  0.5044430000000  0.6113050000000  0.5031760000000 1.0
C      1  0.4440150000000  0.5382950000000  0.5782670000000 1.0
C      1  0.4053410000000  0.4552220000000  0.5236150000000 1.0
C      1  0.4412940000000  0.4629170000000  0.4973150000000 1.0
C      1  0.5526620000000  0.5181820000000  0.5634760000000 1.0
C      1  0.3787950000000  0.5054700000000  0.5197080000000 1.0
C      1  0.4554380000000  0.5845310000000  0.5655550000000 1.0
C      1  0.5071850000000  0.4010470000000  0.5225240000000 1.0
C      1  0.5351200000000  0.4387450000000  0.5046220000000 1.0
C      1  0.6140030000000  0.5031590000000  0.4968840000000 1.0
C      1  0.4722640000000  0.5106050000000  0.5511810000000 1.0
C      1  0.5185920000000  0.5477380000000  0.5269950000000 1.0
C      1  0.4635020000000  0.5350850000000  0.4786160000000 1.0
C      1  0.4334850000000  0.5863180000000  0.4964710000000 1.0
C      1  0.5995180000000  0.5137960000000  0.4504580000000 1.0
C      1  0.4210130000000  0.4251840000000  0.4766260000000 1.0
C      1  0.5377930000000  0.4883320000000  0.4712910000000 1.0
C      1  0.5667450000000  0.5454690000000  0.5571760000000 1.0
C      1  0.5122740000000  0.5531500000000  0.4238600000000 1.0
C      1  0.4831520000000  0.5298790000000  0.5001250000000 1.0
C      1  0.5083160000000  0.5954980000000  0.4488910000000 1.0
C      1  0.4096560000000  0.4846870000000  0.5304870000000 1.0
C      1  0.5299380000000  0.5823510000000  0.5541760000000 1.0
C      1  0.5175230000000  0.4348010000000  0.4424670000000 1.0
END
