TITL C-951340-9809-646 -9.59118627725776e-07 125000 -1222.70572091876 0 0 194 (C1) n - 1
REM
REM in /home/bkarasulu/work/CARBON/AIRSS/Generating-Clusters/EDIP-Nigel-Params/with-SteepDescent/Only-C1/SD-CG/HFTN-CG
REM
REM
REM
REM
REM
REM ./C.cell (11c1c37f851c82e70ff6c80c92926a4b)
REM
REM compiler GCC version 9.2.1 20190827 (Red Hat 9.2.1-1)
REM options -cpp -mtune=generic -march=x86-64 -g -O0 -fpre-include=/usr/include/finclude/math-vector-fortran.h
REM seed 898502868 1807164478 1668628584 -1874982525 -797303849 -580353041 1581618285 1468526527 1104920910 -660877580 -1021856820 -1836742152 484618400 -1982853904 689527568 -364731480 2090451261 -1812813598 594387280 1580485317 -880862309 -707431999 -1229280138 2018459135 876718872 1213421636 -1340421419 1347490486 -483596372 425317681 -757569902 972061567 1393962843
REM
CELL 1.54180   50.00000   50.00000   50.00000   90.00000   90.00000   90.00000
LATT -1
SFAC C  
C      1  0.5186210000000  0.4916680000000  0.5339110000000 1.0
C      1  0.4392590000000  0.6033120000000  0.5215590000000 1.0
C      1  0.5173350000000  0.4220230000000  0.5235820000000 1.0
C      1  0.5197640000000  0.6085810000000  0.5484690000000 1.0
C      1  0.5084440000000  0.5377600000000  0.5066260000000 1.0
C      1  0.5219770000000  0.4724790000000  0.5585540000000 1.0
C      1  0.5200190000000  0.4546240000000  0.6050670000000 1.0
C      1  0.4971540000000  0.5273730000000  0.4393940000000 1.0
C      1  0.4695400000000  0.3897410000000  0.4442220000000 1.0
C      1  0.5336180000000  0.5307970000000  0.6119450000000 1.0
C      1  0.4912690000000  0.5774340000000  0.5675670000000 1.0
C      1  0.4826230000000  0.5909370000000  0.4454320000000 1.0
C      1  0.4713800000000  0.5992810000000  0.5587450000000 1.0
C      1  0.3912960000000  0.5509890000000  0.4928430000000 1.0
C      1  0.5436270000000  0.4552270000000  0.5037080000000 1.0
C      1  0.5684330000000  0.4216480000000  0.5264330000000 1.0
C      1  0.6044840000000  0.4951500000000  0.4399080000000 1.0
C      1  0.4608690000000  0.4948500000000  0.4387090000000 1.0
C      1  0.4194860000000  0.4580240000000  0.5552950000000 1.0
C      1  0.5123070000000  0.5903630000000  0.4708530000000 1.0
C      1  0.5099070000000  0.4237540000000  0.4917980000000 1.0
C      1  0.4967620000000  0.4162820000000  0.4512250000000 1.0
C      1  0.4441410000000  0.4939420000000  0.5110140000000 1.0
C      1  0.5591130000000  0.5233310000000  0.5963180000000 1.0
C      1  0.5959880000000  0.5213100000000  0.5608730000000 1.0
C      1  0.4543980000000  0.4346630000000  0.4268730000000 1.0
C      1  0.5195000000000  0.5457320000000  0.5901010000000 1.0
C      1  0.4213660000000  0.5467410000000  0.4570500000000 1.0
C      1  0.4094980000000  0.4841570000000  0.5579940000000 1.0
C      1  0.4845200000000  0.4595160000000  0.3982840000000 1.0
C      1  0.5180430000000  0.5920380000000  0.4146730000000 1.0
C      1  0.5558240000000  0.4936050000000  0.5943230000000 1.0
C      1  0.5662840000000  0.5806010000000  0.4725450000000 1.0
C      1  0.4489560000000  0.4072890000000  0.5373790000000 1.0
C      1  0.4106570000000  0.5749050000000  0.4609690000000 1.0
C      1  0.5554290000000  0.4822730000000  0.6217470000000 1.0
C      1  0.4678400000000  0.5246840000000  0.4357140000000 1.0
C      1  0.4246250000000  0.4171150000000  0.5244030000000 1.0
C      1  0.5218640000000  0.4611440000000  0.4365400000000 1.0
C      1  0.3926120000000  0.4545250000000  0.5152640000000 1.0
C      1  0.4444490000000  0.4835070000000  0.4145950000000 1.0
C      1  0.5771190000000  0.5646770000000  0.4498710000000 1.0
C      1  0.3861430000000  0.5716120000000  0.4744600000000 1.0
C      1  0.4838440000000  0.4559400000000  0.4636720000000 1.0
C      1  0.5894370000000  0.4647670000000  0.5094020000000 1.0
C      1  0.5909460000000  0.5192070000000  0.4349490000000 1.0
C      1  0.4852830000000  0.5741030000000  0.5122360000000 1.0
C      1  0.5388740000000  0.4380010000000  0.5869070000000 1.0
C      1  0.4843300000000  0.6046110000000  0.5099280000000 1.0
C      1  0.5123210000000  0.4980740000000  0.4748870000000 1.0
C      1  0.5589320000000  0.5675960000000  0.4251180000000 1.0
C      1  0.5210190000000  0.4133080000000  0.4335210000000 1.0
C      1  0.4899420000000  0.6141140000000  0.5390250000000 1.0
C      1  0.4382260000000  0.5528080000000  0.4138540000000 1.0
C      1  0.5002900000000  0.4056210000000  0.5608340000000 1.0
C      1  0.4617970000000  0.3905760000000  0.4931580000000 1.0
C      1  0.5484810000000  0.4596210000000  0.5494150000000 1.0
C      1  0.5443250000000  0.4377350000000  0.5278680000000 1.0
C      1  0.5425400000000  0.5072420000000  0.4755490000000 1.0
C      1  0.4482130000000  0.5511580000000  0.4422040000000 1.0
C      1  0.4132830000000  0.5006570000000  0.4505500000000 1.0
C      1  0.4622290000000  0.5140350000000  0.3989430000000 1.0
C      1  0.5516980000000  0.5259300000000  0.5449120000000 1.0
C      1  0.4236730000000  0.4483880000000  0.4934810000000 1.0
C      1  0.4919950000000  0.4928280000000  0.5182930000000 1.0
C      1  0.6052020000000  0.4484670000000  0.4496000000000 1.0
C      1  0.5264550000000  0.4383690000000  0.4179820000000 1.0
C      1  0.4436580000000  0.5137660000000  0.4878100000000 1.0
C      1  0.5551060000000  0.4923060000000  0.4085130000000 1.0
C      1  0.4072130000000  0.5284910000000  0.4384920000000 1.0
C      1  0.4680180000000  0.5299370000000  0.4897620000000 1.0
C      1  0.4356950000000  0.4544700000000  0.5784480000000 1.0
C      1  0.5469850000000  0.4034980000000  0.4439370000000 1.0
C      1  0.5245290000000  0.3967140000000  0.4881040000000 1.0
C      1  0.4192640000000  0.5346460000000  0.4854110000000 1.0
C      1  0.6065070000000  0.4743880000000  0.4583650000000 1.0
C      1  0.5880130000000  0.5378800000000  0.4577590000000 1.0
C      1  0.5562940000000  0.4397330000000  0.4115220000000 1.0
C      1  0.5670760000000  0.5179700000000  0.5215940000000 1.0
C      1  0.4722470000000  0.5356110000000  0.5930550000000 1.0
C      1  0.5902210000000  0.4813250000000  0.4824350000000 1.0
C      1  0.5172450000000  0.5912830000000  0.5724470000000 1.0
C      1  0.6093490000000  0.5289860000000  0.5351650000000 1.0
C      1  0.5039060000000  0.5000820000000  0.4474230000000 1.0
C      1  0.5130320000000  0.5145810000000  0.3931020000000 1.0
C      1  0.5406100000000  0.5996400000000  0.5290220000000 1.0
C      1  0.5247270000000  0.4202380000000  0.5671790000000 1.0
C      1  0.4973240000000  0.5650430000000  0.5398520000000 1.0
C      1  0.4303310000000  0.5669370000000  0.5568340000000 1.0
C      1  0.6067740000000  0.5051030000000  0.4924970000000 1.0
C      1  0.6095610000000  0.4796700000000  0.5367670000000 1.0
C      1  0.5080250000000  0.4416770000000  0.3949910000000 1.0
C      1  0.4136560000000  0.5528640000000  0.5383670000000 1.0
C      1  0.5997370000000  0.5327480000000  0.4851040000000 1.0
C      1  0.5366410000000  0.5508950000000  0.5042220000000 1.0
C      1  0.5405100000000  0.4834130000000  0.5130270000000 1.0
C      1  0.5725240000000  0.4235350000000  0.4791990000000 1.0
C      1  0.4378670000000  0.5718030000000  0.4995750000000 1.0
C      1  0.4147820000000  0.4001050000000  0.5045300000000 1.0
C      1  0.4915530000000  0.4735880000000  0.4390080000000 1.0
C      1  0.4909010000000  0.4780540000000  0.3767680000000 1.0
C      1  0.5349420000000  0.5814380000000  0.4338030000000 1.0
C      1  0.4886290000000  0.5562490000000  0.4082260000000 1.0
C      1  0.4111150000000  0.5629140000000  0.5115870000000 1.0
C      1  0.5537920000000  0.5715630000000  0.5319630000000 1.0
C      1  0.5461840000000  0.4652530000000  0.4533050000000 1.0
C      1  0.5648880000000  0.4502590000000  0.5729570000000 1.0
C      1  0.4913880000000  0.4526410000000  0.5969870000000 1.0
C      1  0.5043730000000  0.5437330000000  0.4628090000000 1.0
C      1  0.4731300000000  0.4780470000000  0.6020490000000 1.0
C      1  0.5498020000000  0.5244790000000  0.4992920000000 1.0
C      1  0.5803820000000  0.5683090000000  0.5182160000000 1.0
C      1  0.5142870000000  0.5184390000000  0.5737940000000 1.0
C      1  0.4779520000000  0.4884370000000  0.5751330000000 1.0
C      1  0.5951460000000  0.4914180000000  0.5603790000000 1.0
C      1  0.4189850000000  0.5264840000000  0.5737440000000 1.0
C      1  0.5664260000000  0.4664400000000  0.4106840000000 1.0
C      1  0.4730590000000  0.4322840000000  0.4831130000000 1.0
C      1  0.4053270000000  0.5271350000000  0.5477290000000 1.0
C      1  0.4917400000000  0.5675630000000  0.4750360000000 1.0
C      1  0.4404530000000  0.4773320000000  0.5954400000000 1.0
C      1  0.4142140000000  0.4566080000000  0.4462790000000 1.0
C      1  0.4702220000000  0.4109370000000  0.4248180000000 1.0
C      1  0.4601610000000  0.4746710000000  0.5559460000000 1.0
C      1  0.4834390000000  0.5168640000000  0.5720250000000 1.0
C      1  0.4414700000000  0.4997230000000  0.4612340000000 1.0
C      1  0.5686690000000  0.4201760000000  0.4312710000000 1.0
C      1  0.5168760000000  0.5392770000000  0.4080100000000 1.0
C      1  0.4917280000000  0.5839090000000  0.4181020000000 1.0
C      1  0.4618440000000  0.5449610000000  0.3978640000000 1.0
C      1  0.4998850000000  0.5369140000000  0.5345510000000 1.0
C      1  0.4561200000000  0.6106470000000  0.4991480000000 1.0
C      1  0.4771360000000  0.4091640000000  0.5759130000000 1.0
C      1  0.5046640000000  0.4678910000000  0.4813570000000 1.0
C      1  0.5082670000000  0.6105550000000  0.4919550000000 1.0
C      1  0.4056150000000  0.4631740000000  0.4736990000000 1.0
C      1  0.4704180000000  0.3966030000000  0.5207730000000 1.0
C      1  0.5364510000000  0.5695630000000  0.5793510000000 1.0
C      1  0.4943560000000  0.5144880000000  0.4951100000000 1.0
C      1  0.5829120000000  0.5824930000000  0.4947130000000 1.0
C      1  0.4165590000000  0.4801850000000  0.4278380000000 1.0
C      1  0.5264620000000  0.4479250000000  0.4813700000000 1.0
C      1  0.5314560000000  0.5509940000000  0.4549550000000 1.0
C      1  0.4870080000000  0.5060710000000  0.3843180000000 1.0
C      1  0.5239820000000  0.3908410000000  0.5179220000000 1.0
C      1  0.4329050000000  0.5508500000000  0.5802090000000 1.0
C      1  0.4568420000000  0.5782620000000  0.4527950000000 1.0
C      1  0.4735650000000  0.5238410000000  0.5443890000000 1.0
C      1  0.5850220000000  0.4300670000000  0.4537060000000 1.0
C      1  0.4927390000000  0.4669370000000  0.5072850000000 1.0
C      1  0.3918690000000  0.4836630000000  0.5108820000000 1.0
C      1  0.4340950000000  0.4351130000000  0.4471750000000 1.0
C      1  0.4654280000000  0.4970300000000  0.5326680000000 1.0
C      1  0.5618190000000  0.5177710000000  0.4252070000000 1.0
C      1  0.4701910000000  0.5236110000000  0.6182740000000 1.0
C      1  0.5328600000000  0.6109660000000  0.5048490000000 1.0
C      1  0.5462450000000  0.5242920000000  0.4516890000000 1.0
C      1  0.4838900000000  0.4995270000000  0.6210280000000 1.0
C      1  0.5508570000000  0.4025930000000  0.4738470000000 1.0
C      1  0.5228120000000  0.5199380000000  0.5458360000000 1.0
C      1  0.4370900000000  0.5888840000000  0.4732960000000 1.0
C      1  0.5494680000000  0.5425420000000  0.4115610000000 1.0
C      1  0.4408720000000  0.4278600000000  0.4759450000000 1.0
C      1  0.5823590000000  0.4339540000000  0.5052680000000 1.0
C      1  0.3946930000000  0.4892950000000  0.4812710000000 1.0
C      1  0.5331230000000  0.4944320000000  0.3894500000000 1.0
C      1  0.4806390000000  0.3902140000000  0.4710560000000 1.0
C      1  0.5897560000000  0.5395960000000  0.5149430000000 1.0
C      1  0.4096820000000  0.4406500000000  0.5340990000000 1.0
C      1  0.4572930000000  0.4567040000000  0.4080910000000 1.0
C      1  0.4623950000000  0.5554840000000  0.5043310000000 1.0
C      1  0.4346580000000  0.4000280000000  0.4846310000000 1.0
C      1  0.5388560000000  0.5692400000000  0.4784510000000 1.0
C      1  0.5204450000000  0.4718850000000  0.3757760000000 1.0
C      1  0.5594570000000  0.4831960000000  0.4729280000000 1.0
C      1  0.4970640000000  0.3904660000000  0.5347000000000 1.0
C      1  0.5677550000000  0.4840700000000  0.5267470000000 1.0
C      1  0.4597270000000  0.4236480000000  0.5589810000000 1.0
C      1  0.6172920000000  0.5034670000000  0.5207700000000 1.0
C      1  0.4911200000000  0.5578100000000  0.5925550000000 1.0
C      1  0.4702620000000  0.4494930000000  0.5115070000000 1.0
C      1  0.5132750000000  0.5024350000000  0.6224280000000 1.0
C      1  0.5599240000000  0.5653220000000  0.5623580000000 1.0
C      1  0.5763140000000  0.4775570000000  0.5791630000000 1.0
C      1  0.5681930000000  0.5352090000000  0.5681720000000 1.0
C      1  0.5277920000000  0.4767200000000  0.6239990000000 1.0
C      1  0.4159430000000  0.5351660000000  0.4123960000000 1.0
C      1  0.4472110000000  0.5888090000000  0.5454630000000 1.0
C      1  0.4459960000000  0.4655140000000  0.5035060000000 1.0
C      1  0.4255970000000  0.4978990000000  0.5780530000000 1.0
C      1  0.5271770000000  0.4916380000000  0.5821350000000 1.0
C      1  0.4020250000000  0.4999490000000  0.5347670000000 1.0
C      1  0.4736920000000  0.4481710000000  0.5472960000000 1.0
C      1  0.5000450000000  0.4493830000000  0.5658920000000 1.0
END
