TITL C-950528-5794-153 -1.74559807380877e-06 125000 -1091.13855134342 0 0 174 (C1) n - 1
REM
REM in /home/bkarasulu/work/CARBON/AIRSS/Generating-Clusters/EDIP-Nigel-Params/with-SteepDescent/Only-C1/SD-CG/HFTN-CG
REM
REM
REM
REM
REM
REM ./C.cell (11c1c37f851c82e70ff6c80c92926a4b)
REM
REM compiler GCC version 9.2.1 20190827 (Red Hat 9.2.1-1)
REM options -cpp -mtune=generic -march=x86-64 -g -O0 -fpre-include=/usr/include/finclude/math-vector-fortran.h
REM seed 663974868 1368200291 2047749169 -507165235 -271487633 -348235873 1692163040 1366142368 -1844017240 1340529047 -641308672 463352418 37383722 -2077126214 -75169684 1518164525 1239378917 -129363017 -87255187 1910093261 -362167554 1767731434 150388809 -832901390 535174571 1974170219 145015034 -888397979 -950193225 -1972065007 -118155864 -143796753 918673489
REM
CELL 1.54180   50.00000   50.00000   50.00000   90.00000   90.00000   90.00000
LATT -1
SFAC C  
C      1  0.4311850000000  0.5438620000000  0.5933280000000 1.0
C      1  0.4966700000000  0.4822070000000  0.4952820000000 1.0
C      1  0.6031820000000  0.4892410000000  0.5247220000000 1.0
C      1  0.4814990000000  0.5373100000000  0.5654930000000 1.0
C      1  0.4378300000000  0.5642050000000  0.5739110000000 1.0
C      1  0.5172790000000  0.3966980000000  0.5143910000000 1.0
C      1  0.5334090000000  0.4534750000000  0.5523190000000 1.0
C      1  0.4984960000000  0.4899330000000  0.5437480000000 1.0
C      1  0.5117300000000  0.5086960000000  0.4917900000000 1.0
C      1  0.4557360000000  0.5726560000000  0.4079360000000 1.0
C      1  0.5786150000000  0.5557020000000  0.4951190000000 1.0
C      1  0.5436610000000  0.5387890000000  0.5759610000000 1.0
C      1  0.5418230000000  0.4777940000000  0.3989000000000 1.0
C      1  0.5407980000000  0.5888450000000  0.4907580000000 1.0
C      1  0.4694570000000  0.6185590000000  0.5050660000000 1.0
C      1  0.4281160000000  0.4279230000000  0.5296510000000 1.0
C      1  0.4898680000000  0.5741450000000  0.5672070000000 1.0
C      1  0.4173960000000  0.5711320000000  0.5518250000000 1.0
C      1  0.5380530000000  0.5235230000000  0.3995010000000 1.0
C      1  0.5862250000000  0.4859780000000  0.4499240000000 1.0
C      1  0.5030660000000  0.5326380000000  0.6124260000000 1.0
C      1  0.4841900000000  0.5002110000000  0.6029920000000 1.0
C      1  0.4639350000000  0.4962380000000  0.4688790000000 1.0
C      1  0.4414320000000  0.5019130000000  0.3939900000000 1.0
C      1  0.5348440000000  0.5449580000000  0.5190480000000 1.0
C      1  0.4669810000000  0.4360520000000  0.4185640000000 1.0
C      1  0.5108740000000  0.4257280000000  0.5102460000000 1.0
C      1  0.5017340000000  0.5760490000000  0.4265930000000 1.0
C      1  0.5973770000000  0.4763840000000  0.4974540000000 1.0
C      1  0.5127430000000  0.5100800000000  0.5968670000000 1.0
C      1  0.4510940000000  0.4788940000000  0.5442490000000 1.0
C      1  0.4880210000000  0.5377180000000  0.4867620000000 1.0
C      1  0.5152150000000  0.4871130000000  0.3882420000000 1.0
C      1  0.4957670000000  0.4698090000000  0.5217730000000 1.0
C      1  0.5230840000000  0.5059890000000  0.4402820000000 1.0
C      1  0.5006810000000  0.3839210000000  0.4916010000000 1.0
C      1  0.5590920000000  0.5817090000000  0.5506170000000 1.0
C      1  0.3952160000000  0.5355080000000  0.5239970000000 1.0
C      1  0.4948310000000  0.4061650000000  0.4710720000000 1.0
C      1  0.4295890000000  0.4995470000000  0.5015910000000 1.0
C      1  0.5404640000000  0.4687200000000  0.4711250000000 1.0
C      1  0.4586850000000  0.5210520000000  0.4524930000000 1.0
C      1  0.4664290000000  0.4055730000000  0.4585790000000 1.0
C      1  0.4259560000000  0.4438100000000  0.5550500000000 1.0
C      1  0.5170350000000  0.4533980000000  0.4567510000000 1.0
C      1  0.5172790000000  0.4148280000000  0.4499280000000 1.0
C      1  0.5935990000000  0.5171400000000  0.5244850000000 1.0
C      1  0.4378670000000  0.5176390000000  0.5832900000000 1.0
C      1  0.4620770000000  0.4623380000000  0.4069180000000 1.0
C      1  0.5450480000000  0.5010520000000  0.4180010000000 1.0
C      1  0.5479500000000  0.4132030000000  0.5588210000000 1.0
C      1  0.4236890000000  0.4674260000000  0.4608810000000 1.0
C      1  0.5748520000000  0.5138830000000  0.4475650000000 1.0
C      1  0.4448470000000  0.5037600000000  0.5296170000000 1.0
C      1  0.4744550000000  0.5463440000000  0.4610630000000 1.0
C      1  0.5654010000000  0.4155140000000  0.4711460000000 1.0
C      1  0.5911340000000  0.5698970000000  0.5172490000000 1.0
C      1  0.4989860000000  0.4323270000000  0.5692320000000 1.0
C      1  0.5618950000000  0.5720870000000  0.4495790000000 1.0
C      1  0.5558840000000  0.6047550000000  0.5347840000000 1.0
C      1  0.4146820000000  0.5567320000000  0.4564620000000 1.0
C      1  0.4589100000000  0.5224050000000  0.4014960000000 1.0
C      1  0.4815050000000  0.5804970000000  0.5365180000000 1.0
C      1  0.5206990000000  0.4511210000000  0.5216300000000 1.0
C      1  0.5402790000000  0.5884240000000  0.4611920000000 1.0
C      1  0.6002940000000  0.4475090000000  0.4926040000000 1.0
C      1  0.4243770000000  0.4224050000000  0.4790430000000 1.0
C      1  0.3907440000000  0.5059550000000  0.5201780000000 1.0
C      1  0.4668180000000  0.3867190000000  0.5270000000000 1.0
C      1  0.5041380000000  0.5572080000000  0.5971280000000 1.0
C      1  0.5634810000000  0.4718600000000  0.5179350000000 1.0
C      1  0.4955020000000  0.4293210000000  0.4145630000000 1.0
C      1  0.4960460000000  0.5489450000000  0.4391060000000 1.0
C      1  0.6045140000000  0.4916130000000  0.4726490000000 1.0
C      1  0.4215840000000  0.4733900000000  0.5533780000000 1.0
C      1  0.4671460000000  0.4575740000000  0.5281380000000 1.0
C      1  0.4305240000000  0.4385140000000  0.4551230000000 1.0
C      1  0.5469960000000  0.3916100000000  0.5140120000000 1.0
C      1  0.5293690000000  0.5161360000000  0.5170660000000 1.0
C      1  0.4577240000000  0.5598400000000  0.5272610000000 1.0
C      1  0.4902920000000  0.4294190000000  0.4898240000000 1.0
C      1  0.4296350000000  0.5726630000000  0.4741130000000 1.0
C      1  0.5418250000000  0.4607800000000  0.5013730000000 1.0
C      1  0.4926150000000  0.5283020000000  0.5383850000000 1.0
C      1  0.5182210000000  0.6011770000000  0.5060680000000 1.0
C      1  0.4180280000000  0.5305020000000  0.4667330000000 1.0
C      1  0.4545130000000  0.5469090000000  0.5540840000000 1.0
C      1  0.5480620000000  0.5591950000000  0.4954840000000 1.0
C      1  0.5827420000000  0.4500230000000  0.5328850000000 1.0
C      1  0.4806370000000  0.4792320000000  0.4539990000000 1.0
C      1  0.4595000000000  0.5752650000000  0.4679690000000 1.0
C      1  0.5614520000000  0.4609960000000  0.5842910000000 1.0
C      1  0.4167820000000  0.4360920000000  0.5041560000000 1.0
C      1  0.4429150000000  0.4792490000000  0.4830670000000 1.0
C      1  0.4382300000000  0.4788420000000  0.4092530000000 1.0
C      1  0.4822910000000  0.3818150000000  0.5493780000000 1.0
C      1  0.5857990000000  0.5263830000000  0.4973780000000 1.0
C      1  0.4484300000000  0.4051330000000  0.4821670000000 1.0
C      1  0.4969820000000  0.4759450000000  0.4100930000000 1.0
C      1  0.5273960000000  0.5019240000000  0.5446430000000 1.0
C      1  0.4968880000000  0.5630450000000  0.4985110000000 1.0
C      1  0.5962600000000  0.5356650000000  0.4536510000000 1.0
C      1  0.4609200000000  0.6037600000000  0.5283980000000 1.0
C      1  0.6068810000000  0.5206050000000  0.4774170000000 1.0
C      1  0.5959930000000  0.4719880000000  0.5482240000000 1.0
C      1  0.5673350000000  0.4613620000000  0.4555330000000 1.0
C      1  0.5058500000000  0.4554940000000  0.5860450000000 1.0
C      1  0.4512690000000  0.5485850000000  0.3974810000000 1.0
C      1  0.5234040000000  0.5368320000000  0.4419080000000 1.0
C      1  0.4338110000000  0.5801880000000  0.5261710000000 1.0
C      1  0.5158840000000  0.5151260000000  0.3838410000000 1.0
C      1  0.4754020000000  0.5187150000000  0.4265690000000 1.0
C      1  0.5740840000000  0.4838010000000  0.5655420000000 1.0
C      1  0.4944400000000  0.4950110000000  0.4325710000000 1.0
C      1  0.5187520000000  0.4125380000000  0.5596960000000 1.0
C      1  0.4357670000000  0.5258030000000  0.4901070000000 1.0
C      1  0.5571410000000  0.5181310000000  0.4714700000000 1.0
C      1  0.4745740000000  0.5829570000000  0.4933050000000 1.0
C      1  0.5494980000000  0.4798680000000  0.5456320000000 1.0
C      1  0.4258190000000  0.4844600000000  0.4354070000000 1.0
C      1  0.3951310000000  0.5577460000000  0.5060920000000 1.0
C      1  0.5386800000000  0.4512290000000  0.4119800000000 1.0
C      1  0.4438170000000  0.4036220000000  0.5302740000000 1.0
C      1  0.3956100000000  0.5105860000000  0.4667140000000 1.0
C      1  0.5070470000000  0.5534730000000  0.5247230000000 1.0
C      1  0.4681460000000  0.5114550000000  0.5798060000000 1.0
C      1  0.5806520000000  0.4402550000000  0.4724590000000 1.0
C      1  0.5056990000000  0.4056470000000  0.4251370000000 1.0
C      1  0.4331100000000  0.5237860000000  0.5526060000000 1.0
C      1  0.5144240000000  0.5930660000000  0.4479140000000 1.0
C      1  0.5788880000000  0.5610420000000  0.5413000000000 1.0
C      1  0.4570460000000  0.4300460000000  0.4453790000000 1.0
C      1  0.4177610000000  0.5742690000000  0.5011880000000 1.0
C      1  0.4933680000000  0.4608970000000  0.4732540000000 1.0
C      1  0.5329190000000  0.4648850000000  0.5897070000000 1.0
C      1  0.5344600000000  0.5476010000000  0.4159430000000 1.0
C      1  0.4625860000000  0.4229030000000  0.5020360000000 1.0
C      1  0.4086350000000  0.5417760000000  0.5487020000000 1.0
C      1  0.4582430000000  0.4590500000000  0.5911680000000 1.0
C      1  0.5201860000000  0.5697770000000  0.4047050000000 1.0
C      1  0.5336730000000  0.5808560000000  0.5652210000000 1.0
C      1  0.5997670000000  0.4336310000000  0.5168470000000 1.0
C      1  0.4758990000000  0.3764160000000  0.5024990000000 1.0
C      1  0.5146000000000  0.6011280000000  0.5573400000000 1.0
C      1  0.5116770000000  0.4525650000000  0.4236050000000 1.0
C      1  0.4744630000000  0.5882130000000  0.4212240000000 1.0
C      1  0.5423630000000  0.5446040000000  0.4673990000000 1.0
C      1  0.5845640000000  0.5615120000000  0.4650650000000 1.0
C      1  0.4514730000000  0.4525540000000  0.5015800000000 1.0
C      1  0.5218320000000  0.5197850000000  0.5699750000000 1.0
C      1  0.4834050000000  0.4691500000000  0.5998390000000 1.0
C      1  0.4958580000000  0.6155820000000  0.4906790000000 1.0
C      1  0.5309760000000  0.5626680000000  0.5871210000000 1.0
C      1  0.5646880000000  0.5263340000000  0.5911450000000 1.0
C      1  0.4729870000000  0.4319980000000  0.5560430000000 1.0
C      1  0.4930020000000  0.6074570000000  0.4612680000000 1.0
C      1  0.5081500000000  0.3907920000000  0.5429630000000 1.0
C      1  0.5482910000000  0.4178720000000  0.4476800000000 1.0
C      1  0.3990210000000  0.4921630000000  0.4444350000000 1.0
C      1  0.5329640000000  0.4993070000000  0.4691720000000 1.0
C      1  0.5630970000000  0.4353790000000  0.5695270000000 1.0
C      1  0.5584260000000  0.4423630000000  0.4325810000000 1.0
C      1  0.4672600000000  0.5978420000000  0.4487130000000 1.0
C      1  0.4731650000000  0.4884990000000  0.5617240000000 1.0
C      1  0.4706270000000  0.5161070000000  0.5214710000000 1.0
C      1  0.5278450000000  0.6105650000000  0.5326170000000 1.0
C      1  0.5825980000000  0.5312230000000  0.5470810000000 1.0
C      1  0.4504110000000  0.4396240000000  0.5720050000000 1.0
C      1  0.5588770000000  0.3967940000000  0.5388320000000 1.0
C      1  0.4004710000000  0.4868870000000  0.5392620000000 1.0
C      1  0.5613640000000  0.3965450000000  0.4909610000000 1.0
C      1  0.4617300000000  0.5364560000000  0.5035220000000 1.0
C      1  0.3924900000000  0.4965780000000  0.4926820000000 1.0
C      1  0.5796030000000  0.5138410000000  0.5708920000000 1.0
END
