TITL C-951336-9012-562 -1.98560158790137e-06 125000 -441.253573972881 0 0 72 (C1) n - 1
REM
REM in /home/bkarasulu/work/CARBON/AIRSS/Generating-Clusters/EDIP-Nigel-Params/with-SteepDescent/Only-C1/SD-CG/HFTN-CG
REM
REM
REM
REM
REM
REM ./C.cell (11c1c37f851c82e70ff6c80c92926a4b)
REM
REM compiler GCC version 9.2.1 20190827 (Red Hat 9.2.1-1)
REM options -cpp -mtune=generic -march=x86-64 -g -O0 -fpre-include=/usr/include/finclude/math-vector-fortran.h
REM seed 123086355 -1540562137 -288196102 1011973287 -605413158 -186377134 -436744852 140400387 -772248494 1199608291 -1183085922 -434555301 1887799560 2087537464 -1505788695 -1336536356 -1214929734 231701865 -778228317 -1691661929 -1247768790 -1658668853 -733096517 1628947417 -430054507 1685289743 -916742247 867696458 -200165019 553723084 -1217763731 309209275 -1331642104
REM
CELL 1.54180   50.00000   50.00000   50.00000   90.00000   90.00000   90.00000
LATT -1
SFAC C  
C      1  0.5075430000000  0.4772080000000  0.4331200000000 1.0
C      1  0.4922520000000  0.5292190000000  0.5810210000000 1.0
C      1  0.5212430000000  0.4600900000000  0.4525460000000 1.0
C      1  0.4369830000000  0.4323980000000  0.5301910000000 1.0
C      1  0.5655840000000  0.5069600000000  0.4818690000000 1.0
C      1  0.5103980000000  0.4399530000000  0.5486230000000 1.0
C      1  0.5193720000000  0.4369160000000  0.4989180000000 1.0
C      1  0.5463840000000  0.5094330000000  0.4352570000000 1.0
C      1  0.5531530000000  0.5242450000000  0.5420090000000 1.0
C      1  0.4301440000000  0.4816020000000  0.5354630000000 1.0
C      1  0.4809220000000  0.4144120000000  0.5215430000000 1.0
C      1  0.5696960000000  0.5461150000000  0.4554160000000 1.0
C      1  0.5073640000000  0.4413860000000  0.4708310000000 1.0
C      1  0.4913260000000  0.5013530000000  0.4774930000000 1.0
C      1  0.4588040000000  0.4285490000000  0.5132620000000 1.0
C      1  0.5674760000000  0.4918810000000  0.5072260000000 1.0
C      1  0.4695060000000  0.5126090000000  0.4343660000000 1.0
C      1  0.4476680000000  0.5313960000000  0.4385550000000 1.0
C      1  0.5153950000000  0.5836470000000  0.4624520000000 1.0
C      1  0.5178700000000  0.5027220000000  0.4889820000000 1.0
C      1  0.5466440000000  0.4720570000000  0.5182410000000 1.0
C      1  0.5470150000000  0.4463620000000  0.5028440000000 1.0
C      1  0.5494410000000  0.4649800000000  0.4579450000000 1.0
C      1  0.4772830000000  0.5078130000000  0.5262210000000 1.0
C      1  0.4663100000000  0.4521390000000  0.4965680000000 1.0
C      1  0.4897430000000  0.5026060000000  0.5846370000000 1.0
C      1  0.5016250000000  0.5625270000000  0.5405790000000 1.0
C      1  0.5557660000000  0.5357780000000  0.4348080000000 1.0
C      1  0.5584850000000  0.4930940000000  0.4565770000000 1.0
C      1  0.5081030000000  0.5098070000000  0.5314560000000 1.0
C      1  0.5292410000000  0.5877260000000  0.5099960000000 1.0
C      1  0.5197780000000  0.5295490000000  0.5045870000000 1.0
C      1  0.5292020000000  0.5099920000000  0.5542960000000 1.0
C      1  0.5752710000000  0.5055540000000  0.5328470000000 1.0
C      1  0.4331000000000  0.5023430000000  0.5130860000000 1.0
C      1  0.4786860000000  0.4758030000000  0.4318030000000 1.0
C      1  0.4393670000000  0.5310250000000  0.5074770000000 1.0
C      1  0.4995360000000  0.5514610000000  0.4942620000000 1.0
C      1  0.5187220000000  0.5038520000000  0.4293810000000 1.0
C      1  0.4636190000000  0.4563960000000  0.4476060000000 1.0
C      1  0.4257770000000  0.5166870000000  0.4505100000000 1.0
C      1  0.4595700000000  0.5027250000000  0.5487180000000 1.0
C      1  0.5295370000000  0.5683690000000  0.5306310000000 1.0
C      1  0.4594710000000  0.4767980000000  0.5605010000000 1.0
C      1  0.4573930000000  0.5467940000000  0.5220550000000 1.0
C      1  0.5328860000000  0.4810200000000  0.5630780000000 1.0
C      1  0.4903680000000  0.4676010000000  0.5121830000000 1.0
C      1  0.4351330000000  0.5393650000000  0.4802830000000 1.0
C      1  0.4371730000000  0.4653990000000  0.4560510000000 1.0
C      1  0.5658550000000  0.5497040000000  0.5026690000000 1.0
C      1  0.4921360000000  0.5183530000000  0.4524220000000 1.0
C      1  0.4991500000000  0.5670690000000  0.4485430000000 1.0
C      1  0.5155650000000  0.5755540000000  0.4889840000000 1.0
C      1  0.4726680000000  0.4903550000000  0.5002330000000 1.0
C      1  0.4553860000000  0.5493510000000  0.4612850000000 1.0
C      1  0.4829020000000  0.5578000000000  0.5182660000000 1.0
C      1  0.5785290000000  0.4846000000000  0.5521640000000 1.0
C      1  0.5732580000000  0.5347700000000  0.4805220000000 1.0
C      1  0.4776490000000  0.4429930000000  0.4702710000000 1.0
C      1  0.4975120000000  0.5504520000000  0.5655480000000 1.0
C      1  0.4338620000000  0.4931000000000  0.4648280000000 1.0
C      1  0.4850560000000  0.4768250000000  0.5741690000000 1.0
C      1  0.4219220000000  0.4886100000000  0.4903760000000 1.0
C      1  0.5054840000000  0.4274150000000  0.5238710000000 1.0
C      1  0.4249690000000  0.4559760000000  0.5211590000000 1.0
C      1  0.5549030000000  0.4691970000000  0.5476050000000 1.0
C      1  0.5169760000000  0.4848910000000  0.5136400000000 1.0
C      1  0.5602560000000  0.4494450000000  0.4785260000000 1.0
C      1  0.4246820000000  0.4599360000000  0.4925030000000 1.0
C      1  0.5081690000000  0.4657990000000  0.5596160000000 1.0
C      1  0.4860920000000  0.5467850000000  0.4643220000000 1.0
C      1  0.5436940000000  0.5433020000000  0.5201060000000 1.0
END
