TITL C-951344-124-263 -2.40199564163575e-06 125000 -590.36933422765 0 0 95 (C1) n - 1
REM
REM in /home/bkarasulu/work/CARBON/AIRSS/Generating-Clusters/EDIP-Nigel-Params/with-SteepDescent/Only-C1/SD-CG/HFTN-CG
REM
REM
REM
REM
REM
REM ./C.cell (11c1c37f851c82e70ff6c80c92926a4b)
REM
REM compiler GCC version 9.2.1 20190827 (Red Hat 9.2.1-1)
REM options -cpp -mtune=generic -march=x86-64 -g -O0 -fpre-include=/usr/include/finclude/math-vector-fortran.h
REM seed 1582505663 -630918451 702435343 -417210254 -1429754200 -1572755029 2137953154 564867960 -278926746 212659952 1878197943 -689887907 -1366160921 2034179909 1214370506 1479295897 1689451573 53297409 1327893598 1357340243 959319814 1560022673 -632989375 -1803686647 1299249092 1484924133 -1889279934 -174225275 -910762751 -1185201651 659393126 339480901 -1468973685
REM
CELL 1.54180   50.00000   50.00000   50.00000   90.00000   90.00000   90.00000
LATT -1
SFAC C  
C      1  0.4620880000000  0.4685690000000  0.5784930000000 1.0
C      1  0.4899760000000  0.5063310000000  0.5856880000000 1.0
C      1  0.4245170000000  0.5000510000000  0.5466090000000 1.0
C      1  0.5167660000000  0.4708790000000  0.5383630000000 1.0
C      1  0.5433720000000  0.4756920000000  0.5522030000000 1.0
C      1  0.4998460000000  0.5422740000000  0.5509980000000 1.0
C      1  0.4933540000000  0.5258400000000  0.4145360000000 1.0
C      1  0.4466920000000  0.5146880000000  0.5585350000000 1.0
C      1  0.4965790000000  0.5699150000000  0.5163520000000 1.0
C      1  0.5485210000000  0.5741240000000  0.5096250000000 1.0
C      1  0.4492620000000  0.4686350000000  0.4129550000000 1.0
C      1  0.4594340000000  0.4483870000000  0.4678340000000 1.0
C      1  0.5653620000000  0.4522480000000  0.5211890000000 1.0
C      1  0.5665830000000  0.5423100000000  0.4980290000000 1.0
C      1  0.5414760000000  0.5574580000000  0.5717240000000 1.0
C      1  0.5357600000000  0.5104500000000  0.5200450000000 1.0
C      1  0.5500880000000  0.5599660000000  0.5339720000000 1.0
C      1  0.5445130000000  0.4914380000000  0.4447870000000 1.0
C      1  0.4557070000000  0.4935550000000  0.4230540000000 1.0
C      1  0.4817410000000  0.4959670000000  0.4830200000000 1.0
C      1  0.5196500000000  0.4334780000000  0.5066290000000 1.0
C      1  0.4243770000000  0.4903560000000  0.4884170000000 1.0
C      1  0.4929790000000  0.4268270000000  0.5503140000000 1.0
C      1  0.4671060000000  0.4352120000000  0.5386450000000 1.0
C      1  0.5469030000000  0.5111770000000  0.5785190000000 1.0
C      1  0.5055680000000  0.4793760000000  0.4899240000000 1.0
C      1  0.4505650000000  0.5454050000000  0.5002980000000 1.0
C      1  0.5570910000000  0.4383510000000  0.4721070000000 1.0
C      1  0.5118010000000  0.4577370000000  0.4486880000000 1.0
C      1  0.4313910000000  0.4720590000000  0.5377340000000 1.0
C      1  0.4941420000000  0.5191410000000  0.5302250000000 1.0
C      1  0.5281290000000  0.4939250000000  0.4199560000000 1.0
C      1  0.5832160000000  0.4736600000000  0.5123650000000 1.0
C      1  0.5423160000000  0.5266710000000  0.4976220000000 1.0
C      1  0.4940570000000  0.4324680000000  0.5778630000000 1.0
C      1  0.5554440000000  0.5034580000000  0.5418020000000 1.0
C      1  0.4123730000000  0.5151760000000  0.4999710000000 1.0
C      1  0.4900100000000  0.4898530000000  0.5447460000000 1.0
C      1  0.5409740000000  0.4443800000000  0.4453550000000 1.0
C      1  0.4156950000000  0.4554380000000  0.4542720000000 1.0
C      1  0.5055090000000  0.4819190000000  0.5798010000000 1.0
C      1  0.4487570000000  0.4531910000000  0.5560350000000 1.0
C      1  0.4886220000000  0.4580120000000  0.5876750000000 1.0
C      1  0.4519260000000  0.5427020000000  0.5512910000000 1.0
C      1  0.4453450000000  0.5340360000000  0.4458010000000 1.0
C      1  0.5878670000000  0.5225120000000  0.4586460000000 1.0
C      1  0.5204790000000  0.4872300000000  0.5140490000000 1.0
C      1  0.4113970000000  0.4818010000000  0.4626010000000 1.0
C      1  0.4887470000000  0.5502820000000  0.4318320000000 1.0
C      1  0.5232520000000  0.4795200000000  0.4656160000000 1.0
C      1  0.5152980000000  0.4400850000000  0.5350800000000 1.0
C      1  0.5249720000000  0.5599440000000  0.5485000000000 1.0
C      1  0.4355700000000  0.5115400000000  0.4329820000000 1.0
C      1  0.5220120000000  0.5219330000000  0.4151940000000 1.0
C      1  0.4626440000000  0.4989270000000  0.5774570000000 1.0
C      1  0.4674140000000  0.4782380000000  0.5251480000000 1.0
C      1  0.4598000000000  0.4975300000000  0.5029170000000 1.0
C      1  0.5107970000000  0.5868750000000  0.4783980000000 1.0
C      1  0.4488980000000  0.4477820000000  0.4954850000000 1.0
C      1  0.4251690000000  0.5384270000000  0.4910570000000 1.0
C      1  0.5828780000000  0.4996470000000  0.5279270000000 1.0
C      1  0.4719750000000  0.5389040000000  0.4549050000000 1.0
C      1  0.5155540000000  0.5215240000000  0.4587330000000 1.0
C      1  0.5950290000000  0.5062600000000  0.4812450000000 1.0
C      1  0.5188140000000  0.5537100000000  0.4372660000000 1.0
C      1  0.4717300000000  0.4506200000000  0.5133240000000 1.0
C      1  0.4396440000000  0.4426010000000  0.4478080000000 1.0
C      1  0.5782830000000  0.4592680000000  0.4641890000000 1.0
C      1  0.5020750000000  0.5324460000000  0.5793550000000 1.0
C      1  0.4285720000000  0.4667210000000  0.5068140000000 1.0
C      1  0.5814510000000  0.4805840000000  0.4843800000000 1.0
C      1  0.5628420000000  0.4672850000000  0.4393350000000 1.0
C      1  0.4969570000000  0.4499070000000  0.4943920000000 1.0
C      1  0.4730880000000  0.5528210000000  0.4826200000000 1.0
C      1  0.5039920000000  0.4773270000000  0.4255390000000 1.0
C      1  0.5261050000000  0.5638190000000  0.4660780000000 1.0
C      1  0.5510770000000  0.5261660000000  0.4472720000000 1.0
C      1  0.5893680000000  0.5215220000000  0.5068940000000 1.0
C      1  0.4758970000000  0.5587120000000  0.5464710000000 1.0
C      1  0.4471600000000  0.4430840000000  0.4209340000000 1.0
C      1  0.4097470000000  0.5136860000000  0.5275200000000 1.0
C      1  0.5218800000000  0.5864150000000  0.5066100000000 1.0
C      1  0.4817630000000  0.5812690000000  0.4824490000000 1.0
C      1  0.5314600000000  0.5343490000000  0.5858510000000 1.0
C      1  0.4117720000000  0.5006360000000  0.4421730000000 1.0
C      1  0.5606140000000  0.4526000000000  0.5491250000000 1.0
C      1  0.5205240000000  0.5389220000000  0.4825750000000 1.0
C      1  0.5463580000000  0.4438290000000  0.4993940000000 1.0
C      1  0.4888500000000  0.4427120000000  0.4659060000000 1.0
C      1  0.5358650000000  0.4839670000000  0.5798990000000 1.0
C      1  0.4863150000000  0.5122260000000  0.4580910000000 1.0
C      1  0.4838150000000  0.5003730000000  0.4294900000000 1.0
C      1  0.4619650000000  0.5240870000000  0.5187360000000 1.0
C      1  0.4964320000000  0.5428550000000  0.5001350000000 1.0
C      1  0.5702510000000  0.5437360000000  0.4675350000000 1.0
END
