TITL C-951341-1326-527 -4.19905931222347e-06 125000 -735.201483776638 0 0 118 (C1) n - 1
REM
REM in /home/bkarasulu/work/CARBON/AIRSS/Generating-Clusters/EDIP-Nigel-Params/with-SteepDescent/Only-C1/SD-CG/HFTN-CG
REM
REM
REM
REM
REM
REM ./C.cell (11c1c37f851c82e70ff6c80c92926a4b)
REM
REM compiler GCC version 9.2.1 20190827 (Red Hat 9.2.1-1)
REM options -cpp -mtune=generic -march=x86-64 -g -O0 -fpre-include=/usr/include/finclude/math-vector-fortran.h
REM seed 844291206 1133841180 -2073261994 567838679 -1267055493 -69762677 932072485 147035094 -1676749360 1782055706 -218777390 1368312868 194745375 1325011199 -1905173159 1228716854 816443706 -1671732639 1802743007 1373951098 -1522229434 -1612325914 -2066996845 -1261427431 1589698997 515644429 1684064552 -57658035 520048402 -426716936 260759493 421949573 -521983850
REM
CELL 1.54180   50.00000   50.00000   50.00000   90.00000   90.00000   90.00000
LATT -1
SFAC C  
C      1  0.5055290000000  0.4047410000000  0.5196630000000 1.0
C      1  0.6082170000000  0.5005150000000  0.5229090000000 1.0
C      1  0.5410010000000  0.5070390000000  0.5423840000000 1.0
C      1  0.5518740000000  0.5767060000000  0.4960300000000 1.0
C      1  0.5041370000000  0.5873570000000  0.5091930000000 1.0
C      1  0.5144650000000  0.5608680000000  0.5935000000000 1.0
C      1  0.4800270000000  0.4612860000000  0.5710040000000 1.0
C      1  0.4719800000000  0.4929590000000  0.4237090000000 1.0
C      1  0.5622820000000  0.4580820000000  0.5393790000000 1.0
C      1  0.5481190000000  0.5346060000000  0.5667670000000 1.0
C      1  0.4792700000000  0.4489600000000  0.4665930000000 1.0
C      1  0.4187610000000  0.4571260000000  0.5289610000000 1.0
C      1  0.4366990000000  0.4896710000000  0.4693250000000 1.0
C      1  0.4118730000000  0.4812610000000  0.4551610000000 1.0
C      1  0.4169620000000  0.5340960000000  0.5229130000000 1.0
C      1  0.5005050000000  0.5386070000000  0.4820160000000 1.0
C      1  0.5184420000000  0.5309660000000  0.5116590000000 1.0
C      1  0.4614660000000  0.5736350000000  0.4848940000000 1.0
C      1  0.5969200000000  0.5179590000000  0.5417130000000 1.0
C      1  0.5616620000000  0.5117770000000  0.5158270000000 1.0
C      1  0.5162540000000  0.5026630000000  0.4066860000000 1.0
C      1  0.5548460000000  0.4722130000000  0.4451080000000 1.0
C      1  0.4565570000000  0.4470070000000  0.5341210000000 1.0
C      1  0.4603600000000  0.4135040000000  0.4946010000000 1.0
C      1  0.5596710000000  0.5611730000000  0.5180630000000 1.0
C      1  0.5071190000000  0.4564730000000  0.4285350000000 1.0
C      1  0.5219700000000  0.4708220000000  0.5152940000000 1.0
C      1  0.4819660000000  0.5124360000000  0.5477170000000 1.0
C      1  0.5808160000000  0.5010410000000  0.5608500000000 1.0
C      1  0.5509480000000  0.4286970000000  0.5394610000000 1.0
C      1  0.4741100000000  0.5573680000000  0.5298350000000 1.0
C      1  0.4525530000000  0.4740170000000  0.4128560000000 1.0
C      1  0.4996360000000  0.5272230000000  0.4081620000000 1.0
C      1  0.4311320000000  0.4820680000000  0.5209620000000 1.0
C      1  0.5194530000000  0.5638060000000  0.4347740000000 1.0
C      1  0.5552640000000  0.4665270000000  0.5845050000000 1.0
C      1  0.4555610000000  0.5475290000000  0.4690810000000 1.0
C      1  0.5766710000000  0.4708190000000  0.5635430000000 1.0
C      1  0.4812290000000  0.5264310000000  0.5754520000000 1.0
C      1  0.5718550000000  0.4688720000000  0.4678590000000 1.0
C      1  0.4537280000000  0.5018420000000  0.5880900000000 1.0
C      1  0.4999930000000  0.4837110000000  0.4209760000000 1.0
C      1  0.4465960000000  0.4210970000000  0.5195830000000 1.0
C      1  0.4671010000000  0.5506030000000  0.4401950000000 1.0
C      1  0.4725750000000  0.5260660000000  0.4791340000000 1.0
C      1  0.4954540000000  0.5524420000000  0.5746520000000 1.0
C      1  0.5475020000000  0.4304080000000  0.4890470000000 1.0
C      1  0.4509550000000  0.4374490000000  0.4782990000000 1.0
C      1  0.5621780000000  0.4954940000000  0.4283540000000 1.0
C      1  0.4357340000000  0.5797460000000  0.4986400000000 1.0
C      1  0.5404080000000  0.5242590000000  0.4688740000000 1.0
C      1  0.4207430000000  0.5554080000000  0.4993280000000 1.0
C      1  0.5787100000000  0.5375770000000  0.5136870000000 1.0
C      1  0.4255950000000  0.5409890000000  0.4734550000000 1.0
C      1  0.4680210000000  0.5797270000000  0.4375710000000 1.0
C      1  0.4202810000000  0.4335650000000  0.5120930000000 1.0
C      1  0.5049820000000  0.5694420000000  0.4688410000000 1.0
C      1  0.5441150000000  0.4932040000000  0.5928990000000 1.0
C      1  0.5575930000000  0.4582820000000  0.4914790000000 1.0
C      1  0.5275910000000  0.4299550000000  0.5564660000000 1.0
C      1  0.5855750000000  0.5404330000000  0.4824560000000 1.0
C      1  0.5154170000000  0.5777030000000  0.5339830000000 1.0
C      1  0.5439670000000  0.5030210000000  0.4089420000000 1.0
C      1  0.4135290000000  0.5062610000000  0.5116570000000 1.0
C      1  0.4909040000000  0.5094400000000  0.5970820000000 1.0
C      1  0.4567590000000  0.4731450000000  0.5822960000000 1.0
C      1  0.5051930000000  0.4656300000000  0.5841160000000 1.0
C      1  0.5395030000000  0.5136100000000  0.4964960000000 1.0
C      1  0.4815400000000  0.5705000000000  0.5061990000000 1.0
C      1  0.4192780000000  0.4379770000000  0.4816000000000 1.0
C      1  0.4905750000000  0.4090540000000  0.4941030000000 1.0
C      1  0.4374950000000  0.5313030000000  0.5450830000000 1.0
C      1  0.4769380000000  0.4370830000000  0.5548110000000 1.0
C      1  0.4923630000000  0.5672470000000  0.5498520000000 1.0
C      1  0.4592470000000  0.4486310000000  0.4221400000000 1.0
C      1  0.5133170000000  0.4925560000000  0.5900330000000 1.0
C      1  0.5100480000000  0.5121040000000  0.5339050000000 1.0
C      1  0.4639940000000  0.5140090000000  0.5043810000000 1.0
C      1  0.4648840000000  0.4977600000000  0.4551110000000 1.0
C      1  0.4502140000000  0.5338760000000  0.4205670000000 1.0
C      1  0.5879440000000  0.4908340000000  0.4790850000000 1.0
C      1  0.5268370000000  0.4326960000000  0.4684240000000 1.0
C      1  0.4037350000000  0.4584360000000  0.4695480000000 1.0
C      1  0.4786820000000  0.5867630000000  0.4629840000000 1.0
C      1  0.4083850000000  0.5169220000000  0.4489900000000 1.0
C      1  0.5446500000000  0.5684530000000  0.4501810000000 1.0
C      1  0.5028760000000  0.4289230000000  0.5388430000000 1.0
C      1  0.4826830000000  0.4796850000000  0.4719050000000 1.0
C      1  0.4782820000000  0.4631830000000  0.5191200000000 1.0
C      1  0.5310540000000  0.4529880000000  0.4461700000000 1.0
C      1  0.4705520000000  0.4838780000000  0.4998000000000 1.0
C      1  0.4638940000000  0.5295410000000  0.5306440000000 1.0
C      1  0.5757450000000  0.4632640000000  0.5143230000000 1.0
C      1  0.5793260000000  0.5168850000000  0.4385200000000 1.0
C      1  0.5604900000000  0.5428130000000  0.4593490000000 1.0
C      1  0.5296830000000  0.4855560000000  0.4910570000000 1.0
C      1  0.4547180000000  0.4880090000000  0.5465070000000 1.0
C      1  0.4282100000000  0.4882540000000  0.4144820000000 1.0
C      1  0.5295590000000  0.4550500000000  0.5720260000000 1.0
C      1  0.5008520000000  0.4351480000000  0.4839700000000 1.0
C      1  0.5337360000000  0.5534790000000  0.5295450000000 1.0
C      1  0.5006180000000  0.5402180000000  0.4354690000000 1.0
C      1  0.4276730000000  0.5142540000000  0.4264740000000 1.0
C      1  0.5386300000000  0.5542320000000  0.5836950000000 1.0
C      1  0.5346490000000  0.5820220000000  0.4744460000000 1.0
C      1  0.5622750000000  0.5135210000000  0.5798840000000 1.0
C      1  0.5369200000000  0.4757160000000  0.5401580000000 1.0
C      1  0.5094500000000  0.4908750000000  0.4695540000000 1.0
C      1  0.4822770000000  0.4427870000000  0.4374950000000 1.0
C      1  0.5123240000000  0.5203500000000  0.4598420000000 1.0
C      1  0.5385740000000  0.4171760000000  0.5146300000000 1.0
C      1  0.5936170000000  0.5158740000000  0.4647640000000 1.0
C      1  0.4710000000000  0.5180250000000  0.4071090000000 1.0
C      1  0.4244710000000  0.5125200000000  0.4841660000000 1.0
C      1  0.5027880000000  0.4492480000000  0.5138290000000 1.0
C      1  0.4435310000000  0.4723800000000  0.4937060000000 1.0
C      1  0.5844640000000  0.4910620000000  0.5086560000000 1.0
C      1  0.4360900000000  0.5074630000000  0.5631120000000 1.0
END
