TITL C-950533-5798-203 -3.08496762231695e-07 125000 -1071.94831091636 0 0 168 (C1) n - 1
REM
REM in /home/bkarasulu/work/CARBON/AIRSS/Generating-Clusters/EDIP-Nigel-Params/with-SteepDescent/Only-C1/SD-CG/HFTN-CG
REM
REM
REM
REM
REM
REM ./C.cell (11c1c37f851c82e70ff6c80c92926a4b)
REM
REM compiler GCC version 9.2.1 20190827 (Red Hat 9.2.1-1)
REM options -cpp -mtune=generic -march=x86-64 -g -O0 -fpre-include=/usr/include/finclude/math-vector-fortran.h
REM seed -864221530 -701187412 774063119 -472635954 1427261265 -1989548875 -69891846 -354471899 -1476062382 184012430 -1924040734 -1815554436 -1692476947 -1171844767 1889916301 -357158099 -1621326092 -1027459750 -1069185723 -434659170 1290100153 2078667920 -277163145 1513356600 -1373758029 1489805550 1029812995 -414763569 1714468147 -1631905318 230099539 -149094789 1924881620
REM
CELL 1.54180   50.00000   50.00000   50.00000   90.00000   90.00000   90.00000
LATT -1
SFAC C  
C      1  0.4275390000000  0.5684860000000  0.5167550000000 1.0
C      1  0.5805570000000  0.5283320000000  0.4664600000000 1.0
C      1  0.6124250000000  0.4640800000000  0.4879130000000 1.0
C      1  0.5269820000000  0.4048550000000  0.4508550000000 1.0
C      1  0.5199740000000  0.5402080000000  0.4183980000000 1.0
C      1  0.5223040000000  0.4408340000000  0.4655530000000 1.0
C      1  0.5063010000000  0.4906270000000  0.5943470000000 1.0
C      1  0.4542260000000  0.4533640000000  0.4062240000000 1.0
C      1  0.5110440000000  0.4508610000000  0.4188320000000 1.0
C      1  0.4804210000000  0.5048020000000  0.5918490000000 1.0
C      1  0.5696420000000  0.4960560000000  0.4104610000000 1.0
C      1  0.4143660000000  0.4627750000000  0.4574540000000 1.0
C      1  0.4278980000000  0.4611710000000  0.5055830000000 1.0
C      1  0.5466620000000  0.5399320000000  0.4333240000000 1.0
C      1  0.5107900000000  0.4198270000000  0.5571240000000 1.0
C      1  0.4656640000000  0.5295480000000  0.4954120000000 1.0
C      1  0.5318380000000  0.5918440000000  0.4516370000000 1.0
C      1  0.4544300000000  0.4684020000000  0.5703580000000 1.0
C      1  0.4449900000000  0.4136370000000  0.4987010000000 1.0
C      1  0.4164470000000  0.5119250000000  0.4754290000000 1.0
C      1  0.4225130000000  0.5516440000000  0.4502500000000 1.0
C      1  0.4200780000000  0.5407580000000  0.4777610000000 1.0
C      1  0.3984420000000  0.5295020000000  0.5479990000000 1.0
C      1  0.6037370000000  0.4834510000000  0.5265250000000 1.0
C      1  0.5978710000000  0.5446520000000  0.5103860000000 1.0
C      1  0.4677070000000  0.6050880000000  0.4696920000000 1.0
C      1  0.5299790000000  0.6096620000000  0.5180040000000 1.0
C      1  0.5039150000000  0.4605280000000  0.4478500000000 1.0
C      1  0.4992480000000  0.4716150000000  0.4006620000000 1.0
C      1  0.5008630000000  0.5523280000000  0.5932450000000 1.0
C      1  0.4815580000000  0.4530510000000  0.4855770000000 1.0
C      1  0.5130830000000  0.4283720000000  0.5127660000000 1.0
C      1  0.4525260000000  0.4344590000000  0.4488590000000 1.0
C      1  0.5141790000000  0.5576260000000  0.5211200000000 1.0
C      1  0.5855430000000  0.4708040000000  0.4448260000000 1.0
C      1  0.5759300000000  0.5764040000000  0.4890040000000 1.0
C      1  0.5406310000000  0.4922980000000  0.4582990000000 1.0
C      1  0.4513530000000  0.5179430000000  0.4297280000000 1.0
C      1  0.5446170000000  0.5179170000000  0.5103520000000 1.0
C      1  0.4948500000000  0.5512100000000  0.5450680000000 1.0
C      1  0.5116500000000  0.4892390000000  0.4523490000000 1.0
C      1  0.4829760000000  0.5260630000000  0.3930950000000 1.0
C      1  0.4247200000000  0.5730070000000  0.5465810000000 1.0
C      1  0.4375320000000  0.5867760000000  0.4963350000000 1.0
C      1  0.5276140000000  0.5395040000000  0.5956890000000 1.0
C      1  0.4938950000000  0.5166640000000  0.4929720000000 1.0
C      1  0.4022020000000  0.4770260000000  0.5115790000000 1.0
C      1  0.4267080000000  0.4563570000000  0.4154650000000 1.0
C      1  0.4733410000000  0.4756930000000  0.4997900000000 1.0
C      1  0.4097950000000  0.5499120000000  0.5037370000000 1.0
C      1  0.5039810000000  0.5796930000000  0.4425450000000 1.0
C      1  0.5530040000000  0.4442920000000  0.4675240000000 1.0
C      1  0.4787820000000  0.5603930000000  0.4837850000000 1.0
C      1  0.5904780000000  0.5213520000000  0.4954880000000 1.0
C      1  0.5725730000000  0.4171840000000  0.5060610000000 1.0
C      1  0.5399090000000  0.5026560000000  0.5360820000000 1.0
C      1  0.4479810000000  0.5652200000000  0.4461060000000 1.0
C      1  0.4367050000000  0.4694540000000  0.4762370000000 1.0
C      1  0.4073860000000  0.4804300000000  0.5552770000000 1.0
C      1  0.4558940000000  0.6064820000000  0.5062560000000 1.0
C      1  0.4934400000000  0.4242110000000  0.4227870000000 1.0
C      1  0.5638480000000  0.4169400000000  0.4774810000000 1.0
C      1  0.5520820000000  0.5208210000000  0.4554970000000 1.0
C      1  0.4565570000000  0.5777360000000  0.4724690000000 1.0
C      1  0.4782360000000  0.5532590000000  0.4063100000000 1.0
C      1  0.4054820000000  0.5081330000000  0.4473470000000 1.0
C      1  0.5464550000000  0.4815760000000  0.4033130000000 1.0
C      1  0.5190790000000  0.5344580000000  0.5009570000000 1.0
C      1  0.4292830000000  0.4330750000000  0.5447460000000 1.0
C      1  0.5440040000000  0.3969150000000  0.4719150000000 1.0
C      1  0.4453260000000  0.5012430000000  0.4780840000000 1.0
C      1  0.4958760000000  0.4910570000000  0.5086140000000 1.0
C      1  0.5136490000000  0.4637250000000  0.5797350000000 1.0
C      1  0.4556150000000  0.5347940000000  0.5234840000000 1.0
C      1  0.4925460000000  0.5349990000000  0.4453560000000 1.0
C      1  0.5282900000000  0.5106360000000  0.5870160000000 1.0
C      1  0.5760520000000  0.4454620000000  0.5162330000000 1.0
C      1  0.4272230000000  0.4597090000000  0.5604410000000 1.0
C      1  0.4606620000000  0.3926770000000  0.5131310000000 1.0
C      1  0.5102750000000  0.4482540000000  0.4915540000000 1.0
C      1  0.5162550000000  0.6136230000000  0.4683170000000 1.0
C      1  0.4978670000000  0.4371980000000  0.5809950000000 1.0
C      1  0.5104820000000  0.4677150000000  0.5481760000000 1.0
C      1  0.5417020000000  0.3738040000000  0.4876810000000 1.0
C      1  0.5235390000000  0.5884030000000  0.5650890000000 1.0
C      1  0.5247970000000  0.5489630000000  0.4759850000000 1.0
C      1  0.4803660000000  0.4010180000000  0.4694260000000 1.0
C      1  0.4923290000000  0.4907440000000  0.5393130000000 1.0
C      1  0.5643350000000  0.4597800000000  0.5699600000000 1.0
C      1  0.4075940000000  0.4819880000000  0.4370710000000 1.0
C      1  0.4993490000000  0.5708530000000  0.5697200000000 1.0
C      1  0.4538940000000  0.4927700000000  0.5882810000000 1.0
C      1  0.5342510000000  0.3837260000000  0.5130720000000 1.0
C      1  0.5329480000000  0.4743680000000  0.5308140000000 1.0
C      1  0.6044870000000  0.4566770000000  0.5156810000000 1.0
C      1  0.4709400000000  0.4410240000000  0.5306370000000 1.0
C      1  0.4998590000000  0.5564830000000  0.4626380000000 1.0
C      1  0.4517110000000  0.5680570000000  0.5617770000000 1.0
C      1  0.4854370000000  0.3885340000000  0.4964700000000 1.0
C      1  0.4535940000000  0.4123610000000  0.4694970000000 1.0
C      1  0.4960990000000  0.5780310000000  0.5041950000000 1.0
C      1  0.4553130000000  0.5139370000000  0.5459070000000 1.0
C      1  0.5238210000000  0.5161550000000  0.5578410000000 1.0
C      1  0.4778590000000  0.5340340000000  0.5914870000000 1.0
C      1  0.5044990000000  0.5663660000000  0.4145890000000 1.0
C      1  0.5460060000000  0.5642280000000  0.5302130000000 1.0
C      1  0.4938310000000  0.5203970000000  0.5533020000000 1.0
C      1  0.5412070000000  0.4568890000000  0.5853670000000 1.0
C      1  0.5908680000000  0.4946570000000  0.4290520000000 1.0
C      1  0.5590480000000  0.5653740000000  0.4426660000000 1.0
C      1  0.4247160000000  0.4416020000000  0.4408950000000 1.0
C      1  0.5004370000000  0.4408050000000  0.5364400000000 1.0
C      1  0.4744490000000  0.5892860000000  0.5691290000000 1.0
C      1  0.5975760000000  0.5165060000000  0.4459960000000 1.0
C      1  0.5447820000000  0.4874740000000  0.4883580000000 1.0
C      1  0.5890380000000  0.4727860000000  0.4739830000000 1.0
C      1  0.5125850000000  0.6025720000000  0.4960230000000 1.0
C      1  0.5151660000000  0.6074260000000  0.5440670000000 1.0
C      1  0.4005910000000  0.5037870000000  0.5002400000000 1.0
C      1  0.5580980000000  0.5851860000000  0.5117970000000 1.0
C      1  0.5424590000000  0.4557420000000  0.4173300000000 1.0
C      1  0.6084460000000  0.4993980000000  0.5028660000000 1.0
C      1  0.4579840000000  0.4253800000000  0.5508270000000 1.0
C      1  0.4904330000000  0.6074130000000  0.4523980000000 1.0
C      1  0.4514180000000  0.5438180000000  0.5813040000000 1.0
C      1  0.5471690000000  0.5726120000000  0.5596190000000 1.0
C      1  0.5398820000000  0.5742840000000  0.4757490000000 1.0
C      1  0.4401010000000  0.5161520000000  0.5723550000000 1.0
C      1  0.4217320000000  0.5274820000000  0.4322100000000 1.0
C      1  0.4623020000000  0.5055210000000  0.4034450000000 1.0
C      1  0.5470650000000  0.5541710000000  0.5809930000000 1.0
C      1  0.4847440000000  0.6049730000000  0.5448760000000 1.0
C      1  0.4668320000000  0.5597550000000  0.5359850000000 1.0
C      1  0.5793970000000  0.5593840000000  0.4642140000000 1.0
C      1  0.4631200000000  0.4839300000000  0.5440610000000 1.0
C      1  0.5914300000000  0.5283550000000  0.5569710000000 1.0
C      1  0.5629880000000  0.5388400000000  0.5255320000000 1.0
C      1  0.4695680000000  0.4588450000000  0.4590970000000 1.0
C      1  0.5212890000000  0.4749270000000  0.5029400000000 1.0
C      1  0.3880840000000  0.4741310000000  0.5359970000000 1.0
C      1  0.4908190000000  0.5092190000000  0.4611060000000 1.0
C      1  0.4717640000000  0.4772990000000  0.4066750000000 1.0
C      1  0.4109340000000  0.5084930000000  0.5648680000000 1.0
C      1  0.5615330000000  0.4442630000000  0.5449140000000 1.0
C      1  0.5560690000000  0.4652830000000  0.4435630000000 1.0
C      1  0.5981530000000  0.5475040000000  0.5386180000000 1.0
C      1  0.5545020000000  0.5002390000000  0.5914410000000 1.0
C      1  0.4621460000000  0.5015570000000  0.4536010000000 1.0
C      1  0.4028860000000  0.5262680000000  0.5188810000000 1.0
C      1  0.5646640000000  0.4637280000000  0.4890470000000 1.0
C      1  0.4565500000000  0.4660580000000  0.5209590000000 1.0
C      1  0.5954760000000  0.5022270000000  0.5656960000000 1.0
C      1  0.4742400000000  0.5888360000000  0.5220040000000 1.0
C      1  0.4254790000000  0.4319230000000  0.5136930000000 1.0
C      1  0.5193150000000  0.4925210000000  0.4020260000000 1.0
C      1  0.4674350000000  0.3973100000000  0.5425380000000 1.0
C      1  0.5076880000000  0.3978690000000  0.5155170000000 1.0
C      1  0.5122290000000  0.5202010000000  0.3972930000000 1.0
C      1  0.4663910000000  0.5440980000000  0.4323460000000 1.0
C      1  0.4686840000000  0.4401890000000  0.5761320000000 1.0
C      1  0.4972180000000  0.3951130000000  0.5445570000000 1.0
C      1  0.4993920000000  0.4081050000000  0.4472590000000 1.0
C      1  0.5716030000000  0.4877940000000  0.5735380000000 1.0
C      1  0.4049270000000  0.5556350000000  0.5562930000000 1.0
C      1  0.5539500000000  0.4025250000000  0.5253600000000 1.0
C      1  0.6150790000000  0.4880960000000  0.5515860000000 1.0
C      1  0.5441630000000  0.4200730000000  0.5480560000000 1.0
C      1  0.4643160000000  0.4289180000000  0.4214590000000 1.0
END
