TITL C-950528-5794-6 2.75755989382348e-06 125000 -572.370054443198 0 0 94 (C1) n - 1
REM
REM in /home/bkarasulu/work/CARBON/AIRSS/Generating-Clusters/EDIP-Nigel-Params/with-SteepDescent/Only-C1/SD-CG/HFTN-CG
REM
REM
REM
REM
REM
REM ./C.cell (11c1c37f851c82e70ff6c80c92926a4b)
REM
REM compiler GCC version 9.2.1 20190827 (Red Hat 9.2.1-1)
REM options -cpp -mtune=generic -march=x86-64 -g -O0 -fpre-include=/usr/include/finclude/math-vector-fortran.h
REM seed -877576100 21825879 -910764504 -1749733519 904251242 -877563577 129197678 133319431 1469450404 -497116746 262343742 -2104654557 -363192987 -561742477 627757089 637368341 -258647655 -1342260426 337065523 1955613805 783652444 1020987025 1777400797 -487364653 -914232867 -1109459579 -1712403358 146159887 -1412001751 1708313547 1054228394 -1974796059 1844512303
REM
CELL 1.54180   50.00000   50.00000   50.00000   90.00000   90.00000   90.00000
LATT -1
SFAC C  
C      1  0.5376150000000  0.4623500000000  0.5631370000000 1.0
C      1  0.4766230000000  0.4797070000000  0.4928490000000 1.0
C      1  0.5336830000000  0.5236380000000  0.4264520000000 1.0
C      1  0.5243090000000  0.5198890000000  0.5207230000000 1.0
C      1  0.5025060000000  0.4458250000000  0.4589460000000 1.0
C      1  0.4368350000000  0.4344740000000  0.4797320000000 1.0
C      1  0.4599990000000  0.4577310000000  0.4366870000000 1.0
C      1  0.4477180000000  0.4414340000000  0.5251940000000 1.0
C      1  0.4632710000000  0.5563190000000  0.5587510000000 1.0
C      1  0.4520880000000  0.4367860000000  0.4554070000000 1.0
C      1  0.5542910000000  0.5615670000000  0.4863050000000 1.0
C      1  0.4564720000000  0.5274690000000  0.5548700000000 1.0
C      1  0.5472940000000  0.4491470000000  0.5399460000000 1.0
C      1  0.4877940000000  0.4966570000000  0.5776170000000 1.0
C      1  0.4991320000000  0.4833620000000  0.4194770000000 1.0
C      1  0.5442840000000  0.5031500000000  0.4779460000000 1.0
C      1  0.4573780000000  0.4154160000000  0.5142620000000 1.0
C      1  0.5052020000000  0.4722490000000  0.4994710000000 1.0
C      1  0.4312090000000  0.5133000000000  0.4534730000000 1.0
C      1  0.5210390000000  0.4656310000000  0.4739900000000 1.0
C      1  0.4256930000000  0.5599560000000  0.5190510000000 1.0
C      1  0.4571530000000  0.4876680000000  0.4437440000000 1.0
C      1  0.5254910000000  0.4945300000000  0.4321980000000 1.0
C      1  0.4826990000000  0.4954630000000  0.5396180000000 1.0
C      1  0.5376100000000  0.5779040000000  0.5044770000000 1.0
C      1  0.5757360000000  0.4783690000000  0.4291770000000 1.0
C      1  0.4370490000000  0.5022680000000  0.4803900000000 1.0
C      1  0.5134560000000  0.5019460000000  0.5421150000000 1.0
C      1  0.4898430000000  0.4565710000000  0.4321790000000 1.0
C      1  0.4427530000000  0.4834140000000  0.5645480000000 1.0
C      1  0.4985330000000  0.5294470000000  0.5047040000000 1.0
C      1  0.5154840000000  0.4205380000000  0.4558670000000 1.0
C      1  0.4371540000000  0.5418180000000  0.4507590000000 1.0
C      1  0.5099340000000  0.5620870000000  0.5541520000000 1.0
C      1  0.4418700000000  0.4546880000000  0.5003320000000 1.0
C      1  0.5107080000000  0.4535690000000  0.5703510000000 1.0
C      1  0.5755520000000  0.5296020000000  0.5324630000000 1.0
C      1  0.5079180000000  0.5273710000000  0.4761230000000 1.0
C      1  0.5207840000000  0.4940990000000  0.4616000000000 1.0
C      1  0.4463720000000  0.5909330000000  0.4913320000000 1.0
C      1  0.5152860000000  0.5521350000000  0.4592190000000 1.0
C      1  0.4615170000000  0.5493000000000  0.4367830000000 1.0
C      1  0.4646720000000  0.4572970000000  0.5446850000000 1.0
C      1  0.4333800000000  0.5183430000000  0.5394070000000 1.0
C      1  0.4604210000000  0.5061740000000  0.5751040000000 1.0
C      1  0.5901450000000  0.4962010000000  0.4729540000000 1.0
C      1  0.5685380000000  0.5184240000000  0.4715540000000 1.0
C      1  0.4943020000000  0.5697630000000  0.4738970000000 1.0
C      1  0.4438340000000  0.5762470000000  0.4669950000000 1.0
C      1  0.4528110000000  0.4554420000000  0.5729340000000 1.0
C      1  0.4400020000000  0.4090400000000  0.4922690000000 1.0
C      1  0.4773190000000  0.4912920000000  0.4656790000000 1.0
C      1  0.4958010000000  0.4512470000000  0.5442160000000 1.0
C      1  0.4370110000000  0.4898920000000  0.5327660000000 1.0
C      1  0.5396210000000  0.4988990000000  0.5056580000000 1.0
C      1  0.4336060000000  0.4818810000000  0.5036120000000 1.0
C      1  0.5663180000000  0.5122480000000  0.5541000000000 1.0
C      1  0.4750540000000  0.5021600000000  0.4225100000000 1.0
C      1  0.5956200000000  0.4835570000000  0.4476220000000 1.0
C      1  0.5040520000000  0.4276160000000  0.5270480000000 1.0
C      1  0.5723590000000  0.5391270000000  0.4950340000000 1.0
C      1  0.5789660000000  0.4753960000000  0.4930290000000 1.0
C      1  0.4691430000000  0.5726770000000  0.4535970000000 1.0
C      1  0.4940460000000  0.4702460000000  0.5886280000000 1.0
C      1  0.4841410000000  0.5185250000000  0.4638630000000 1.0
C      1  0.5649920000000  0.4902630000000  0.5153210000000 1.0
C      1  0.4673630000000  0.5494800000000  0.4903520000000 1.0
C      1  0.5672820000000  0.4578640000000  0.4457590000000 1.0
C      1  0.4693500000000  0.5727430000000  0.5338180000000 1.0
C      1  0.5565030000000  0.4606030000000  0.4732320000000 1.0
C      1  0.5489240000000  0.5411930000000  0.5254570000000 1.0
C      1  0.5454760000000  0.4222850000000  0.4979190000000 1.0
C      1  0.4850690000000  0.4213050000000  0.5040820000000 1.0
C      1  0.4275320000000  0.5325240000000  0.5156390000000 1.0
C      1  0.5320520000000  0.4339740000000  0.5206120000000 1.0
C      1  0.5444670000000  0.5580500000000  0.4594200000000 1.0
C      1  0.5194480000000  0.5375730000000  0.5675270000000 1.0
C      1  0.4497540000000  0.5231830000000  0.4983040000000 1.0
C      1  0.4968820000000  0.5668480000000  0.5275670000000 1.0
C      1  0.4797260000000  0.4435950000000  0.4811070000000 1.0
C      1  0.5125050000000  0.4728750000000  0.5291000000000 1.0
C      1  0.5080050000000  0.5778470000000  0.5021380000000 1.0
C      1  0.5303710000000  0.4126720000000  0.4766550000000 1.0
C      1  0.5641100000000  0.4837510000000  0.5444540000000 1.0
C      1  0.5436100000000  0.5240170000000  0.5656950000000 1.0
C      1  0.4703150000000  0.4562850000000  0.5946820000000 1.0
C      1  0.4516830000000  0.5692750000000  0.5100430000000 1.0
C      1  0.5672010000000  0.4384980000000  0.4895530000000 1.0
C      1  0.4881100000000  0.5595160000000  0.5736290000000 1.0
C      1  0.5571580000000  0.5346780000000  0.4454340000000 1.0
C      1  0.4827230000000  0.5282050000000  0.4362820000000 1.0
C      1  0.5095160000000  0.5416340000000  0.4311940000000 1.0
C      1  0.4749980000000  0.5072630000000  0.5109360000000 1.0
C      1  0.5463790000000  0.5705230000000  0.5305130000000 1.0
END
