TITL C-951338-5626-181 -2.84804970412725e-06 125000 -455.926249988982 0 0 76 (C1) n - 1
REM
REM in /home/bkarasulu/work/CARBON/AIRSS/Generating-Clusters/EDIP-Nigel-Params/with-SteepDescent/Only-C1/SD-CG/HFTN-CG
REM
REM
REM
REM
REM
REM ./C.cell (11c1c37f851c82e70ff6c80c92926a4b)
REM
REM compiler GCC version 9.2.1 20190827 (Red Hat 9.2.1-1)
REM options -cpp -mtune=generic -march=x86-64 -g -O0 -fpre-include=/usr/include/finclude/math-vector-fortran.h
REM seed -107112260 414485846 1196420228 -1489993036 748313163 1093427676 -1988720479 -902980646 1438746392 -1879551390 -1350706403 340088273 509389327 637841213 1521161127 1874153755 -1960259028 -240856030 1683187246 -1123298222 -409895032 -2073247630 661675219 840455710 1396162143 1574379679 -2094646672 1146468143 2024386434 1074790734 -1976295488 1440629076 -365482174
REM
CELL 1.54180   50.00000   50.00000   50.00000   90.00000   90.00000   90.00000
LATT -1
SFAC C  
C      1  0.5002900000000  0.4967460000000  0.4472900000000 1.0
C      1  0.4861580000000  0.5464220000000  0.4727630000000 1.0
C      1  0.4740040000000  0.5128010000000  0.5685770000000 1.0
C      1  0.4537680000000  0.4799250000000  0.4306000000000 1.0
C      1  0.5004310000000  0.5780390000000  0.5308450000000 1.0
C      1  0.4448470000000  0.5136790000000  0.5440720000000 1.0
C      1  0.4716360000000  0.5787700000000  0.5200060000000 1.0
C      1  0.4439050000000  0.4686590000000  0.5443590000000 1.0
C      1  0.4863010000000  0.4870640000000  0.5784540000000 1.0
C      1  0.5485190000000  0.4691950000000  0.4901250000000 1.0
C      1  0.4574610000000  0.5019860000000  0.4499200000000 1.0
C      1  0.5004230000000  0.4376350000000  0.5530350000000 1.0
C      1  0.5218010000000  0.4472110000000  0.5087540000000 1.0
C      1  0.4365020000000  0.5089610000000  0.4706080000000 1.0
C      1  0.4540490000000  0.4328580000000  0.5344970000000 1.0
C      1  0.4951670000000  0.5447610000000  0.5364220000000 1.0
C      1  0.4933220000000  0.4679230000000  0.5545490000000 1.0
C      1  0.5148580000000  0.4917630000000  0.5767250000000 1.0
C      1  0.4663220000000  0.5502860000000  0.5255150000000 1.0
C      1  0.4716950000000  0.5064460000000  0.5299910000000 1.0
C      1  0.5087510000000  0.4764500000000  0.5066220000000 1.0
C      1  0.4573400000000  0.5574380000000  0.4760880000000 1.0
C      1  0.4732380000000  0.4762030000000  0.5333000000000 1.0
C      1  0.5677360000000  0.5297820000000  0.4874830000000 1.0
C      1  0.5426090000000  0.4859850000000  0.4340230000000 1.0
C      1  0.5437030000000  0.5640660000000  0.5140020000000 1.0
C      1  0.4978220000000  0.5391760000000  0.4306520000000 1.0
C      1  0.5000370000000  0.4657210000000  0.4504300000000 1.0
C      1  0.5703770000000  0.4919260000000  0.5287080000000 1.0
C      1  0.5356580000000  0.4289410000000  0.4841230000000 1.0
C      1  0.4350000000000  0.4590210000000  0.4407020000000 1.0
C      1  0.5092420000000  0.5264700000000  0.5157700000000 1.0
C      1  0.4236740000000  0.5383300000000  0.5097810000000 1.0
C      1  0.4419240000000  0.4621930000000  0.4945670000000 1.0
C      1  0.5179090000000  0.5269150000000  0.4144590000000 1.0
C      1  0.5140600000000  0.5094880000000  0.4715020000000 1.0
C      1  0.5206460000000  0.4925000000000  0.5326160000000 1.0
C      1  0.5741220000000  0.4814510000000  0.5007320000000 1.0
C      1  0.4893390000000  0.4570180000000  0.4788790000000 1.0
C      1  0.5464540000000  0.5259610000000  0.5587270000000 1.0
C      1  0.5026940000000  0.5800480000000  0.4824900000000 1.0
C      1  0.5180510000000  0.5002770000000  0.4235970000000 1.0
C      1  0.4919050000000  0.4272900000000  0.4834020000000 1.0
C      1  0.4562360000000  0.4390080000000  0.4462160000000 1.0
C      1  0.4956180000000  0.5330660000000  0.5643340000000 1.0
C      1  0.5581600000000  0.5394890000000  0.4620780000000 1.0
C      1  0.5551220000000  0.5696570000000  0.5388080000000 1.0
C      1  0.5142810000000  0.4163470000000  0.4701530000000 1.0
C      1  0.5474830000000  0.5118430000000  0.5318390000000 1.0
C      1  0.4810770000000  0.4206850000000  0.5367940000000 1.0
C      1  0.4934560000000  0.5227760000000  0.4903380000000 1.0
C      1  0.5190170000000  0.5802850000000  0.5080880000000 1.0
C      1  0.5545330000000  0.5525480000000  0.5592660000000 1.0
C      1  0.4630850000000  0.4531340000000  0.5135050000000 1.0
C      1  0.4314130000000  0.4884120000000  0.5009120000000 1.0
C      1  0.4283930000000  0.4909370000000  0.5309220000000 1.0
C      1  0.5269180000000  0.4899730000000  0.4887820000000 1.0
C      1  0.4735450000000  0.5231880000000  0.4374930000000 1.0
C      1  0.5425910000000  0.5340640000000  0.5071340000000 1.0
C      1  0.4396310000000  0.5404560000000  0.5328730000000 1.0
C      1  0.5492230000000  0.4494630000000  0.4665090000000 1.0
C      1  0.4722900000000  0.5832030000000  0.4903940000000 1.0
C      1  0.4680300000000  0.5132150000000  0.5008420000000 1.0
C      1  0.5319080000000  0.4592760000000  0.4439430000000 1.0
C      1  0.5369520000000  0.4687710000000  0.5469070000000 1.0
C      1  0.5100740000000  0.5544900000000  0.4541450000000 1.0
C      1  0.5651980000000  0.4707520000000  0.5463200000000 1.0
C      1  0.5300630000000  0.5350550000000  0.4645730000000 1.0
C      1  0.5209110000000  0.5196970000000  0.5729310000000 1.0
C      1  0.4900530000000  0.4186350000000  0.5100190000000 1.0
C      1  0.4448190000000  0.5314560000000  0.4897650000000 1.0
C      1  0.4591270000000  0.4633870000000  0.4708130000000 1.0
C      1  0.5574140000000  0.5013770000000  0.4548660000000 1.0
C      1  0.5757750000000  0.5024100000000  0.4788590000000 1.0
C      1  0.5263280000000  0.4424040000000  0.5385540000000 1.0
C      1  0.4775280000000  0.4567590000000  0.4312640000000 1.0
END
