TITL C-950533-5798-426 2.20934642199348e-05 125000 -161.943220607754 0 0 28 (C1) n - 1
REM
REM in /home/bkarasulu/work/CARBON/AIRSS/Generating-Clusters/EDIP-Nigel-Params/with-SteepDescent/Only-C1/SD-CG/HFTN-CG
REM
REM
REM
REM
REM
REM ./C.cell (11c1c37f851c82e70ff6c80c92926a4b)
REM
REM compiler GCC version 9.2.1 20190827 (Red Hat 9.2.1-1)
REM options -cpp -mtune=generic -march=x86-64 -g -O0 -fpre-include=/usr/include/finclude/math-vector-fortran.h
REM seed -556990188 1697432701 1064440617 860795294 1497997424 -1345664790 -252932733 -1674348940 -2029042646 1015113606 -101152230 -1506434720 1447322579 1536221752 1831938561 1614599671 -610498374 -977153183 1862611004 1562546465 1665663318 94295302 -1474954454 -833274531 1832858646 -279033881 -1238123561 366881026 -1342280735 -759053975 436391739 107036837 -1903981687
REM
CELL 1.54180   50.00000   50.00000   50.00000   90.00000   90.00000   90.00000
LATT -1
SFAC C  
C      1  0.5600600000000  0.5539720000000  0.4813470000000 1.0
C      1  0.5443150000000  0.5395440000000  0.4976630000000 1.0
C      1  0.4462630000000  0.4807610000000  0.4968410000000 1.0
C      1  0.4489120000000  0.4790610000000  0.5277990000000 1.0
C      1  0.4739380000000  0.4727240000000  0.4846180000000 1.0
C      1  0.4426860000000  0.5317440000000  0.4995240000000 1.0
C      1  0.4932910000000  0.4895640000000  0.5410180000000 1.0
C      1  0.4464820000000  0.5038100000000  0.5420950000000 1.0
C      1  0.5188980000000  0.4530310000000  0.5054030000000 1.0
C      1  0.5250730000000  0.4258810000000  0.5010090000000 1.0
C      1  0.5388720000000  0.4983200000000  0.5214320000000 1.0
C      1  0.4876450000000  0.4587630000000  0.5073170000000 1.0
C      1  0.5617400000000  0.5020170000000  0.4572230000000 1.0
C      1  0.5166410000000  0.5342110000000  0.4864180000000 1.0
C      1  0.5681960000000  0.5013840000000  0.4833800000000 1.0
C      1  0.4801170000000  0.5036920000000  0.4799450000000 1.0
C      1  0.5565240000000  0.5135310000000  0.5058970000000 1.0
C      1  0.5393840000000  0.5138840000000  0.4481080000000 1.0
C      1  0.4806880000000  0.5325590000000  0.5224470000000 1.0
C      1  0.4974650000000  0.5170060000000  0.5024840000000 1.0
C      1  0.4492600000000  0.5095080000000  0.4839930000000 1.0
C      1  0.5113270000000  0.4949760000000  0.5178060000000 1.0
C      1  0.5155390000000  0.5238670000000  0.4586070000000 1.0
C      1  0.4587210000000  0.5480120000000  0.5138520000000 1.0
C      1  0.4971050000000  0.4289030000000  0.5028150000000 1.0
C      1  0.4737140000000  0.5125540000000  0.5431000000000 1.0
C      1  0.4913130000000  0.5102280000000  0.4538380000000 1.0
C      1  0.4758310000000  0.4664940000000  0.5340210000000 1.0
END
