TITL C-950528-5794-653 -1.09773044785683e-06 125000 -750.683769797456 0 0 121 (C1) n - 1
REM
REM in /home/bkarasulu/work/CARBON/AIRSS/Generating-Clusters/EDIP-Nigel-Params/with-SteepDescent/Only-C1/SD-CG/HFTN-CG
REM
REM
REM
REM
REM
REM ./C.cell (11c1c37f851c82e70ff6c80c92926a4b)
REM
REM compiler GCC version 9.2.1 20190827 (Red Hat 9.2.1-1)
REM options -cpp -mtune=generic -march=x86-64 -g -O0 -fpre-include=/usr/include/finclude/math-vector-fortran.h
REM seed -378163059 524037279 1560256158 -1889966227 -887491935 858515337 1288351374 -632934132 -963606214 -2129206329 -170264505 254143880 -1359333937 761850308 -329686877 -1660181072 -167670772 1143014030 627254340 -924624526 1230867710 1235626459 1041291943 -1774247164 147819662 -1589790080 -364780075 -1399977544 2098916781 1559503838 -543315350 1560483554 1433491148
REM
CELL 1.54180   50.00000   50.00000   50.00000   90.00000   90.00000   90.00000
LATT -1
SFAC C  
C      1  0.5402490000000  0.4244900000000  0.4555090000000 1.0
C      1  0.5763290000000  0.5414680000000  0.5232540000000 1.0
C      1  0.4138890000000  0.4970160000000  0.5432560000000 1.0
C      1  0.5204950000000  0.4364920000000  0.4374040000000 1.0
C      1  0.5013560000000  0.5072270000000  0.5936030000000 1.0
C      1  0.5373070000000  0.5411110000000  0.4225280000000 1.0
C      1  0.4479790000000  0.5809820000000  0.4452390000000 1.0
C      1  0.5262880000000  0.5024740000000  0.3947030000000 1.0
C      1  0.5544600000000  0.5514670000000  0.5418710000000 1.0
C      1  0.5126340000000  0.4724950000000  0.5587830000000 1.0
C      1  0.5875920000000  0.4872480000000  0.4520920000000 1.0
C      1  0.5873790000000  0.5250180000000  0.4783520000000 1.0
C      1  0.5220790000000  0.5528700000000  0.5022490000000 1.0
C      1  0.5061690000000  0.5620920000000  0.5472410000000 1.0
C      1  0.5404510000000  0.5993740000000  0.4912210000000 1.0
C      1  0.5530670000000  0.4987840000000  0.4089820000000 1.0
C      1  0.4879830000000  0.4906390000000  0.4720920000000 1.0
C      1  0.5268880000000  0.5338700000000  0.5809910000000 1.0
C      1  0.5517730000000  0.5076960000000  0.5023420000000 1.0
C      1  0.4464730000000  0.5875130000000  0.5072010000000 1.0
C      1  0.4677270000000  0.4920700000000  0.4251590000000 1.0
C      1  0.5110250000000  0.4830130000000  0.4313960000000 1.0
C      1  0.5587970000000  0.5064660000000  0.5521390000000 1.0
C      1  0.4586460000000  0.4196040000000  0.5327570000000 1.0
C      1  0.4995910000000  0.4625940000000  0.4734050000000 1.0
C      1  0.4486530000000  0.4824990000000  0.4472100000000 1.0
C      1  0.5181870000000  0.4658580000000  0.5071380000000 1.0
C      1  0.5734010000000  0.4653250000000  0.4392700000000 1.0
C      1  0.5233580000000  0.4977730000000  0.5105830000000 1.0
C      1  0.4122120000000  0.5237660000000  0.5316070000000 1.0
C      1  0.4929090000000  0.4546960000000  0.5483980000000 1.0
C      1  0.5185440000000  0.5149740000000  0.5359900000000 1.0
C      1  0.5900080000000  0.4691480000000  0.5213220000000 1.0
C      1  0.4554760000000  0.5244370000000  0.4806630000000 1.0
C      1  0.4326860000000  0.5636080000000  0.5122180000000 1.0
C      1  0.5711760000000  0.5124610000000  0.5253360000000 1.0
C      1  0.4078400000000  0.5250800000000  0.5030980000000 1.0
C      1  0.4816150000000  0.5740770000000  0.5378550000000 1.0
C      1  0.4481050000000  0.5526760000000  0.4441100000000 1.0
C      1  0.4573100000000  0.4311600000000  0.5615350000000 1.0
C      1  0.5525960000000  0.5858340000000  0.4716560000000 1.0
C      1  0.4791340000000  0.4409140000000  0.4628930000000 1.0
C      1  0.5439680000000  0.4507620000000  0.5128660000000 1.0
C      1  0.5414990000000  0.5392000000000  0.4818130000000 1.0
C      1  0.4958950000000  0.5372250000000  0.4975220000000 1.0
C      1  0.4406760000000  0.4547750000000  0.5019750000000 1.0
C      1  0.5256990000000  0.5607280000000  0.4412940000000 1.0
C      1  0.4781260000000  0.5388100000000  0.5224140000000 1.0
C      1  0.4252430000000  0.4964270000000  0.5701120000000 1.0
C      1  0.4934220000000  0.4282600000000  0.4405830000000 1.0
C      1  0.5791890000000  0.4392730000000  0.4825580000000 1.0
C      1  0.5961210000000  0.4973890000000  0.5177030000000 1.0
C      1  0.4936000000000  0.5882410000000  0.4912660000000 1.0
C      1  0.4733630000000  0.5812310000000  0.5113520000000 1.0
C      1  0.4510770000000  0.4529680000000  0.4545000000000 1.0
C      1  0.5571440000000  0.5199130000000  0.4296320000000 1.0
C      1  0.5654980000000  0.4416850000000  0.4565020000000 1.0
C      1  0.4835670000000  0.4851850000000  0.6057160000000 1.0
C      1  0.5284270000000  0.4595660000000  0.5790640000000 1.0
C      1  0.4218750000000  0.4909650000000  0.4408480000000 1.0
C      1  0.4903920000000  0.4988670000000  0.4423250000000 1.0
C      1  0.5693360000000  0.4829760000000  0.5654530000000 1.0
C      1  0.5061930000000  0.4797570000000  0.4022840000000 1.0
C      1  0.5057440000000  0.5097790000000  0.4888530000000 1.0
C      1  0.5252530000000  0.4317260000000  0.5766470000000 1.0
C      1  0.4763900000000  0.4196730000000  0.4841870000000 1.0
C      1  0.4743760000000  0.4389910000000  0.5852180000000 1.0
C      1  0.5447260000000  0.4220870000000  0.5045360000000 1.0
C      1  0.4743500000000  0.5445180000000  0.4305130000000 1.0
C      1  0.4343300000000  0.4305310000000  0.5194530000000 1.0
C      1  0.4903610000000  0.4550190000000  0.5184620000000 1.0
C      1  0.4796240000000  0.5137970000000  0.5426700000000 1.0
C      1  0.4513190000000  0.5239540000000  0.5118890000000 1.0
C      1  0.4655110000000  0.4665050000000  0.5922910000000 1.0
C      1  0.5032240000000  0.5481530000000  0.5717560000000 1.0
C      1  0.5641210000000  0.4874580000000  0.4826950000000 1.0
C      1  0.4663280000000  0.4728830000000  0.5068090000000 1.0
C      1  0.4306370000000  0.4507710000000  0.4748230000000 1.0
C      1  0.5467560000000  0.5607870000000  0.4613440000000 1.0
C      1  0.5170340000000  0.5283030000000  0.4061730000000 1.0
C      1  0.5532770000000  0.4706900000000  0.5844560000000 1.0
C      1  0.4338120000000  0.4483190000000  0.5632050000000 1.0
C      1  0.5712290000000  0.4154980000000  0.4957620000000 1.0
C      1  0.4928160000000  0.5712690000000  0.4657370000000 1.0
C      1  0.4609340000000  0.4963870000000  0.5245870000000 1.0
C      1  0.5695400000000  0.4617820000000  0.5001000000000 1.0
C      1  0.5823630000000  0.4657260000000  0.5479320000000 1.0
C      1  0.4321630000000  0.5357940000000  0.4656330000000 1.0
C      1  0.4755720000000  0.5873480000000  0.4446140000000 1.0
C      1  0.5814910000000  0.5476020000000  0.4954650000000 1.0
C      1  0.4074630000000  0.5018130000000  0.4857640000000 1.0
C      1  0.4186330000000  0.5494800000000  0.4902700000000 1.0
C      1  0.4756470000000  0.5398750000000  0.5779730000000 1.0
C      1  0.5251760000000  0.5162900000000  0.4666790000000 1.0
C      1  0.5017470000000  0.4058050000000  0.4861870000000 1.0
C      1  0.4994470000000  0.5271730000000  0.4391920000000 1.0
C      1  0.6026890000000  0.5052610000000  0.4914000000000 1.0
C      1  0.4406420000000  0.4728030000000  0.5770570000000 1.0
C      1  0.5262210000000  0.4205650000000  0.4818240000000 1.0
C      1  0.5261170000000  0.5456880000000  0.5317720000000 1.0
C      1  0.5612030000000  0.4723950000000  0.4149340000000 1.0
C      1  0.4797470000000  0.5446070000000  0.4743910000000 1.0
C      1  0.4154500000000  0.5107510000000  0.4592200000000 1.0
C      1  0.5220250000000  0.4647030000000  0.4521870000000 1.0
C      1  0.4912330000000  0.5688880000000  0.4263460000000 1.0
C      1  0.4589950000000  0.4943980000000  0.4747010000000 1.0
C      1  0.5048660000000  0.5005360000000  0.5618490000000 1.0
C      1  0.4494650000000  0.5389830000000  0.5635940000000 1.0
C      1  0.5015570000000  0.4294310000000  0.5612950000000 1.0
C      1  0.5782210000000  0.5149600000000  0.4513160000000 1.0
C      1  0.4780350000000  0.4848100000000  0.3995160000000 1.0
C      1  0.4178360000000  0.4470320000000  0.5385250000000 1.0
C      1  0.4317360000000  0.5459910000000  0.5381540000000 1.0
C      1  0.4077830000000  0.4739120000000  0.4959860000000 1.0
C      1  0.5518720000000  0.5319720000000  0.5654840000000 1.0
C      1  0.4831220000000  0.4251510000000  0.5141450000000 1.0
C      1  0.5397580000000  0.4884580000000  0.4644620000000 1.0
C      1  0.4337760000000  0.5214540000000  0.5789460000000 1.0
C      1  0.4767580000000  0.5226740000000  0.6004540000000 1.0
C      1  0.5199370000000  0.5832750000000  0.5016160000000 1.0
C      1  0.4094200000000  0.4729560000000  0.5265160000000 1.0
END
