TITL C-951345-2650-483 -1.15723107139611e-06 125000 -854.992501017871 0 0 137 (C1) n - 1
REM
REM in /home/bkarasulu/work/CARBON/AIRSS/Generating-Clusters/EDIP-Nigel-Params/with-SteepDescent/Only-C1/SD-CG/HFTN-CG
REM
REM
REM
REM
REM
REM ./C.cell (11c1c37f851c82e70ff6c80c92926a4b)
REM
REM compiler GCC version 9.2.1 20190827 (Red Hat 9.2.1-1)
REM options -cpp -mtune=generic -march=x86-64 -g -O0 -fpre-include=/usr/include/finclude/math-vector-fortran.h
REM seed -1341595101 439663734 -1132665573 -656609765 509888175 -1361015886 953395757 1029514257 -1333560866 2112386386 -1971089410 -1101200632 1040133726 1890819704 582765678 -562995555 1122475284 -1781495985 -1416931661 -420899683 -2061792238 100017899 2045586522 704447313 887451342 1150276717 -1292120865 -847564435 83861978 -51397703 1475649639 236072912 -1393759063
REM
CELL 1.54180   50.00000   50.00000   50.00000   90.00000   90.00000   90.00000
LATT -1
SFAC C  
C      1  0.5532340000000  0.4258740000000  0.4735970000000 1.0
C      1  0.4439710000000  0.5240310000000  0.4842260000000 1.0
C      1  0.5810030000000  0.4569940000000  0.5313570000000 1.0
C      1  0.4212170000000  0.4484600000000  0.4492930000000 1.0
C      1  0.4509230000000  0.5058650000000  0.4620030000000 1.0
C      1  0.5728530000000  0.4521520000000  0.5033830000000 1.0
C      1  0.5757220000000  0.4272220000000  0.4906330000000 1.0
C      1  0.4788850000000  0.5561400000000  0.5582040000000 1.0
C      1  0.4659010000000  0.4633240000000  0.5350050000000 1.0
C      1  0.5573270000000  0.5783310000000  0.4934560000000 1.0
C      1  0.4980960000000  0.4665330000000  0.5043990000000 1.0
C      1  0.4467480000000  0.4401410000000  0.5411740000000 1.0
C      1  0.4903000000000  0.5352320000000  0.4534510000000 1.0
C      1  0.5431260000000  0.5172050000000  0.4214220000000 1.0
C      1  0.5289540000000  0.4341570000000  0.4899680000000 1.0
C      1  0.5503890000000  0.5064250000000  0.5198310000000 1.0
C      1  0.4864160000000  0.4380380000000  0.5053800000000 1.0
C      1  0.4632830000000  0.5811170000000  0.5065430000000 1.0
C      1  0.3961090000000  0.4649170000000  0.4905170000000 1.0
C      1  0.5477760000000  0.5186110000000  0.4708250000000 1.0
C      1  0.4966140000000  0.3948800000000  0.5061220000000 1.0
C      1  0.5474530000000  0.4681640000000  0.5577230000000 1.0
C      1  0.5445210000000  0.5483530000000  0.4918450000000 1.0
C      1  0.4419380000000  0.5422870000000  0.4292540000000 1.0
C      1  0.5323030000000  0.5895680000000  0.5218670000000 1.0
C      1  0.4018990000000  0.5107870000000  0.5069380000000 1.0
C      1  0.5129990000000  0.4649910000000  0.4579350000000 1.0
C      1  0.4832670000000  0.5180300000000  0.5044250000000 1.0
C      1  0.5103080000000  0.5136130000000  0.4619300000000 1.0
C      1  0.4196240000000  0.4542430000000  0.5366840000000 1.0
C      1  0.5641010000000  0.4717280000000  0.4562510000000 1.0
C      1  0.4921970000000  0.5237290000000  0.5314390000000 1.0
C      1  0.4809310000000  0.5834870000000  0.4658310000000 1.0
C      1  0.5351270000000  0.4649370000000  0.5851330000000 1.0
C      1  0.4987250000000  0.4337820000000  0.5328920000000 1.0
C      1  0.4951180000000  0.4408500000000  0.5863440000000 1.0
C      1  0.5444860000000  0.5644850000000  0.4412770000000 1.0
C      1  0.5056210000000  0.5470170000000  0.4137320000000 1.0
C      1  0.5212260000000  0.5029610000000  0.4054970000000 1.0
C      1  0.4630580000000  0.5644150000000  0.5330870000000 1.0
C      1  0.4974590000000  0.5208950000000  0.4030030000000 1.0
C      1  0.4136670000000  0.5069900000000  0.5333860000000 1.0
C      1  0.5991760000000  0.5236230000000  0.4736330000000 1.0
C      1  0.5964260000000  0.5187390000000  0.5510080000000 1.0
C      1  0.5083860000000  0.5601870000000  0.5626010000000 1.0
C      1  0.4348960000000  0.4650460000000  0.4279020000000 1.0
C      1  0.5202930000000  0.4620850000000  0.4847990000000 1.0
C      1  0.5116840000000  0.5195920000000  0.5983130000000 1.0
C      1  0.5490300000000  0.4218230000000  0.5587500000000 1.0
C      1  0.5654650000000  0.5028950000000  0.4929110000000 1.0
C      1  0.5255270000000  0.5349300000000  0.5745600000000 1.0
C      1  0.4740680000000  0.5070270000000  0.4160750000000 1.0
C      1  0.5451330000000  0.5368150000000  0.5218390000000 1.0
C      1  0.5562360000000  0.5395600000000  0.5716740000000 1.0
C      1  0.5122270000000  0.5590170000000  0.4941450000000 1.0
C      1  0.4646080000000  0.5428840000000  0.4959450000000 1.0
C      1  0.5015530000000  0.5908140000000  0.4476590000000 1.0
C      1  0.5151490000000  0.3931070000000  0.5293600000000 1.0
C      1  0.4158930000000  0.4516760000000  0.5069580000000 1.0
C      1  0.4253280000000  0.4917490000000  0.4536080000000 1.0
C      1  0.4373840000000  0.5783700000000  0.4620100000000 1.0
C      1  0.5126700000000  0.4844100000000  0.5919670000000 1.0
C      1  0.4909270000000  0.4726640000000  0.5496350000000 1.0
C      1  0.4005290000000  0.4633160000000  0.4626330000000 1.0
C      1  0.5698000000000  0.4746250000000  0.4846640000000 1.0
C      1  0.5388680000000  0.4097000000000  0.5334630000000 1.0
C      1  0.4157600000000  0.5315990000000  0.4884470000000 1.0
C      1  0.5795250000000  0.5695860000000  0.4748470000000 1.0
C      1  0.5364510000000  0.5964070000000  0.4779950000000 1.0
C      1  0.5215410000000  0.5797330000000  0.5458220000000 1.0
C      1  0.5229130000000  0.4959230000000  0.5126880000000 1.0
C      1  0.5934670000000  0.4825710000000  0.5369610000000 1.0
C      1  0.5139710000000  0.5456100000000  0.5242120000000 1.0
C      1  0.4308340000000  0.5276450000000  0.5433850000000 1.0
C      1  0.4506710000000  0.4303360000000  0.5682730000000 1.0
C      1  0.4670110000000  0.4376820000000  0.4526620000000 1.0
C      1  0.4543650000000  0.4807790000000  0.5160010000000 1.0
C      1  0.5114770000000  0.4211980000000  0.4403520000000 1.0
C      1  0.4186890000000  0.5008550000000  0.4270880000000 1.0
C      1  0.5262940000000  0.5093670000000  0.5583100000000 1.0
C      1  0.5947970000000  0.5486730000000  0.4872140000000 1.0
C      1  0.5629210000000  0.5504040000000  0.5440100000000 1.0
C      1  0.4684080000000  0.5012660000000  0.6087170000000 1.0
C      1  0.4611790000000  0.4803610000000  0.5911160000000 1.0
C      1  0.5524470000000  0.4980170000000  0.5515350000000 1.0
C      1  0.4823360000000  0.5235680000000  0.5985130000000 1.0
C      1  0.5916750000000  0.5456200000000  0.5395400000000 1.0
C      1  0.4646470000000  0.5235010000000  0.4396300000000 1.0
C      1  0.4846170000000  0.4804360000000  0.4249740000000 1.0
C      1  0.6040170000000  0.5018150000000  0.4918590000000 1.0
C      1  0.5354850000000  0.4356120000000  0.5197650000000 1.0
C      1  0.4415080000000  0.4911580000000  0.5706010000000 1.0
C      1  0.5293230000000  0.5874260000000  0.4510700000000 1.0
C      1  0.5263990000000  0.4458510000000  0.4387190000000 1.0
C      1  0.4488880000000  0.4186620000000  0.5178840000000 1.0
C      1  0.5101410000000  0.5148810000000  0.4920510000000 1.0
C      1  0.5273080000000  0.4547430000000  0.4115870000000 1.0
C      1  0.4765380000000  0.4210380000000  0.5745130000000 1.0
C      1  0.4700720000000  0.4855620000000  0.4704530000000 1.0
C      1  0.5724780000000  0.4396410000000  0.5539470000000 1.0
C      1  0.4902050000000  0.4196590000000  0.4586010000000 1.0
C      1  0.5710870000000  0.5637250000000  0.4489270000000 1.0
C      1  0.4888170000000  0.4114620000000  0.5505160000000 1.0
C      1  0.5337050000000  0.5454690000000  0.4222570000000 1.0
C      1  0.4369490000000  0.5516670000000  0.5292380000000 1.0
C      1  0.4946500000000  0.4867760000000  0.4533610000000 1.0
C      1  0.4405350000000  0.4338240000000  0.4661130000000 1.0
C      1  0.5244970000000  0.4373390000000  0.5825260000000 1.0
C      1  0.5144960000000  0.5890170000000  0.4980740000000 1.0
C      1  0.4640830000000  0.4567890000000  0.4286410000000 1.0
C      1  0.5609270000000  0.5058080000000  0.4454050000000 1.0
C      1  0.5259270000000  0.4601240000000  0.5374410000000 1.0
C      1  0.4195370000000  0.4821110000000  0.5497210000000 1.0
C      1  0.4695670000000  0.5330940000000  0.5738550000000 1.0
C      1  0.4056010000000  0.5341710000000  0.4609830000000 1.0
C      1  0.4380790000000  0.5776160000000  0.4901920000000 1.0
C      1  0.4690580000000  0.3984330000000  0.5136110000000 1.0
C      1  0.6008950000000  0.5513210000000  0.5140330000000 1.0
C      1  0.4222730000000  0.5572490000000  0.5040560000000 1.0
C      1  0.4445820000000  0.5201170000000  0.5672350000000 1.0
C      1  0.5720740000000  0.5139030000000  0.5677310000000 1.0
C      1  0.4331540000000  0.4308430000000  0.4954770000000 1.0
C      1  0.4676610000000  0.5811120000000  0.4236690000000 1.0
C      1  0.3861240000000  0.4894980000000  0.4985580000000 1.0
C      1  0.5870100000000  0.5181810000000  0.4485450000000 1.0
C      1  0.4151860000000  0.5297210000000  0.4342070000000 1.0
C      1  0.6085210000000  0.4995780000000  0.5199810000000 1.0
C      1  0.4883590000000  0.4696840000000  0.5804270000000 1.0
C      1  0.4440250000000  0.5710560000000  0.4355570000000 1.0
C      1  0.5098280000000  0.4759240000000  0.4087870000000 1.0
C      1  0.4756710000000  0.4875770000000  0.4988420000000 1.0
C      1  0.4851830000000  0.5971470000000  0.4923060000000 1.0
C      1  0.5013600000000  0.4188440000000  0.4873630000000 1.0
C      1  0.4858830000000  0.5545590000000  0.4758310000000 1.0
C      1  0.5545470000000  0.4438820000000  0.4494170000000 1.0
C      1  0.4890190000000  0.5695730000000  0.4110840000000 1.0
C      1  0.5066420000000  0.5000050000000  0.5393170000000 1.0
END
