TITL C-951346-9544-30 4.03387883794946e-07 125000 -910.518480687305 0 0 146 (C1) n - 1
REM
REM in /home/bkarasulu/work/CARBON/AIRSS/Generating-Clusters/EDIP-Nigel-Params/with-SteepDescent/Only-C1/SD-CG/HFTN-CG
REM
REM
REM
REM
REM
REM ./C.cell (11c1c37f851c82e70ff6c80c92926a4b)
REM
REM compiler GCC version 9.2.1 20190827 (Red Hat 9.2.1-1)
REM options -cpp -mtune=generic -march=x86-64 -g -O0 -fpre-include=/usr/include/finclude/math-vector-fortran.h
REM seed -111781227 1381334274 819005848 -509941948 145658391 -257639163 1132217855 -209786751 1389810804 -1688652284 -247123246 791297796 -1885468878 -1994312314 -598959478 -572826690 -974880992 -1138591251 2045805567 654222386 2097281202 -123869774 -1264713983 -881282182 -1460388670 -1857937965 673564510 1928064485 -136048354 1192407529 840301389 172514590 866716184
REM
CELL 1.54180   50.00000   50.00000   50.00000   90.00000   90.00000   90.00000
LATT -1
SFAC C  
C      1  0.4010760000000  0.5047790000000  0.4964380000000 1.0
C      1  0.5649010000000  0.5344310000000  0.5711740000000 1.0
C      1  0.5000820000000  0.4018780000000  0.4504530000000 1.0
C      1  0.4756200000000  0.5853220000000  0.5575170000000 1.0
C      1  0.4222720000000  0.4472460000000  0.4530720000000 1.0
C      1  0.4584920000000  0.4167720000000  0.5147080000000 1.0
C      1  0.4572870000000  0.5082880000000  0.4602210000000 1.0
C      1  0.5374550000000  0.5738130000000  0.4330480000000 1.0
C      1  0.5133550000000  0.6038240000000  0.5268630000000 1.0
C      1  0.5537780000000  0.4765580000000  0.5131890000000 1.0
C      1  0.4802120000000  0.5398370000000  0.5492280000000 1.0
C      1  0.4085830000000  0.5401300000000  0.4624310000000 1.0
C      1  0.4370920000000  0.4824190000000  0.5693650000000 1.0
C      1  0.5935520000000  0.4990750000000  0.4860360000000 1.0
C      1  0.5123330000000  0.5570730000000  0.5098450000000 1.0
C      1  0.4145990000000  0.5440690000000  0.5357050000000 1.0
C      1  0.5157010000000  0.4366200000000  0.4195240000000 1.0
C      1  0.5406510000000  0.4018980000000  0.5145690000000 1.0
C      1  0.5583980000000  0.4132430000000  0.4683940000000 1.0
C      1  0.5558880000000  0.5610720000000  0.4781350000000 1.0
C      1  0.5001460000000  0.4433620000000  0.5775940000000 1.0
C      1  0.4260470000000  0.4618670000000  0.5526270000000 1.0
C      1  0.4582490000000  0.5482980000000  0.5292880000000 1.0
C      1  0.4772280000000  0.5932780000000  0.4917860000000 1.0
C      1  0.5328700000000  0.5736600000000  0.4627160000000 1.0
C      1  0.4744040000000  0.5590560000000  0.5732800000000 1.0
C      1  0.4992170000000  0.5097260000000  0.5030970000000 1.0
C      1  0.4786920000000  0.4759740000000  0.6057900000000 1.0
C      1  0.5926240000000  0.5012090000000  0.4564370000000 1.0
C      1  0.4232640000000  0.4356640000000  0.4812670000000 1.0
C      1  0.5485430000000  0.4782840000000  0.5772630000000 1.0
C      1  0.5068620000000  0.5561290000000  0.4657710000000 1.0
C      1  0.4524970000000  0.4974420000000  0.5070100000000 1.0
C      1  0.6074760000000  0.4733050000000  0.4926000000000 1.0
C      1  0.5456260000000  0.4505040000000  0.4965730000000 1.0
C      1  0.5786450000000  0.5485550000000  0.4614670000000 1.0
C      1  0.4539280000000  0.4735110000000  0.4928340000000 1.0
C      1  0.4451240000000  0.4429180000000  0.4357260000000 1.0
C      1  0.4719260000000  0.4331170000000  0.4725080000000 1.0
C      1  0.4686400000000  0.3901500000000  0.5211920000000 1.0
C      1  0.4448090000000  0.5076860000000  0.3939590000000 1.0
C      1  0.5799310000000  0.4732310000000  0.5274920000000 1.0
C      1  0.5433490000000  0.5992350000000  0.5272020000000 1.0
C      1  0.4859340000000  0.5686900000000  0.4497240000000 1.0
C      1  0.4306460000000  0.5595640000000  0.5546280000000 1.0
C      1  0.5203180000000  0.4970000000000  0.5489280000000 1.0
C      1  0.5438550000000  0.4329530000000  0.5525540000000 1.0
C      1  0.5777340000000  0.5096660000000  0.5667370000000 1.0
C      1  0.4126900000000  0.5495300000000  0.5085060000000 1.0
C      1  0.5261220000000  0.5225700000000  0.5358290000000 1.0
C      1  0.5117590000000  0.4932370000000  0.4832570000000 1.0
C      1  0.5070350000000  0.4003620000000  0.4811330000000 1.0
C      1  0.4713130000000  0.5176240000000  0.3947710000000 1.0
C      1  0.5234260000000  0.4601110000000  0.4029530000000 1.0
C      1  0.4169510000000  0.5293090000000  0.4882090000000 1.0
C      1  0.5236260000000  0.5596870000000  0.5866690000000 1.0
C      1  0.4131640000000  0.4573940000000  0.5000340000000 1.0
C      1  0.4307240000000  0.5109270000000  0.5663640000000 1.0
C      1  0.4758460000000  0.4213090000000  0.4444250000000 1.0
C      1  0.5265460000000  0.5082130000000  0.4634570000000 1.0
C      1  0.5513330000000  0.5794660000000  0.5494480000000 1.0
C      1  0.6048660000000  0.5248660000000  0.4944090000000 1.0
C      1  0.5287640000000  0.5975920000000  0.4810850000000 1.0
C      1  0.4791300000000  0.4962680000000  0.5209420000000 1.0
C      1  0.4910090000000  0.4900360000000  0.5523230000000 1.0
C      1  0.4395210000000  0.5786870000000  0.4648820000000 1.0
C      1  0.5457770000000  0.5413710000000  0.4140830000000 1.0
C      1  0.5375900000000  0.4001530000000  0.4856370000000 1.0
C      1  0.5512050000000  0.5171200000000  0.4760690000000 1.0
C      1  0.5947320000000  0.4457560000000  0.4904470000000 1.0
C      1  0.5413450000000  0.5454280000000  0.5010520000000 1.0
C      1  0.5537550000000  0.6001590000000  0.4989500000000 1.0
C      1  0.4314470000000  0.5872400000000  0.4911010000000 1.0
C      1  0.5706580000000  0.5212880000000  0.4527180000000 1.0
C      1  0.4051820000000  0.4794370000000  0.4820650000000 1.0
C      1  0.4321060000000  0.5520570000000  0.4529720000000 1.0
C      1  0.4639720000000  0.4580420000000  0.5560180000000 1.0
C      1  0.5000100000000  0.4180470000000  0.5385810000000 1.0
C      1  0.5264010000000  0.5771890000000  0.5638570000000 1.0
C      1  0.5176210000000  0.4493980000000  0.4820870000000 1.0
C      1  0.5067310000000  0.5896120000000  0.5012540000000 1.0
C      1  0.4890530000000  0.5588590000000  0.4216220000000 1.0
C      1  0.4424620000000  0.5405130000000  0.4273280000000 1.0
C      1  0.5373740000000  0.4742420000000  0.5405290000000 1.0
C      1  0.5984300000000  0.5502000000000  0.4837520000000 1.0
C      1  0.4721780000000  0.5333770000000  0.4203390000000 1.0
C      1  0.4993380000000  0.4711110000000  0.4689710000000 1.0
C      1  0.4543070000000  0.5793260000000  0.5363060000000 1.0
C      1  0.5077000000000  0.5288450000000  0.4545680000000 1.0
C      1  0.5687400000000  0.5557660000000  0.5511490000000 1.0
C      1  0.4696070000000  0.5159550000000  0.5917580000000 1.0
C      1  0.4958590000000  0.4859860000000  0.4397810000000 1.0
C      1  0.4974910000000  0.4286380000000  0.4889240000000 1.0
C      1  0.5745130000000  0.5795080000000  0.4926590000000 1.0
C      1  0.5584990000000  0.4539290000000  0.5658750000000 1.0
C      1  0.5147230000000  0.3944830000000  0.5267580000000 1.0
C      1  0.4382430000000  0.4928560000000  0.4400160000000 1.0
C      1  0.4977210000000  0.4743640000000  0.3965550000000 1.0
C      1  0.4826660000000  0.5148350000000  0.4438930000000 1.0
C      1  0.5672340000000  0.4423020000000  0.4756920000000 1.0
C      1  0.4948720000000  0.5272080000000  0.6043600000000 1.0
C      1  0.5493750000000  0.4084440000000  0.4423680000000 1.0
C      1  0.4531100000000  0.5935800000000  0.5088150000000 1.0
C      1  0.4122380000000  0.4687200000000  0.5280340000000 1.0
C      1  0.4771950000000  0.4613070000000  0.5277660000000 1.0
C      1  0.4420310000000  0.5386260000000  0.5766150000000 1.0
C      1  0.5670030000000  0.4597970000000  0.4499540000000 1.0
C      1  0.4487120000000  0.4200080000000  0.4868980000000 1.0
C      1  0.5645180000000  0.4982520000000  0.4942840000000 1.0
C      1  0.5942650000000  0.4493660000000  0.5199260000000 1.0
C      1  0.4956960000000  0.5551150000000  0.5951320000000 1.0
C      1  0.4945020000000  0.3833510000000  0.5075660000000 1.0
C      1  0.4925950000000  0.5005370000000  0.3887220000000 1.0
C      1  0.4644720000000  0.5429000000000  0.5000010000000 1.0
C      1  0.5549300000000  0.5166370000000  0.4265560000000 1.0
C      1  0.5245250000000  0.4857810000000  0.5916710000000 1.0
C      1  0.4161830000000  0.5167190000000  0.5424710000000 1.0
C      1  0.4813300000000  0.4681470000000  0.4205030000000 1.0
C      1  0.4730840000000  0.4327410000000  0.5711800000000 1.0
C      1  0.5434650000000  0.4674500000000  0.4349430000000 1.0
C      1  0.4583570000000  0.4935380000000  0.6066770000000 1.0
C      1  0.4884800000000  0.4402910000000  0.4254700000000 1.0
C      1  0.5513650000000  0.4265500000000  0.5249260000000 1.0
C      1  0.4747140000000  0.5129280000000  0.5616540000000 1.0
C      1  0.5886680000000  0.4764550000000  0.4447640000000 1.0
C      1  0.4315960000000  0.5138460000000  0.4185370000000 1.0
C      1  0.5037800000000  0.5886720000000  0.5497790000000 1.0
C      1  0.5229100000000  0.4121760000000  0.4339830000000 1.0
C      1  0.4147460000000  0.4765190000000  0.4540170000000 1.0
C      1  0.4678890000000  0.5866390000000  0.4641890000000 1.0
C      1  0.5195880000000  0.5539710000000  0.4201020000000 1.0
C      1  0.5004370000000  0.4694190000000  0.5900860000000 1.0
C      1  0.5835240000000  0.4876460000000  0.5517330000000 1.0
C      1  0.5157740000000  0.4379970000000  0.5537140000000 1.0
C      1  0.5402520000000  0.5355730000000  0.5881250000000 1.0
C      1  0.4934480000000  0.5387720000000  0.4949570000000 1.0
C      1  0.5524960000000  0.5318950000000  0.5257510000000 1.0
C      1  0.5215230000000  0.5146370000000  0.5979400000000 1.0
C      1  0.4846680000000  0.4325620000000  0.5169850000000 1.0
C      1  0.4479730000000  0.5202820000000  0.4881380000000 1.0
C      1  0.5331440000000  0.4952070000000  0.4344800000000 1.0
C      1  0.4517880000000  0.4692540000000  0.4250270000000 1.0
C      1  0.4764480000000  0.4082450000000  0.5544000000000 1.0
C      1  0.4708290000000  0.4624300000000  0.4737040000000 1.0
C      1  0.4049460000000  0.4969700000000  0.5247850000000 1.0
C      1  0.5081530000000  0.5458810000000  0.5382800000000 1.0
END
