TITL C-950534-5965-329 -4.50094062615273e-06 125000 -597.862150163372 0 0 97 (C1) n - 1
REM
REM in /home/bkarasulu/work/CARBON/AIRSS/Generating-Clusters/EDIP-Nigel-Params/with-SteepDescent/Only-C1/SD-CG/HFTN-CG
REM
REM
REM
REM
REM
REM ./C.cell (11c1c37f851c82e70ff6c80c92926a4b)
REM
REM compiler GCC version 9.2.1 20190827 (Red Hat 9.2.1-1)
REM options -cpp -mtune=generic -march=x86-64 -g -O0 -fpre-include=/usr/include/finclude/math-vector-fortran.h
REM seed -544688713 50969180 1056683709 111605072 -2085845388 -1260017215 1939561764 -1511294393 -2130792402 1341447183 -598755241 -124638750 -2014955155 -769035319 -1293684052 182828437 -1939027494 2088242289 238703100 -989118439 -1671183756 -48561147 -1722531311 1831126040 -1636941007 -1895805211 -2092825307 617565897 -736586403 759839421 -1800026778 758608612 -1328936481
REM
CELL 1.54180   50.00000   50.00000   50.00000   90.00000   90.00000   90.00000
LATT -1
SFAC C  
C      1  0.4707310000000  0.5283640000000  0.4619600000000 1.0
C      1  0.4807460000000  0.4735850000000  0.4772870000000 1.0
C      1  0.5253600000000  0.4857500000000  0.4521680000000 1.0
C      1  0.5242070000000  0.4155330000000  0.5142840000000 1.0
C      1  0.4585670000000  0.4873560000000  0.4918520000000 1.0
C      1  0.5428540000000  0.5793490000000  0.4782880000000 1.0
C      1  0.5384890000000  0.5666940000000  0.4522900000000 1.0
C      1  0.5229800000000  0.4906770000000  0.4126440000000 1.0
C      1  0.5214550000000  0.4633170000000  0.5027030000000 1.0
C      1  0.5406700000000  0.4735980000000  0.4800050000000 1.0
C      1  0.4369160000000  0.4672570000000  0.4590970000000 1.0
C      1  0.4744290000000  0.5558590000000  0.5002290000000 1.0
C      1  0.4300890000000  0.4542760000000  0.4848910000000 1.0
C      1  0.5076970000000  0.5179060000000  0.4840810000000 1.0
C      1  0.4099890000000  0.5069810000000  0.5304210000000 1.0
C      1  0.4701700000000  0.4672560000000  0.5769410000000 1.0
C      1  0.4566260000000  0.5156600000000  0.4866060000000 1.0
C      1  0.4989510000000  0.5487290000000  0.5578980000000 1.0
C      1  0.5197680000000  0.4123470000000  0.5416700000000 1.0
C      1  0.4826130000000  0.5678530000000  0.5465560000000 1.0
C      1  0.5427870000000  0.4516150000000  0.5649390000000 1.0
C      1  0.4985100000000  0.4773420000000  0.5416490000000 1.0
C      1  0.4641110000000  0.4189060000000  0.4890350000000 1.0
C      1  0.5875020000000  0.5219340000000  0.4874460000000 1.0
C      1  0.4774760000000  0.4243290000000  0.5592470000000 1.0
C      1  0.4883320000000  0.4606910000000  0.4285980000000 1.0
C      1  0.4877940000000  0.4535260000000  0.5009200000000 1.0
C      1  0.4354510000000  0.5058330000000  0.4314460000000 1.0
C      1  0.5735410000000  0.4762120000000  0.5383950000000 1.0
C      1  0.5287850000000  0.5108890000000  0.5268800000000 1.0
C      1  0.5603380000000  0.5537230000000  0.5368780000000 1.0
C      1  0.4512920000000  0.4844560000000  0.5224420000000 1.0
C      1  0.4261730000000  0.4951670000000  0.4551350000000 1.0
C      1  0.5469580000000  0.4451850000000  0.4699850000000 1.0
C      1  0.4257860000000  0.5152920000000  0.4804050000000 1.0
C      1  0.4532150000000  0.5159820000000  0.5350300000000 1.0
C      1  0.5256310000000  0.5590000000000  0.5635370000000 1.0
C      1  0.5683510000000  0.5426290000000  0.4816180000000 1.0
C      1  0.4720680000000  0.5273210000000  0.5121790000000 1.0
C      1  0.4980630000000  0.4977440000000  0.4639120000000 1.0
C      1  0.5010240000000  0.5150110000000  0.5121170000000 1.0
C      1  0.5083380000000  0.5029030000000  0.5768650000000 1.0
C      1  0.5818490000000  0.5139760000000  0.5165330000000 1.0
C      1  0.5248670000000  0.4792560000000  0.5279670000000 1.0
C      1  0.4639510000000  0.4482370000000  0.5546630000000 1.0
C      1  0.4967600000000  0.5934490000000  0.5063930000000 1.0
C      1  0.5051960000000  0.4239690000000  0.5625730000000 1.0
C      1  0.4159320000000  0.4605220000000  0.5306460000000 1.0
C      1  0.4621210000000  0.5144640000000  0.5639130000000 1.0
C      1  0.5053030000000  0.5473060000000  0.4818480000000 1.0
C      1  0.5028890000000  0.4187970000000  0.4684300000000 1.0
C      1  0.4744700000000  0.4643670000000  0.5301720000000 1.0
C      1  0.5168230000000  0.4487600000000  0.5740500000000 1.0
C      1  0.4771890000000  0.5770230000000  0.5209260000000 1.0
C      1  0.5849660000000  0.4756060000000  0.5128190000000 1.0
C      1  0.5773980000000  0.5009910000000  0.5525860000000 1.0
C      1  0.5097930000000  0.5559980000000  0.4510740000000 1.0
C      1  0.4107610000000  0.4990590000000  0.5018800000000 1.0
C      1  0.5308490000000  0.5180900000000  0.4228690000000 1.0
C      1  0.5577890000000  0.5443770000000  0.4550850000000 1.0
C      1  0.4908150000000  0.5927620000000  0.4782260000000 1.0
C      1  0.5407240000000  0.4389240000000  0.5077440000000 1.0
C      1  0.4883490000000  0.5249090000000  0.5716560000000 1.0
C      1  0.4990960000000  0.4738170000000  0.5703440000000 1.0
C      1  0.5555540000000  0.5440030000000  0.5661580000000 1.0
C      1  0.4205570000000  0.4841290000000  0.5448300000000 1.0
C      1  0.4701270000000  0.4555910000000  0.4538810000000 1.0
C      1  0.5150920000000  0.4482130000000  0.4313930000000 1.0
C      1  0.5681750000000  0.4955010000000  0.4462750000000 1.0
C      1  0.5479250000000  0.4611100000000  0.5385860000000 1.0
C      1  0.5213660000000  0.4376070000000  0.4573690000000 1.0
C      1  0.5248810000000  0.5828640000000  0.5123580000000 1.0
C      1  0.4139160000000  0.4696350000000  0.5037130000000 1.0
C      1  0.4871410000000  0.5767910000000  0.4545770000000 1.0
C      1  0.4500350000000  0.5625230000000  0.4826500000000 1.0
C      1  0.5012390000000  0.4129220000000  0.4969530000000 1.0
C      1  0.4931430000000  0.4864220000000  0.4139640000000 1.0
C      1  0.5297670000000  0.5589640000000  0.4949920000000 1.0
C      1  0.5382750000000  0.5751040000000  0.5398860000000 1.0
C      1  0.5291600000000  0.5165510000000  0.5577510000000 1.0
C      1  0.5370710000000  0.4646640000000  0.4205140000000 1.0
C      1  0.5553740000000  0.5313530000000  0.5162220000000 1.0
C      1  0.5689550000000  0.4815690000000  0.4898010000000 1.0
C      1  0.4509470000000  0.4407160000000  0.4996700000000 1.0
C      1  0.4860390000000  0.5124910000000  0.4268350000000 1.0
C      1  0.4746680000000  0.4257130000000  0.4625300000000 1.0
C      1  0.4583850000000  0.5209010000000  0.4344660000000 1.0
C      1  0.5845240000000  0.4966260000000  0.4708790000000 1.0
C      1  0.4261000000000  0.5307220000000  0.5341210000000 1.0
C      1  0.4248920000000  0.5467470000000  0.4871650000000 1.0
C      1  0.4551230000000  0.4906960000000  0.5769330000000 1.0
C      1  0.5593960000000  0.4669590000000  0.4406340000000 1.0
C      1  0.5514590000000  0.5191470000000  0.4425630000000 1.0
C      1  0.4635700000000  0.5584810000000  0.4573970000000 1.0
C      1  0.5071970000000  0.5340590000000  0.4286760000000 1.0
C      1  0.5574550000000  0.5131000000000  0.5689050000000 1.0
C      1  0.4197670000000  0.5494290000000  0.5144250000000 1.0
END
