TITL C-951346-9544-115 -2.1167238432129e-06 125000 -653.255885651413 0 0 105 (C1) n - 1
REM
REM in /home/bkarasulu/work/CARBON/AIRSS/Generating-Clusters/EDIP-Nigel-Params/with-SteepDescent/Only-C1/SD-CG/HFTN-CG
REM
REM
REM
REM
REM
REM ./C.cell (11c1c37f851c82e70ff6c80c92926a4b)
REM
REM compiler GCC version 9.2.1 20190827 (Red Hat 9.2.1-1)
REM options -cpp -mtune=generic -march=x86-64 -g -O0 -fpre-include=/usr/include/finclude/math-vector-fortran.h
REM seed -82771647 -1435938292 509151817 -100314002 1039145873 -1696799203 893446825 1466433304 1434835511 1629057697 208414763 -235092449 -262263103 -877532131 -1754880024 1447709897 1821288055 -577609455 -1027113036 507447864 441344947 -932166240 956793670 1711188408 -1068642194 510716600 -1036125642 83765545 -853660874 117223441 -1722131700 1982729536 969622630
REM
CELL 1.54180   50.00000   50.00000   50.00000   90.00000   90.00000   90.00000
LATT -1
SFAC C  
C      1  0.5574210000000  0.5491580000000  0.5201510000000 1.0
C      1  0.5009810000000  0.4353680000000  0.4591890000000 1.0
C      1  0.5265870000000  0.4772780000000  0.4204700000000 1.0
C      1  0.5629860000000  0.5356470000000  0.4722390000000 1.0
C      1  0.5022090000000  0.4742950000000  0.4071030000000 1.0
C      1  0.5548800000000  0.5236790000000  0.5383400000000 1.0
C      1  0.4580780000000  0.4191930000000  0.5385220000000 1.0
C      1  0.4680840000000  0.4852670000000  0.4390420000000 1.0
C      1  0.5672890000000  0.4973200000000  0.5271550000000 1.0
C      1  0.4979340000000  0.5950690000000  0.4910460000000 1.0
C      1  0.4224730000000  0.5040830000000  0.5215660000000 1.0
C      1  0.4478550000000  0.5748370000000  0.5243010000000 1.0
C      1  0.4403280000000  0.5391720000000  0.5615190000000 1.0
C      1  0.4956960000000  0.4652490000000  0.4576600000000 1.0
C      1  0.5085290000000  0.4239960000000  0.5452960000000 1.0
C      1  0.5616280000000  0.4304840000000  0.4629580000000 1.0
C      1  0.5331110000000  0.5348480000000  0.5803490000000 1.0
C      1  0.4458010000000  0.4655900000000  0.4371900000000 1.0
C      1  0.4596980000000  0.5404030000000  0.4356470000000 1.0
C      1  0.5636320000000  0.5038330000000  0.4333840000000 1.0
C      1  0.4886190000000  0.5440030000000  0.4815250000000 1.0
C      1  0.4861770000000  0.4057970000000  0.5374390000000 1.0
C      1  0.5295810000000  0.4874290000000  0.5533980000000 1.0
C      1  0.5173510000000  0.4885330000000  0.4970290000000 1.0
C      1  0.5256420000000  0.4273690000000  0.4769730000000 1.0
C      1  0.5249980000000  0.5162190000000  0.5396820000000 1.0
C      1  0.5374430000000  0.5757960000000  0.4779470000000 1.0
C      1  0.4977240000000  0.5811050000000  0.5272850000000 1.0
C      1  0.5768070000000  0.5459470000000  0.4967350000000 1.0
C      1  0.4668200000000  0.5021550000000  0.5214150000000 1.0
C      1  0.4815700000000  0.4615690000000  0.5625510000000 1.0
C      1  0.4565820000000  0.4487010000000  0.5479180000000 1.0
C      1  0.5288700000000  0.5610930000000  0.5036340000000 1.0
C      1  0.5269440000000  0.4704290000000  0.4506890000000 1.0
C      1  0.5893470000000  0.4877330000000  0.5100940000000 1.0
C      1  0.4125460000000  0.4842440000000  0.5033750000000 1.0
C      1  0.4491640000000  0.4187270000000  0.5096230000000 1.0
C      1  0.5552720000000  0.4531960000000  0.4438750000000 1.0
C      1  0.4709410000000  0.5392990000000  0.4104990000000 1.0
C      1  0.6006630000000  0.5330520000000  0.5029790000000 1.0
C      1  0.4843240000000  0.4821970000000  0.5862090000000 1.0
C      1  0.5414960000000  0.4521630000000  0.4887630000000 1.0
C      1  0.4734980000000  0.4957090000000  0.4924200000000 1.0
C      1  0.4707280000000  0.5863290000000  0.5400090000000 1.0
C      1  0.5212860000000  0.4089390000000  0.5014760000000 1.0
C      1  0.4810100000000  0.4914560000000  0.4124870000000 1.0
C      1  0.5077640000000  0.5140710000000  0.5141290000000 1.0
C      1  0.4747860000000  0.5053640000000  0.5678700000000 1.0
C      1  0.4683870000000  0.5790320000000  0.5668650000000 1.0
C      1  0.5001530000000  0.5690870000000  0.4483910000000 1.0
C      1  0.4753280000000  0.5177190000000  0.4739130000000 1.0
C      1  0.4651300000000  0.5522520000000  0.5733820000000 1.0
C      1  0.5697930000000  0.4418720000000  0.4919550000000 1.0
C      1  0.4757810000000  0.4219790000000  0.4958820000000 1.0
C      1  0.4933850000000  0.4014350000000  0.5077390000000 1.0
C      1  0.4170350000000  0.4577120000000  0.5172710000000 1.0
C      1  0.5459670000000  0.5729370000000  0.5354380000000 1.0
C      1  0.4281920000000  0.4627660000000  0.5459740000000 1.0
C      1  0.4566270000000  0.5145250000000  0.4511700000000 1.0
C      1  0.4314000000000  0.4925120000000  0.5460220000000 1.0
C      1  0.5146370000000  0.5400930000000  0.5573080000000 1.0
C      1  0.4870990000000  0.4872050000000  0.5424250000000 1.0
C      1  0.5866660000000  0.4851990000000  0.4661100000000 1.0
C      1  0.6115750000000  0.5003470000000  0.4702300000000 1.0
C      1  0.4843440000000  0.5335410000000  0.5586110000000 1.0
C      1  0.5605910000000  0.5059610000000  0.4645140000000 1.0
C      1  0.4907320000000  0.5195600000000  0.4117150000000 1.0
C      1  0.5343300000000  0.4919330000000  0.4713090000000 1.0
C      1  0.5374790000000  0.5042260000000  0.4189760000000 1.0
C      1  0.4646260000000  0.4639020000000  0.5221030000000 1.0
C      1  0.4761800000000  0.4212360000000  0.4659270000000 1.0
C      1  0.4515790000000  0.5795780000000  0.4949050000000 1.0
C      1  0.5898320000000  0.4617070000000  0.4966430000000 1.0
C      1  0.6079280000000  0.5068740000000  0.4979310000000 1.0
C      1  0.4855840000000  0.4505500000000  0.5061520000000 1.0
C      1  0.4271020000000  0.5369270000000  0.4844230000000 1.0
C      1  0.5301140000000  0.4739340000000  0.5783600000000 1.0
C      1  0.5300350000000  0.4659430000000  0.5142150000000 1.0
C      1  0.5125120000000  0.5371650000000  0.4966830000000 1.0
C      1  0.5189920000000  0.5684340000000  0.5453870000000 1.0
C      1  0.4441790000000  0.5092370000000  0.5667240000000 1.0
C      1  0.4747270000000  0.5317200000000  0.5286680000000 1.0
C      1  0.5125040000000  0.4884030000000  0.5944210000000 1.0
C      1  0.4386780000000  0.5620480000000  0.4759490000000 1.0
C      1  0.5767710000000  0.4739080000000  0.4382530000000 1.0
C      1  0.5206710000000  0.5154130000000  0.5962720000000 1.0
C      1  0.4288720000000  0.5140340000000  0.4649650000000 1.0
C      1  0.4301550000000  0.4401440000000  0.4703010000000 1.0
C      1  0.5445250000000  0.5545180000000  0.4589750000000 1.0
C      1  0.4342400000000  0.4414840000000  0.4995750000000 1.0
C      1  0.5209750000000  0.5487190000000  0.4417190000000 1.0
C      1  0.4697530000000  0.5624260000000  0.4529490000000 1.0
C      1  0.4465490000000  0.5451700000000  0.5313600000000 1.0
C      1  0.4284120000000  0.5305040000000  0.5129980000000 1.0
C      1  0.5165720000000  0.5244850000000  0.4254320000000 1.0
C      1  0.5489290000000  0.4763870000000  0.5347750000000 1.0
C      1  0.5130490000000  0.5887390000000  0.4675560000000 1.0
C      1  0.4800470000000  0.5721130000000  0.4941860000000 1.0
C      1  0.4238100000000  0.4875740000000  0.4763570000000 1.0
C      1  0.5585170000000  0.5297390000000  0.5675520000000 1.0
C      1  0.4243630000000  0.4655850000000  0.4574380000000 1.0
C      1  0.4924480000000  0.4739470000000  0.4870570000000 1.0
C      1  0.5301930000000  0.4198490000000  0.5265010000000 1.0
C      1  0.4523490000000  0.4315330000000  0.4530330000000 1.0
C      1  0.5064480000000  0.4507840000000  0.5279050000000 1.0
END
