TITL C-950532-2784-594 2.11889779260825e-06 125000 -205.224382627378 0 0 35 (C1) n - 1
REM
REM in /home/bkarasulu/work/CARBON/AIRSS/Generating-Clusters/EDIP-Nigel-Params/with-SteepDescent/Only-C1/SD-CG/HFTN-CG
REM
REM
REM
REM
REM
REM ./C.cell (11c1c37f851c82e70ff6c80c92926a4b)
REM
REM compiler GCC version 9.2.1 20190827 (Red Hat 9.2.1-1)
REM options -cpp -mtune=generic -march=x86-64 -g -O0 -fpre-include=/usr/include/finclude/math-vector-fortran.h
REM seed -2027225259 -370811675 59338083 -1731477550 1494528294 -941271079 1009442381 652824933 -1667383865 1696125121 -1350444764 -1444534429 319974498 1689594593 -95017576 -1379822431 2005485188 -581716874 156062777 1449978865 474681506 -2080759483 -2039668318 -448644201 -1590677168 -1698866644 430122956 -1952948938 804890351 1214269840 292317398 1359661254 1516388412
REM
CELL 1.54180   50.00000   50.00000   50.00000   90.00000   90.00000   90.00000
LATT -1
SFAC C  
C      1  0.4563260000000  0.5076160000000  0.4950060000000 1.0
C      1  0.5155580000000  0.5335160000000  0.5147030000000 1.0
C      1  0.4556650000000  0.5267740000000  0.5355860000000 1.0
C      1  0.5627220000000  0.5056380000000  0.5336780000000 1.0
C      1  0.5642530000000  0.4766730000000  0.4727490000000 1.0
C      1  0.5240590000000  0.4607330000000  0.4927620000000 1.0
C      1  0.4842490000000  0.4710620000000  0.5220450000000 1.0
C      1  0.5067260000000  0.5101070000000  0.4958410000000 1.0
C      1  0.5436570000000  0.5417130000000  0.5062940000000 1.0
C      1  0.4976170000000  0.4500030000000  0.4900950000000 1.0
C      1  0.4685660000000  0.4728300000000  0.5485010000000 1.0
C      1  0.4739790000000  0.4939610000000  0.5657580000000 1.0
C      1  0.4644700000000  0.5359370000000  0.4888760000000 1.0
C      1  0.4861630000000  0.5382200000000  0.4697060000000 1.0
C      1  0.4482210000000  0.4496230000000  0.5023780000000 1.0
C      1  0.4438450000000  0.4773610000000  0.5313660000000 1.0
C      1  0.5400000000000  0.4916120000000  0.5281810000000 1.0
C      1  0.4721140000000  0.5431450000000  0.5167140000000 1.0
C      1  0.5636190000000  0.5183300000000  0.5078970000000 1.0
C      1  0.4654120000000  0.5189920000000  0.5608260000000 1.0
C      1  0.4757700000000  0.4467290000000  0.5076160000000 1.0
C      1  0.5093140000000  0.5532280000000  0.4742090000000 1.0
C      1  0.5290360000000  0.4894480000000  0.5013460000000 1.0
C      1  0.5257590000000  0.4669140000000  0.4468340000000 1.0
C      1  0.5118770000000  0.5122210000000  0.4575950000000 1.0
C      1  0.4847900000000  0.4828650000000  0.4306470000000 1.0
C      1  0.4283570000000  0.4553550000000  0.5200440000000 1.0
C      1  0.4821080000000  0.4961520000000  0.5046010000000 1.0
C      1  0.5364730000000  0.5455090000000  0.4773390000000 1.0
C      1  0.5397280000000  0.5191110000000  0.4644510000000 1.0
C      1  0.5413970000000  0.4600390000000  0.4689390000000 1.0
C      1  0.4975750000000  0.5545910000000  0.5212470000000 1.0
C      1  0.5083170000000  0.4878460000000  0.4416080000000 1.0
C      1  0.5517400000000  0.5004590000000  0.4845660000000 1.0
C      1  0.4405370000000  0.5056840000000  0.5199970000000 1.0
END
