TITL C-951346-9544-409 1.14653359981133e-06 125000 -765.346353768475 0 0 124 (C1) n - 1
REM
REM in /home/bkarasulu/work/CARBON/AIRSS/Generating-Clusters/EDIP-Nigel-Params/with-SteepDescent/Only-C1/SD-CG/HFTN-CG
REM
REM
REM
REM
REM
REM ./C.cell (11c1c37f851c82e70ff6c80c92926a4b)
REM
REM compiler GCC version 9.2.1 20190827 (Red Hat 9.2.1-1)
REM options -cpp -mtune=generic -march=x86-64 -g -O0 -fpre-include=/usr/include/finclude/math-vector-fortran.h
REM seed 181889900 -760376743 1104809208 796388633 -1382534708 -1861287084 1306672117 1826487649 452504026 -1154673617 1605473978 1369438927 1394550460 -1081360573 556133211 -1977269664 -773125724 -1778714529 -1504849881 405751831 -723236339 -444367592 525215125 60784939 383362781 -1607600723 -559199016 -43723071 -2110898815 1862112923 -24618249 94066103 -1921552766
REM
CELL 1.54180   50.00000   50.00000   50.00000   90.00000   90.00000   90.00000
LATT -1
SFAC C  
C      1  0.5614430000000  0.5213120000000  0.4959420000000 1.0
C      1  0.4462850000000  0.5394910000000  0.4171760000000 1.0
C      1  0.4620730000000  0.4551090000000  0.5200840000000 1.0
C      1  0.5275470000000  0.5740290000000  0.5016120000000 1.0
C      1  0.5653880000000  0.4404680000000  0.4864650000000 1.0
C      1  0.4645070000000  0.5620580000000  0.4212080000000 1.0
C      1  0.4616670000000  0.4741210000000  0.4190980000000 1.0
C      1  0.5220170000000  0.4143480000000  0.5660410000000 1.0
C      1  0.4769830000000  0.5437680000000  0.4589510000000 1.0
C      1  0.4407080000000  0.4815690000000  0.5561390000000 1.0
C      1  0.5370800000000  0.4910530000000  0.4193810000000 1.0
C      1  0.5431790000000  0.4787810000000  0.4882210000000 1.0
C      1  0.5307480000000  0.4939790000000  0.5947540000000 1.0
C      1  0.5586170000000  0.4273160000000  0.5124150000000 1.0
C      1  0.5017280000000  0.4566020000000  0.4998680000000 1.0
C      1  0.5244740000000  0.4584570000000  0.5528670000000 1.0
C      1  0.4681340000000  0.4092270000000  0.4789090000000 1.0
C      1  0.5525370000000  0.4601160000000  0.5420280000000 1.0
C      1  0.4644090000000  0.5773300000000  0.4983740000000 1.0
C      1  0.4663080000000  0.4164320000000  0.5476150000000 1.0
C      1  0.6016460000000  0.5338440000000  0.5095020000000 1.0
C      1  0.5544530000000  0.5595120000000  0.5450080000000 1.0
C      1  0.4733370000000  0.4629960000000  0.4925530000000 1.0
C      1  0.5921400000000  0.4794900000000  0.4992760000000 1.0
C      1  0.4238460000000  0.4700310000000  0.4979270000000 1.0
C      1  0.4289060000000  0.5359460000000  0.4383070000000 1.0
C      1  0.5579550000000  0.5481310000000  0.4868890000000 1.0
C      1  0.5434510000000  0.5119030000000  0.4516000000000 1.0
C      1  0.5908930000000  0.5266600000000  0.4575840000000 1.0
C      1  0.4723300000000  0.5424650000000  0.5475840000000 1.0
C      1  0.4413250000000  0.4032380000000  0.4829760000000 1.0
C      1  0.4381380000000  0.4347030000000  0.5199250000000 1.0
C      1  0.4974900000000  0.4514140000000  0.5297700000000 1.0
C      1  0.4319430000000  0.4517150000000  0.5545650000000 1.0
C      1  0.5014260000000  0.5052260000000  0.4251300000000 1.0
C      1  0.5741930000000  0.4743000000000  0.4498830000000 1.0
C      1  0.4518560000000  0.5307100000000  0.5261070000000 1.0
C      1  0.3981860000000  0.4865950000000  0.5352940000000 1.0
C      1  0.5026520000000  0.4273990000000  0.4468920000000 1.0
C      1  0.4709690000000  0.5350020000000  0.5775980000000 1.0
C      1  0.4978960000000  0.6010610000000  0.4707510000000 1.0
C      1  0.5147300000000  0.4121980000000  0.5390750000000 1.0
C      1  0.5697170000000  0.4382850000000  0.5362350000000 1.0
C      1  0.4057240000000  0.5380900000000  0.4923960000000 1.0
C      1  0.4877080000000  0.4084580000000  0.5005960000000 1.0
C      1  0.4730250000000  0.4553490000000  0.5786230000000 1.0
C      1  0.4982790000000  0.4847460000000  0.4480690000000 1.0
C      1  0.4673940000000  0.5044590000000  0.5175760000000 1.0
C      1  0.5019890000000  0.5581850000000  0.5122620000000 1.0
C      1  0.5835180000000  0.4628440000000  0.4786530000000 1.0
C      1  0.4556560000000  0.4365910000000  0.5642670000000 1.0
C      1  0.5314470000000  0.4635230000000  0.4278650000000 1.0
C      1  0.4294040000000  0.4265970000000  0.4919880000000 1.0
C      1  0.4132430000000  0.4943900000000  0.4894290000000 1.0
C      1  0.5030040000000  0.4807760000000  0.5433450000000 1.0
C      1  0.5813670000000  0.5206200000000  0.5572910000000 1.0
C      1  0.5013430000000  0.5348840000000  0.4370690000000 1.0
C      1  0.5583510000000  0.4989570000000  0.4755200000000 1.0
C      1  0.5164740000000  0.4799740000000  0.4940470000000 1.0
C      1  0.4859270000000  0.5663500000000  0.4036060000000 1.0
C      1  0.5002670000000  0.4973620000000  0.4772920000000 1.0
C      1  0.5346770000000  0.5735690000000  0.5609780000000 1.0
C      1  0.4905700000000  0.5431030000000  0.4877510000000 1.0
C      1  0.5109330000000  0.5248700000000  0.4806610000000 1.0
C      1  0.5532900000000  0.5294170000000  0.5471600000000 1.0
C      1  0.5322650000000  0.4141100000000  0.5156200000000 1.0
C      1  0.4615500000000  0.4514230000000  0.4667770000000 1.0
C      1  0.5272870000000  0.5977800000000  0.5483190000000 1.0
C      1  0.4686370000000  0.4758390000000  0.4477240000000 1.0
C      1  0.4819020000000  0.5073780000000  0.5844250000000 1.0
C      1  0.5823140000000  0.4928600000000  0.5226750000000 1.0
C      1  0.5179870000000  0.5545480000000  0.5765170000000 1.0
C      1  0.4800660000000  0.5834610000000  0.5709250000000 1.0
C      1  0.5607510000000  0.5748760000000  0.5219060000000 1.0
C      1  0.4046840000000  0.5150890000000  0.5098560000000 1.0
C      1  0.4894530000000  0.5600800000000  0.5846580000000 1.0
C      1  0.5566280000000  0.4919530000000  0.5886150000000 1.0
C      1  0.4498890000000  0.5005140000000  0.4659010000000 1.0
C      1  0.5060820000000  0.4509590000000  0.4310510000000 1.0
C      1  0.5221260000000  0.4239330000000  0.4676860000000 1.0
C      1  0.5486290000000  0.4343710000000  0.4639660000000 1.0
C      1  0.5391460000000  0.5948780000000  0.5224090000000 1.0
C      1  0.4310650000000  0.4518380000000  0.4734820000000 1.0
C      1  0.4947430000000  0.5053750000000  0.5285730000000 1.0
C      1  0.5703730000000  0.5211210000000  0.4386310000000 1.0
C      1  0.5221950000000  0.5880630000000  0.4754860000000 1.0
C      1  0.4216830000000  0.4743000000000  0.4454080000000 1.0
C      1  0.5212770000000  0.5293320000000  0.5615900000000 1.0
C      1  0.5786810000000  0.4746990000000  0.5466410000000 1.0
C      1  0.4760670000000  0.4187690000000  0.4530730000000 1.0
C      1  0.4106030000000  0.4622030000000  0.5237830000000 1.0
C      1  0.5246330000000  0.5344380000000  0.4571000000000 1.0
C      1  0.5702360000000  0.4942760000000  0.4232160000000 1.0
C      1  0.4828720000000  0.5804070000000  0.5211230000000 1.0
C      1  0.4172740000000  0.5005900000000  0.5526120000000 1.0
C      1  0.5503660000000  0.5145590000000  0.5214560000000 1.0
C      1  0.4746410000000  0.5854960000000  0.4713400000000 1.0
C      1  0.5554790000000  0.5570490000000  0.4605620000000 1.0
C      1  0.4764300000000  0.4976530000000  0.4071590000000 1.0
C      1  0.5774140000000  0.4940180000000  0.5702570000000 1.0
C      1  0.5198220000000  0.4401980000000  0.5759810000000 1.0
C      1  0.5117180000000  0.5061420000000  0.5785240000000 1.0
C      1  0.5991620000000  0.5161070000000  0.5317250000000 1.0
C      1  0.5154570000000  0.4104600000000  0.4923060000000 1.0
C      1  0.4706930000000  0.5723560000000  0.5465520000000 1.0
C      1  0.5006800000000  0.5330570000000  0.5377750000000 1.0
C      1  0.4516280000000  0.5141670000000  0.4043700000000 1.0
C      1  0.4530880000000  0.4814040000000  0.5293890000000 1.0
C      1  0.4118530000000  0.4959990000000  0.4611270000000 1.0
C      1  0.4313150000000  0.5452280000000  0.4824990000000 1.0
C      1  0.5535060000000  0.4537190000000  0.4431240000000 1.0
C      1  0.4469990000000  0.5310160000000  0.4607290000000 1.0
C      1  0.5081530000000  0.5565070000000  0.4172540000000 1.0
C      1  0.4618600000000  0.5772640000000  0.4463220000000 1.0
C      1  0.4632410000000  0.4833850000000  0.5781790000000 1.0
C      1  0.5254250000000  0.5755570000000  0.4277220000000 1.0
C      1  0.6014560000000  0.5337320000000  0.4819710000000 1.0
C      1  0.4872490000000  0.4087460000000  0.5304110000000 1.0
C      1  0.4968270000000  0.4466060000000  0.5900880000000 1.0
C      1  0.4232860000000  0.5228380000000  0.5339470000000 1.0
C      1  0.4714370000000  0.4943050000000  0.4888080000000 1.0
C      1  0.4345240000000  0.4832380000000  0.4202610000000 1.0
C      1  0.5363600000000  0.5766100000000  0.4532670000000 1.0
C      1  0.4499340000000  0.5516170000000  0.5031220000000 1.0
END
