TITL C-951344-124-96 -7.83636612707738e-06 125000 -102.930200493535 0 0 19 (C1) n - 1
REM
REM in /home/bkarasulu/work/CARBON/AIRSS/Generating-Clusters/EDIP-Nigel-Params/with-SteepDescent/Only-C1/SD-CG/HFTN-CG
REM
REM
REM
REM
REM
REM ./C.cell (11c1c37f851c82e70ff6c80c92926a4b)
REM
REM compiler GCC version 9.2.1 20190827 (Red Hat 9.2.1-1)
REM options -cpp -mtune=generic -march=x86-64 -g -O0 -fpre-include=/usr/include/finclude/math-vector-fortran.h
REM seed -1588813899 -1209786383 -1012571214 1959182317 -680951322 1967632582 76979148 30147668 512853986 1908589251 -464483554 -1759438780 1799476058 22811907 2096866415 2131505006 1492536628 1326800171 -895953274 1862859856 -1263399657 -906559106 -1380277991 1252101553 655770857 862768571 1858087699 1534455237 1221869918 -19450265 701205875 -242922176 -1933967905
REM
CELL 1.54180   50.00000   50.00000   50.00000   90.00000   90.00000   90.00000
LATT -1
SFAC C  
C      1  0.5190010000000  0.5013620000000  0.4945220000000 1.0
C      1  0.5329480000000  0.5258430000000  0.5057070000000 1.0
C      1  0.4409430000000  0.5209940000000  0.5115030000000 1.0
C      1  0.5170940000000  0.5490670000000  0.5018550000000 1.0
C      1  0.4689450000000  0.4967630000000  0.4801210000000 1.0
C      1  0.5260890000000  0.4986690000000  0.5424010000000 1.0
C      1  0.5001830000000  0.5504420000000  0.4799860000000 1.0
C      1  0.5033490000000  0.4622550000000  0.5212200000000 1.0
C      1  0.5042360000000  0.4938350000000  0.5209130000000 1.0
C      1  0.5340940000000  0.4541680000000  0.4846610000000 1.0
C      1  0.5397290000000  0.4807550000000  0.4893080000000 1.0
C      1  0.4620690000000  0.5216110000000  0.4956360000000 1.0
C      1  0.4478280000000  0.4759650000000  0.4794860000000 1.0
C      1  0.4791670000000  0.5443590000000  0.4968900000000 1.0
C      1  0.4971450000000  0.4865340000000  0.4776120000000 1.0
C      1  0.5423460000000  0.5189110000000  0.5313650000000 1.0
C      1  0.4513670000000  0.4908710000000  0.4570430000000 1.0
C      1  0.5062240000000  0.4589440000000  0.4908870000000 1.0
C      1  0.5272440000000  0.4686510000000  0.5388850000000 1.0
END
