TITL C-951342-2639-460 -2.71981051783131e-06 125000 -1221.3478260967 0 0 196 (C1) n - 1
REM
REM in /home/bkarasulu/work/CARBON/AIRSS/Generating-Clusters/EDIP-Nigel-Params/with-SteepDescent/Only-C1/SD-CG/HFTN-CG
REM
REM
REM
REM
REM
REM ./C.cell (11c1c37f851c82e70ff6c80c92926a4b)
REM
REM compiler GCC version 9.2.1 20190827 (Red Hat 9.2.1-1)
REM options -cpp -mtune=generic -march=x86-64 -g -O0 -fpre-include=/usr/include/finclude/math-vector-fortran.h
REM seed 521594909 1589695986 -819186109 -1428533671 -1664509535 -787348207 -120223643 -1797368051 -894974494 -1535214385 -1599384563 107384932 1922432384 2018802472 614130867 -103099840 816121767 530814009 1119345942 1536983375 -1209784107 -908301669 941897209 -1112368194 1474285121 -650126041 281095197 344031541 -927713091 2003092278 7760277 1384465663 1615164787
REM
CELL 1.54180   50.00000   50.00000   50.00000   90.00000   90.00000   90.00000
LATT -1
SFAC C  
C      1  0.4591870000000  0.3911840000000  0.5070730000000 1.0
C      1  0.4387750000000  0.4107890000000  0.5513720000000 1.0
C      1  0.5231560000000  0.4688330000000  0.6141050000000 1.0
C      1  0.4749830000000  0.5488760000000  0.5859940000000 1.0
C      1  0.5818090000000  0.5624660000000  0.4581050000000 1.0
C      1  0.3914960000000  0.4814310000000  0.5034730000000 1.0
C      1  0.5571280000000  0.4041710000000  0.4681120000000 1.0
C      1  0.6065310000000  0.5326300000000  0.5323590000000 1.0
C      1  0.4776380000000  0.4701170000000  0.5851690000000 1.0
C      1  0.4919540000000  0.4234740000000  0.4183790000000 1.0
C      1  0.4277550000000  0.4832710000000  0.5425920000000 1.0
C      1  0.5304830000000  0.3953780000000  0.5108620000000 1.0
C      1  0.5042590000000  0.4268010000000  0.5393070000000 1.0
C      1  0.4496600000000  0.5178970000000  0.6091330000000 1.0
C      1  0.4962550000000  0.4575450000000  0.6174760000000 1.0
C      1  0.4964490000000  0.4977190000000  0.3889570000000 1.0
C      1  0.5019960000000  0.5557450000000  0.4838480000000 1.0
C      1  0.6144080000000  0.5192280000000  0.5077040000000 1.0
C      1  0.5171040000000  0.3801040000000  0.4636750000000 1.0
C      1  0.5239710000000  0.6115910000000  0.4732910000000 1.0
C      1  0.5166840000000  0.5653900000000  0.5914710000000 1.0
C      1  0.5270220000000  0.5274230000000  0.4382990000000 1.0
C      1  0.4350670000000  0.4995930000000  0.5914290000000 1.0
C      1  0.5893650000000  0.5565990000000  0.5324110000000 1.0
C      1  0.4932010000000  0.4745130000000  0.5395390000000 1.0
C      1  0.5541090000000  0.4194510000000  0.4441090000000 1.0
C      1  0.5421570000000  0.4847570000000  0.5509040000000 1.0
C      1  0.5357000000000  0.3911760000000  0.4817410000000 1.0
C      1  0.5142900000000  0.6093250000000  0.5019500000000 1.0
C      1  0.5516750000000  0.4827060000000  0.4478350000000 1.0
C      1  0.4222910000000  0.5359520000000  0.4661530000000 1.0
C      1  0.5287580000000  0.4425130000000  0.5183350000000 1.0
C      1  0.5972690000000  0.5435770000000  0.4408860000000 1.0
C      1  0.4620990000000  0.4640260000000  0.4396770000000 1.0
C      1  0.4879960000000  0.5519120000000  0.4082870000000 1.0
C      1  0.4528050000000  0.4667780000000  0.6205780000000 1.0
C      1  0.6170800000000  0.4886680000000  0.5104810000000 1.0
C      1  0.4875950000000  0.5035150000000  0.4167370000000 1.0
C      1  0.4948440000000  0.5524910000000  0.6080340000000 1.0
C      1  0.5751420000000  0.4407090000000  0.4405990000000 1.0
C      1  0.4689160000000  0.5160810000000  0.5208810000000 1.0
C      1  0.5386010000000  0.5877050000000  0.4607050000000 1.0
C      1  0.4824740000000  0.5203730000000  0.5757610000000 1.0
C      1  0.4499570000000  0.4328200000000  0.5713750000000 1.0
C      1  0.4926030000000  0.3976830000000  0.5419120000000 1.0
C      1  0.4810000000000  0.4749620000000  0.3793000000000 1.0
C      1  0.4836670000000  0.6103220000000  0.5021980000000 1.0
C      1  0.5596450000000  0.5028280000000  0.5071070000000 1.0
C      1  0.5006010000000  0.4932750000000  0.5824490000000 1.0
C      1  0.4037730000000  0.4809670000000  0.4503000000000 1.0
C      1  0.5233420000000  0.5265540000000  0.5149790000000 1.0
C      1  0.3875910000000  0.5043440000000  0.4495440000000 1.0
C      1  0.4401620000000  0.6101030000000  0.5509910000000 1.0
C      1  0.5953800000000  0.4329840000000  0.5137520000000 1.0
C      1  0.5714040000000  0.4155250000000  0.5082320000000 1.0
C      1  0.5271260000000  0.5800770000000  0.4191150000000 1.0
C      1  0.4463200000000  0.4616540000000  0.4674740000000 1.0
C      1  0.5411870000000  0.5337080000000  0.4123700000000 1.0
C      1  0.5444120000000  0.5658920000000  0.4811020000000 1.0
C      1  0.5600740000000  0.4631980000000  0.4262760000000 1.0
C      1  0.5246710000000  0.4272380000000  0.4328580000000 1.0
C      1  0.5651820000000  0.5175050000000  0.4806670000000 1.0
C      1  0.4993250000000  0.5261520000000  0.6209180000000 1.0
C      1  0.4038370000000  0.5456760000000  0.5091200000000 1.0
C      1  0.4254240000000  0.4397970000000  0.4613870000000 1.0
C      1  0.4922480000000  0.3881080000000  0.4730100000000 1.0
C      1  0.4852280000000  0.4395110000000  0.5860800000000 1.0
C      1  0.5700740000000  0.4837520000000  0.4053470000000 1.0
C      1  0.5520360000000  0.4063270000000  0.5296810000000 1.0
C      1  0.5058240000000  0.3827110000000  0.5206760000000 1.0
C      1  0.4321230000000  0.4430480000000  0.5100050000000 1.0
C      1  0.5673440000000  0.4745340000000  0.5106490000000 1.0
C      1  0.6206820000000  0.4714820000000  0.4874250000000 1.0
C      1  0.5410200000000  0.5355070000000  0.4698970000000 1.0
C      1  0.4043230000000  0.5052160000000  0.5446880000000 1.0
C      1  0.5226460000000  0.5555480000000  0.4027660000000 1.0
C      1  0.3969070000000  0.4540460000000  0.4611780000000 1.0
C      1  0.4760750000000  0.5590020000000  0.4726840000000 1.0
C      1  0.5440310000000  0.4570060000000  0.5940670000000 1.0
C      1  0.5854240000000  0.4331310000000  0.5518350000000 1.0
C      1  0.5776190000000  0.5671610000000  0.5086100000000 1.0
C      1  0.4965710000000  0.5303520000000  0.5293480000000 1.0
C      1  0.6155890000000  0.5292780000000  0.4578420000000 1.0
C      1  0.5107120000000  0.5707320000000  0.5075840000000 1.0
C      1  0.4358760000000  0.4719590000000  0.5989940000000 1.0
C      1  0.5085790000000  0.5870920000000  0.5709740000000 1.0
C      1  0.4608860000000  0.4884680000000  0.4183840000000 1.0
C      1  0.4719750000000  0.4345490000000  0.5282550000000 1.0
C      1  0.5092160000000  0.4412950000000  0.4548070000000 1.0
C      1  0.5444700000000  0.5015970000000  0.4023050000000 1.0
C      1  0.4402770000000  0.5065810000000  0.4268940000000 1.0
C      1  0.4258100000000  0.5231760000000  0.4080400000000 1.0
C      1  0.4399360000000  0.5307330000000  0.5510550000000 1.0
C      1  0.4727200000000  0.5391730000000  0.4513000000000 1.0
C      1  0.4294220000000  0.4245000000000  0.4857890000000 1.0
C      1  0.5544500000000  0.5873170000000  0.4247340000000 1.0
C      1  0.4382710000000  0.6140920000000  0.5213760000000 1.0
C      1  0.4634050000000  0.4047870000000  0.5330810000000 1.0
C      1  0.4314500000000  0.5849340000000  0.5157800000000 1.0
C      1  0.5598340000000  0.5901850000000  0.5073120000000 1.0
C      1  0.4348580000000  0.4487570000000  0.4168660000000 1.0
C      1  0.6023190000000  0.4547800000000  0.5448760000000 1.0
C      1  0.6068520000000  0.4447920000000  0.4872520000000 1.0
C      1  0.3899030000000  0.4803090000000  0.5330720000000 1.0
C      1  0.4571530000000  0.5083000000000  0.5624580000000 1.0
C      1  0.5814030000000  0.5236070000000  0.4274020000000 1.0
C      1  0.5320600000000  0.5902680000000  0.5502740000000 1.0
C      1  0.5973820000000  0.4821310000000  0.4587710000000 1.0
C      1  0.4905210000000  0.5600280000000  0.5273160000000 1.0
C      1  0.5415610000000  0.5623360000000  0.5473820000000 1.0
C      1  0.5552800000000  0.4809100000000  0.5790850000000 1.0
C      1  0.4236090000000  0.5390570000000  0.5748910000000 1.0
C      1  0.4075340000000  0.5603450000000  0.5592820000000 1.0
C      1  0.5128840000000  0.4593200000000  0.5002090000000 1.0
C      1  0.5364130000000  0.4485350000000  0.4155210000000 1.0
C      1  0.4577820000000  0.5439420000000  0.4037030000000 1.0
C      1  0.4291200000000  0.5796300000000  0.5480660000000 1.0
C      1  0.4389370000000  0.4277730000000  0.4353690000000 1.0
C      1  0.5733110000000  0.5005710000000  0.4561190000000 1.0
C      1  0.5259820000000  0.5458350000000  0.5695610000000 1.0
C      1  0.5231710000000  0.4865620000000  0.3869850000000 1.0
C      1  0.5031660000000  0.5298450000000  0.5574050000000 1.0
C      1  0.4090880000000  0.5396020000000  0.4238590000000 1.0
C      1  0.4674650000000  0.5159010000000  0.4706460000000 1.0
C      1  0.4664270000000  0.6184400000000  0.5239970000000 1.0
C      1  0.4550600000000  0.4776770000000  0.3905940000000 1.0
C      1  0.4649110000000  0.4476330000000  0.4982560000000 1.0
C      1  0.4680040000000  0.4201200000000  0.4377940000000 1.0
C      1  0.3861560000000  0.4597150000000  0.4867120000000 1.0
C      1  0.4396580000000  0.5100510000000  0.4564120000000 1.0
C      1  0.5036100000000  0.5900110000000  0.4341420000000 1.0
C      1  0.4690520000000  0.4753060000000  0.5557300000000 1.0
C      1  0.5372980000000  0.6024530000000  0.5222670000000 1.0
C      1  0.5237650000000  0.4614210000000  0.4735180000000 1.0
C      1  0.5483340000000  0.5287670000000  0.5806130000000 1.0
C      1  0.4456140000000  0.5452640000000  0.5963350000000 1.0
C      1  0.3988020000000  0.5404030000000  0.5380430000000 1.0
C      1  0.5707280000000  0.5563860000000  0.5539150000000 1.0
C      1  0.4506240000000  0.5586220000000  0.5454430000000 1.0
C      1  0.5459770000000  0.5041280000000  0.5953830000000 1.0
C      1  0.4272000000000  0.4858670000000  0.4682210000000 1.0
C      1  0.5610820000000  0.4589290000000  0.4838140000000 1.0
C      1  0.4122460000000  0.5722860000000  0.4976010000000 1.0
C      1  0.4844220000000  0.5697440000000  0.5615450000000 1.0
C      1  0.4373990000000  0.4786900000000  0.5134780000000 1.0
C      1  0.5087970000000  0.4334700000000  0.5679800000000 1.0
C      1  0.6095350000000  0.4829010000000  0.4328080000000 1.0
C      1  0.4135060000000  0.4561380000000  0.5533030000000 1.0
C      1  0.5493010000000  0.4316730000000  0.4938030000000 1.0
C      1  0.4698730000000  0.4025170000000  0.4611210000000 1.0
C      1  0.4615110000000  0.5601930000000  0.5146490000000 1.0
C      1  0.4746120000000  0.6070250000000  0.4740800000000 1.0
C      1  0.5374320000000  0.4341280000000  0.5748050000000 1.0
C      1  0.4178780000000  0.4934850000000  0.4960850000000 1.0
C      1  0.5679110000000  0.5874260000000  0.4501230000000 1.0
C      1  0.4766810000000  0.5076890000000  0.6178990000000 1.0
C      1  0.5150660000000  0.5286220000000  0.4851900000000 1.0
C      1  0.4768440000000  0.4791720000000  0.6277430000000 1.0
C      1  0.5923650000000  0.5596650000000  0.4851760000000 1.0
C      1  0.5133100000000  0.4869710000000  0.5555130000000 1.0
C      1  0.4809510000000  0.5782690000000  0.4217720000000 1.0
C      1  0.4199290000000  0.4306770000000  0.5360970000000 1.0
C      1  0.4543530000000  0.5330870000000  0.5012320000000 1.0
C      1  0.4570150000000  0.4505870000000  0.5482950000000 1.0
C      1  0.5515180000000  0.5105610000000  0.5361760000000 1.0
C      1  0.4477060000000  0.5500130000000  0.4323200000000 1.0
C      1  0.5481870000000  0.4631700000000  0.5309710000000 1.0
C      1  0.4401130000000  0.4538930000000  0.3902650000000 1.0
C      1  0.4879280000000  0.4717000000000  0.5102800000000 1.0
C      1  0.4526930000000  0.4074420000000  0.4841490000000 1.0
C      1  0.4947800000000  0.5304660000000  0.4301990000000 1.0
C      1  0.5928490000000  0.5152310000000  0.5707170000000 1.0
C      1  0.5949060000000  0.4754850000000  0.5258840000000 1.0
C      1  0.6149630000000  0.5220730000000  0.5568830000000 1.0
C      1  0.5570810000000  0.4257780000000  0.5524640000000 1.0
C      1  0.3975410000000  0.5310590000000  0.4490320000000 1.0
C      1  0.4849660000000  0.3789900000000  0.4995820000000 1.0
C      1  0.4571380000000  0.5814410000000  0.4663260000000 1.0
C      1  0.4648870000000  0.4905980000000  0.5070810000000 1.0
C      1  0.5358430000000  0.5548540000000  0.5174660000000 1.0
C      1  0.5927850000000  0.4989170000000  0.4163020000000 1.0
C      1  0.4931500000000  0.4437140000000  0.3961430000000 1.0
C      1  0.4963200000000  0.5062480000000  0.4752370000000 1.0
C      1  0.4225460000000  0.5260590000000  0.4962250000000 1.0
C      1  0.5686260000000  0.5270390000000  0.5598210000000 1.0
C      1  0.4273520000000  0.5672550000000  0.4723240000000 1.0
C      1  0.5855270000000  0.4540050000000  0.4664090000000 1.0
C      1  0.6016650000000  0.5313940000000  0.4832740000000 1.0
C      1  0.5193530000000  0.4975470000000  0.6064550000000 1.0
C      1  0.4997120000000  0.6088420000000  0.4567930000000 1.0
C      1  0.5081320000000  0.4856510000000  0.4568990000000 1.0
C      1  0.5282850000000  0.4969610000000  0.4371280000000 1.0
C      1  0.4550830000000  0.5790170000000  0.4361590000000 1.0
C      1  0.4914880000000  0.4631700000000  0.4435420000000 1.0
C      1  0.5189620000000  0.4579920000000  0.3950290000000 1.0
C      1  0.4270490000000  0.4500510000000  0.5809420000000 1.0
END
