TITL C-950529-3362-689 -1.14476754195223e-06 125000 -993.200661817633 0 0 160 (C1) n - 1
REM
REM in /home/bkarasulu/work/CARBON/AIRSS/Generating-Clusters/EDIP-Nigel-Params/with-SteepDescent/Only-C1/SD-CG/HFTN-CG
REM
REM
REM
REM
REM
REM ./C.cell (11c1c37f851c82e70ff6c80c92926a4b)
REM
REM compiler GCC version 9.2.1 20190827 (Red Hat 9.2.1-1)
REM options -cpp -mtune=generic -march=x86-64 -g -O0 -fpre-include=/usr/include/finclude/math-vector-fortran.h
REM seed 1707073248 1774421632 1750011321 1867239915 -1634419038 1245329364 -759225744 -1065185273 -1805648967 -2046070838 -1189372590 2141921718 -502867250 1994041026 -220213907 -1481018309 -1496533968 -2094371891 768511511 1967440431 -1624969375 765922900 -1392630526 1878363005 -223658530 -586687877 -668693201 1686763575 -354773869 1823619023 1873064063 855336796 1086589512
REM
CELL 1.54180   50.00000   50.00000   50.00000   90.00000   90.00000   90.00000
LATT -1
SFAC C  
C      1  0.5250030000000  0.4237500000000  0.4273500000000 1.0
C      1  0.5009380000000  0.3944230000000  0.5229350000000 1.0
C      1  0.4468340000000  0.4907800000000  0.4008010000000 1.0
C      1  0.4100900000000  0.4330800000000  0.4714420000000 1.0
C      1  0.5505470000000  0.4623460000000  0.5826000000000 1.0
C      1  0.4602330000000  0.6093310000000  0.5054430000000 1.0
C      1  0.4161800000000  0.4558770000000  0.5173280000000 1.0
C      1  0.5334470000000  0.5992710000000  0.5179180000000 1.0
C      1  0.4197690000000  0.4842450000000  0.5801040000000 1.0
C      1  0.4454780000000  0.5572070000000  0.5484320000000 1.0
C      1  0.5516480000000  0.4336060000000  0.4248250000000 1.0
C      1  0.5875270000000  0.4744290000000  0.4731160000000 1.0
C      1  0.5578380000000  0.4906940000000  0.5857090000000 1.0
C      1  0.4388810000000  0.4375920000000  0.5253200000000 1.0
C      1  0.5176550000000  0.4079050000000  0.4531290000000 1.0
C      1  0.5601940000000  0.5477310000000  0.4470280000000 1.0
C      1  0.4583230000000  0.4315720000000  0.4539240000000 1.0
C      1  0.4397940000000  0.5159290000000  0.5890090000000 1.0
C      1  0.5259800000000  0.5652820000000  0.4840200000000 1.0
C      1  0.4967530000000  0.5090700000000  0.4371000000000 1.0
C      1  0.5459860000000  0.4651480000000  0.5387520000000 1.0
C      1  0.5175820000000  0.4998310000000  0.4912610000000 1.0
C      1  0.4895210000000  0.4737910000000  0.3871020000000 1.0
C      1  0.4548000000000  0.5734730000000  0.4405340000000 1.0
C      1  0.4294790000000  0.4909260000000  0.4243700000000 1.0
C      1  0.4290270000000  0.4589500000000  0.5706580000000 1.0
C      1  0.4353660000000  0.4203270000000  0.4741620000000 1.0
C      1  0.5174810000000  0.4404470000000  0.5316040000000 1.0
C      1  0.5064630000000  0.6055810000000  0.5076280000000 1.0
C      1  0.5123240000000  0.4649970000000  0.4033940000000 1.0
C      1  0.4182670000000  0.4871280000000  0.5205120000000 1.0
C      1  0.6043430000000  0.4988280000000  0.4792890000000 1.0
C      1  0.4123230000000  0.4580060000000  0.4863920000000 1.0
C      1  0.5156390000000  0.5403230000000  0.5513510000000 1.0
C      1  0.4216430000000  0.5518330000000  0.4877120000000 1.0
C      1  0.4396360000000  0.4689600000000  0.4821320000000 1.0
C      1  0.5269710000000  0.4094630000000  0.5209350000000 1.0
C      1  0.6072590000000  0.5347150000000  0.5488740000000 1.0
C      1  0.4854070000000  0.4816270000000  0.5512940000000 1.0
C      1  0.5383910000000  0.5198680000000  0.4102330000000 1.0
C      1  0.4359130000000  0.4639970000000  0.4344300000000 1.0
C      1  0.5040410000000  0.4596250000000  0.4504850000000 1.0
C      1  0.4586410000000  0.5281380000000  0.5425760000000 1.0
C      1  0.5530760000000  0.4578680000000  0.4392060000000 1.0
C      1  0.5981620000000  0.4762480000000  0.5233890000000 1.0
C      1  0.4239970000000  0.5802650000000  0.4944740000000 1.0
C      1  0.3951010000000  0.4842630000000  0.4814930000000 1.0
C      1  0.5381350000000  0.4873770000000  0.4735060000000 1.0
C      1  0.4853870000000  0.5019370000000  0.5732920000000 1.0
C      1  0.3901530000000  0.4936510000000  0.5094360000000 1.0
C      1  0.5808380000000  0.5437550000000  0.5080400000000 1.0
C      1  0.4049270000000  0.4999590000000  0.5607360000000 1.0
C      1  0.4203200000000  0.5142490000000  0.4420070000000 1.0
C      1  0.5263630000000  0.5688120000000  0.4209000000000 1.0
C      1  0.4833690000000  0.4814380000000  0.4555170000000 1.0
C      1  0.5306940000000  0.4913210000000  0.5379190000000 1.0
C      1  0.5416460000000  0.4076490000000  0.5479770000000 1.0
C      1  0.5261680000000  0.5454220000000  0.4013950000000 1.0
C      1  0.5390790000000  0.5403220000000  0.4679000000000 1.0
C      1  0.4889140000000  0.3958340000000  0.4744920000000 1.0
C      1  0.5672170000000  0.4440750000000  0.5696420000000 1.0
C      1  0.4842320000000  0.4579430000000  0.4984490000000 1.0
C      1  0.5654770000000  0.5024100000000  0.5080060000000 1.0
C      1  0.5620510000000  0.5232380000000  0.4279320000000 1.0
C      1  0.4515180000000  0.5454960000000  0.4983930000000 1.0
C      1  0.4378880000000  0.4357670000000  0.5567390000000 1.0
C      1  0.4758420000000  0.5505300000000  0.5797140000000 1.0
C      1  0.6093980000000  0.5007600000000  0.5093310000000 1.0
C      1  0.4771720000000  0.4640230000000  0.5994240000000 1.0
C      1  0.4737390000000  0.5257640000000  0.4258070000000 1.0
C      1  0.4950420000000  0.5308490000000  0.4819580000000 1.0
C      1  0.5048030000000  0.5838390000000  0.4685920000000 1.0
C      1  0.5742610000000  0.4837570000000  0.5404790000000 1.0
C      1  0.5081070000000  0.5695000000000  0.5478870000000 1.0
C      1  0.4165910000000  0.5820900000000  0.5216900000000 1.0
C      1  0.4607080000000  0.4958510000000  0.5880590000000 1.0
C      1  0.4403930000000  0.4142250000000  0.5036200000000 1.0
C      1  0.5049340000000  0.4457920000000  0.4242250000000 1.0
C      1  0.4802970000000  0.4373270000000  0.5873670000000 1.0
C      1  0.4922290000000  0.5070820000000  0.3874070000000 1.0
C      1  0.5700750000000  0.5264070000000  0.4873420000000 1.0
C      1  0.5087360000000  0.4321090000000  0.5829930000000 1.0
C      1  0.5082680000000  0.4994380000000  0.5924930000000 1.0
C      1  0.4930020000000  0.5660020000000  0.5214770000000 1.0
C      1  0.5652150000000  0.4264720000000  0.5478680000000 1.0
C      1  0.5797440000000  0.4984310000000  0.5673030000000 1.0
C      1  0.4552510000000  0.3910350000000  0.5087790000000 1.0
C      1  0.5337520000000  0.5868740000000  0.5453580000000 1.0
C      1  0.4994650000000  0.5393420000000  0.3896470000000 1.0
C      1  0.5831620000000  0.5600270000000  0.4630040000000 1.0
C      1  0.4171680000000  0.5599970000000  0.5394470000000 1.0
C      1  0.4703750000000  0.5932330000000  0.5488320000000 1.0
C      1  0.4681160000000  0.5448000000000  0.4740580000000 1.0
C      1  0.5567450000000  0.5573640000000  0.5191330000000 1.0
C      1  0.5974700000000  0.4497250000000  0.5100050000000 1.0
C      1  0.5483580000000  0.5793750000000  0.4989680000000 1.0
C      1  0.4545610000000  0.5302400000000  0.4491200000000 1.0
C      1  0.4363280000000  0.4950430000000  0.4955000000000 1.0
C      1  0.4779550000000  0.5552460000000  0.4007880000000 1.0
C      1  0.5249120000000  0.4535860000000  0.5931540000000 1.0
C      1  0.5095740000000  0.5490110000000  0.5030740000000 1.0
C      1  0.5167110000000  0.4089200000000  0.5665710000000 1.0
C      1  0.4653310000000  0.5250040000000  0.5146920000000 1.0
C      1  0.5323130000000  0.4615050000000  0.4609910000000 1.0
C      1  0.4621250000000  0.5685970000000  0.5207300000000 1.0
C      1  0.5372400000000  0.5092260000000  0.5151440000000 1.0
C      1  0.4497540000000  0.5919360000000  0.4861080000000 1.0
C      1  0.4108020000000  0.5059840000000  0.4687550000000 1.0
C      1  0.4064070000000  0.5362290000000  0.5264020000000 1.0
C      1  0.5101370000000  0.4613440000000  0.5122530000000 1.0
C      1  0.5355180000000  0.5359720000000  0.5730830000000 1.0
C      1  0.4354760000000  0.5500340000000  0.4384800000000 1.0
C      1  0.4635090000000  0.4977110000000  0.5071400000000 1.0
C      1  0.5597080000000  0.5701410000000  0.5465040000000 1.0
C      1  0.5993340000000  0.5265530000000  0.5229960000000 1.0
C      1  0.5457230000000  0.4009860000000  0.4978790000000 1.0
C      1  0.6019120000000  0.4508730000000  0.4822740000000 1.0
C      1  0.5364640000000  0.4418670000000  0.4829280000000 1.0
C      1  0.5347390000000  0.5090670000000  0.5847150000000 1.0
C      1  0.5056370000000  0.6109280000000  0.4798170000000 1.0
C      1  0.4861020000000  0.4876310000000  0.4862520000000 1.0
C      1  0.4814070000000  0.3975220000000  0.5021330000000 1.0
C      1  0.4864180000000  0.4197710000000  0.4586670000000 1.0
C      1  0.5520700000000  0.5730410000000  0.4340410000000 1.0
C      1  0.4647130000000  0.5133810000000  0.3992030000000 1.0
C      1  0.3922830000000  0.5156690000000  0.5406300000000 1.0
C      1  0.5925240000000  0.5229280000000  0.4685460000000 1.0
C      1  0.5783930000000  0.4734760000000  0.4436840000000 1.0
C      1  0.5725380000000  0.4069270000000  0.5040960000000 1.0
C      1  0.5615530000000  0.5471790000000  0.5663630000000 1.0
C      1  0.4619990000000  0.4225430000000  0.5685150000000 1.0
C      1  0.5309900000000  0.5377010000000  0.5221720000000 1.0
C      1  0.4684360000000  0.5751630000000  0.4679010000000 1.0
C      1  0.5389490000000  0.4153500000000  0.4736690000000 1.0
C      1  0.4521580000000  0.4451140000000  0.4178230000000 1.0
C      1  0.4622470000000  0.4658290000000  0.3985410000000 1.0
C      1  0.5530780000000  0.4528430000000  0.5064810000000 1.0
C      1  0.4848490000000  0.5292260000000  0.5604140000000 1.0
C      1  0.5623640000000  0.4786840000000  0.4901820000000 1.0
C      1  0.5848050000000  0.5279640000000  0.5647850000000 1.0
C      1  0.5738680000000  0.4323270000000  0.5181400000000 1.0
C      1  0.4550300000000  0.4640750000000  0.4577870000000 1.0
C      1  0.4808010000000  0.6083410000000  0.5244190000000 1.0
C      1  0.5044610000000  0.4839010000000  0.5303260000000 1.0
C      1  0.5098630000000  0.5331430000000  0.4547960000000 1.0
C      1  0.5044220000000  0.5639420000000  0.4411150000000 1.0
C      1  0.5053550000000  0.4728180000000  0.6038780000000 1.0
C      1  0.4671200000000  0.4516010000000  0.5236870000000 1.0
C      1  0.5683740000000  0.5838840000000  0.4743030000000 1.0
C      1  0.4863860000000  0.5771050000000  0.5678070000000 1.0
C      1  0.4416310000000  0.5018690000000  0.5483280000000 1.0
C      1  0.4912680000000  0.4046160000000  0.5498310000000 1.0
C      1  0.3985430000000  0.5406820000000  0.4998440000000 1.0
C      1  0.4795360000000  0.5689860000000  0.4253490000000 1.0
C      1  0.5765930000000  0.4999220000000  0.4339670000000 1.0
C      1  0.4882180000000  0.4379910000000  0.5442650000000 1.0
C      1  0.5137140000000  0.5002840000000  0.4124350000000 1.0
C      1  0.4468270000000  0.5444820000000  0.5831240000000 1.0
C      1  0.4605880000000  0.4798760000000  0.5350730000000 1.0
C      1  0.5546110000000  0.5947930000000  0.4520100000000 1.0
END
