TITL C-951345-2650-498 -1.85163851577531e-06 125000 -1026.95563590042 0 0 165 (C1) n - 1
REM
REM in /home/bkarasulu/work/CARBON/AIRSS/Generating-Clusters/EDIP-Nigel-Params/with-SteepDescent/Only-C1/SD-CG/HFTN-CG
REM
REM
REM
REM
REM
REM ./C.cell (11c1c37f851c82e70ff6c80c92926a4b)
REM
REM compiler GCC version 9.2.1 20190827 (Red Hat 9.2.1-1)
REM options -cpp -mtune=generic -march=x86-64 -g -O0 -fpre-include=/usr/include/finclude/math-vector-fortran.h
REM seed -824185425 -1691540150 618824653 -552412397 -1108210477 1240001152 1437196144 -151172171 -240028752 -716158595 122320278 -791610564 -1990147146 715415539 172819993 -1641673871 759488369 1754834738 1409163408 1944948495 1806244559 -970896459 1371462509 -2051949646 -568401411 568026481 -805342547 1692212190 1746596065 32219878 909011086 -1451160353 465959534
REM
CELL 1.54180   50.00000   50.00000   50.00000   90.00000   90.00000   90.00000
LATT -1
SFAC C  
C      1  0.4302790000000  0.4594360000000  0.4201050000000 1.0
C      1  0.4578910000000  0.4830280000000  0.3840400000000 1.0
C      1  0.5200680000000  0.4028800000000  0.4677230000000 1.0
C      1  0.4857600000000  0.5254160000000  0.5214630000000 1.0
C      1  0.4212080000000  0.5585080000000  0.4992180000000 1.0
C      1  0.4632510000000  0.5499880000000  0.4636370000000 1.0
C      1  0.5667520000000  0.4634830000000  0.4575080000000 1.0
C      1  0.5142230000000  0.5901630000000  0.4410200000000 1.0
C      1  0.4397550000000  0.5076260000000  0.5804810000000 1.0
C      1  0.5254550000000  0.4969920000000  0.4275040000000 1.0
C      1  0.5918940000000  0.4712700000000  0.5254610000000 1.0
C      1  0.5676580000000  0.5317450000000  0.4046100000000 1.0
C      1  0.4340430000000  0.5868650000000  0.4979660000000 1.0
C      1  0.5312180000000  0.4530640000000  0.4086260000000 1.0
C      1  0.4183490000000  0.5019900000000  0.4426840000000 1.0
C      1  0.5126880000000  0.5102600000000  0.5138910000000 1.0
C      1  0.4715430000000  0.3943170000000  0.4603660000000 1.0
C      1  0.5195230000000  0.5572230000000  0.4758860000000 1.0
C      1  0.4818850000000  0.4251890000000  0.5607180000000 1.0
C      1  0.5122990000000  0.4624440000000  0.4579080000000 1.0
C      1  0.4749210000000  0.5772630000000  0.4671300000000 1.0
C      1  0.4962870000000  0.4244190000000  0.4314690000000 1.0
C      1  0.4741240000000  0.5747240000000  0.5605990000000 1.0
C      1  0.5594660000000  0.5942150000000  0.5223030000000 1.0
C      1  0.5596500000000  0.4364610000000  0.4660900000000 1.0
C      1  0.5582940000000  0.5735240000000  0.4499570000000 1.0
C      1  0.5232930000000  0.5098330000000  0.4845460000000 1.0
C      1  0.5621230000000  0.4867580000000  0.3888670000000 1.0
C      1  0.5218740000000  0.4401740000000  0.4357620000000 1.0
C      1  0.4442510000000  0.4340790000000  0.4248400000000 1.0
C      1  0.4688570000000  0.5776920000000  0.5310930000000 1.0
C      1  0.4026960000000  0.4600070000000  0.4684420000000 1.0
C      1  0.5050310000000  0.5822590000000  0.4674120000000 1.0
C      1  0.4969570000000  0.6052590000000  0.5107980000000 1.0
C      1  0.5434530000000  0.4294540000000  0.5706200000000 1.0
C      1  0.4902800000000  0.4731920000000  0.5642110000000 1.0
C      1  0.4453400000000  0.5510760000000  0.4395360000000 1.0
C      1  0.5392200000000  0.5363450000000  0.6051620000000 1.0
C      1  0.4873700000000  0.4604040000000  0.4996060000000 1.0
C      1  0.4874340000000  0.4854930000000  0.3825540000000 1.0
C      1  0.4963180000000  0.4006770000000  0.4489390000000 1.0
C      1  0.4244220000000  0.5784250000000  0.5468830000000 1.0
C      1  0.4831000000000  0.4366210000000  0.5886370000000 1.0
C      1  0.5611450000000  0.5939130000000  0.5499300000000 1.0
C      1  0.4808790000000  0.5139290000000  0.3816480000000 1.0
C      1  0.5551300000000  0.5090170000000  0.5354110000000 1.0
C      1  0.4072310000000  0.5269900000000  0.4576210000000 1.0
C      1  0.5392640000000  0.5294960000000  0.4013140000000 1.0
C      1  0.5481080000000  0.5242540000000  0.4903510000000 1.0
C      1  0.5813530000000  0.5501930000000  0.5259770000000 1.0
C      1  0.5097120000000  0.5313880000000  0.4691830000000 1.0
C      1  0.5845820000000  0.4773520000000  0.4758830000000 1.0
C      1  0.4291030000000  0.4168660000000  0.4408920000000 1.0
C      1  0.3901820000000  0.5047200000000  0.4987330000000 1.0
C      1  0.4643710000000  0.4483090000000  0.5183630000000 1.0
C      1  0.4719140000000  0.5447470000000  0.5700620000000 1.0
C      1  0.4969430000000  0.5526340000000  0.4060570000000 1.0
C      1  0.4183700000000  0.5496390000000  0.4463810000000 1.0
C      1  0.5431480000000  0.6043380000000  0.4908510000000 1.0
C      1  0.5342920000000  0.5730140000000  0.4317380000000 1.0
C      1  0.4961080000000  0.4456260000000  0.4765320000000 1.0
C      1  0.5140680000000  0.6023190000000  0.4877910000000 1.0
C      1  0.5797870000000  0.5545910000000  0.4468900000000 1.0
C      1  0.5689550000000  0.5462310000000  0.5546670000000 1.0
C      1  0.5266950000000  0.4071180000000  0.5697030000000 1.0
C      1  0.4701690000000  0.4829240000000  0.6014460000000 1.0
C      1  0.4404600000000  0.4498560000000  0.5691840000000 1.0
C      1  0.5779010000000  0.5082490000000  0.5560460000000 1.0
C      1  0.4135290000000  0.4715070000000  0.4426770000000 1.0
C      1  0.5573380000000  0.4825090000000  0.4347240000000 1.0
C      1  0.5239370000000  0.5521120000000  0.4129720000000 1.0
C      1  0.5027970000000  0.6051560000000  0.5379440000000 1.0
C      1  0.4161940000000  0.4626500000000  0.5115510000000 1.0
C      1  0.5301640000000  0.4805160000000  0.4756410000000 1.0
C      1  0.5365090000000  0.4501820000000  0.5896850000000 1.0
C      1  0.5061560000000  0.4549680000000  0.5948810000000 1.0
C      1  0.6009360000000  0.5012250000000  0.5350420000000 1.0
C      1  0.5574850000000  0.5720880000000  0.5666770000000 1.0
C      1  0.4518380000000  0.4248260000000  0.5536190000000 1.0
C      1  0.5397620000000  0.5528940000000  0.4985350000000 1.0
C      1  0.5082210000000  0.3910610000000  0.5284760000000 1.0
C      1  0.5780950000000  0.4603630000000  0.5497500000000 1.0
C      1  0.4383010000000  0.5647090000000  0.5716010000000 1.0
C      1  0.4937150000000  0.4070740000000  0.5069690000000 1.0
C      1  0.5927010000000  0.5025450000000  0.4647100000000 1.0
C      1  0.4601030000000  0.4554810000000  0.5909750000000 1.0
C      1  0.5962340000000  0.5491890000000  0.4689660000000 1.0
C      1  0.4074270000000  0.4816080000000  0.4887210000000 1.0
C      1  0.4852540000000  0.5233210000000  0.5521710000000 1.0
C      1  0.5190530000000  0.5648520000000  0.5457280000000 1.0
C      1  0.6005600000000  0.5252050000000  0.4826560000000 1.0
C      1  0.4529640000000  0.4778820000000  0.4773440000000 1.0
C      1  0.4840900000000  0.5286280000000  0.4589320000000 1.0
C      1  0.5206330000000  0.4826340000000  0.5283650000000 1.0
C      1  0.3974940000000  0.5006660000000  0.5275610000000 1.0
C      1  0.5175340000000  0.5544730000000  0.5967700000000 1.0
C      1  0.4972790000000  0.4830500000000  0.4411240000000 1.0
C      1  0.5514150000000  0.4762750000000  0.5872560000000 1.0
C      1  0.4487660000000  0.5449860000000  0.4928130000000 1.0
C      1  0.4532060000000  0.5311860000000  0.4190310000000 1.0
C      1  0.4148530000000  0.5567300000000  0.5291190000000 1.0
C      1  0.4796700000000  0.4996700000000  0.4590220000000 1.0
C      1  0.4724080000000  0.4413300000000  0.4305560000000 1.0
C      1  0.4558270000000  0.5921310000000  0.4808680000000 1.0
C      1  0.5605020000000  0.4375950000000  0.5486210000000 1.0
C      1  0.4405010000000  0.5058240000000  0.4234620000000 1.0
C      1  0.4835070000000  0.5381270000000  0.5967600000000 1.0
C      1  0.4255390000000  0.4762930000000  0.5612510000000 1.0
C      1  0.5378510000000  0.4374640000000  0.5043650000000 1.0
C      1  0.5077970000000  0.3811870000000  0.4977220000000 1.0
C      1  0.4784200000000  0.5319310000000  0.4038680000000 1.0
C      1  0.5095460000000  0.5694000000000  0.5166260000000 1.0
C      1  0.4532970000000  0.4041490000000  0.4789350000000 1.0
C      1  0.5357210000000  0.5006590000000  0.3897330000000 1.0
C      1  0.4869080000000  0.4505340000000  0.5441060000000 1.0
C      1  0.5141740000000  0.5002860000000  0.6046830000000 1.0
C      1  0.5719170000000  0.4795840000000  0.5023210000000 1.0
C      1  0.5433300000000  0.4683530000000  0.4998520000000 1.0
C      1  0.4256530000000  0.5342510000000  0.5423470000000 1.0
C      1  0.5035210000000  0.4036330000000  0.5548310000000 1.0
C      1  0.5024330000000  0.5855500000000  0.5588850000000 1.0
C      1  0.5146690000000  0.4872230000000  0.5573370000000 1.0
C      1  0.4791160000000  0.4885090000000  0.4891360000000 1.0
C      1  0.5353380000000  0.5744210000000  0.5852030000000 1.0
C      1  0.5656110000000  0.5693850000000  0.5063790000000 1.0
C      1  0.5078740000000  0.4560890000000  0.5218610000000 1.0
C      1  0.4973550000000  0.4781470000000  0.6114810000000 1.0
C      1  0.5189860000000  0.5356040000000  0.5558560000000 1.0
C      1  0.5863390000000  0.4361060000000  0.5099940000000 1.0
C      1  0.5810480000000  0.5067240000000  0.3973420000000 1.0
C      1  0.4448620000000  0.4161970000000  0.5265390000000 1.0
C      1  0.4291290000000  0.4164230000000  0.4687130000000 1.0
C      1  0.4295220000000  0.5345250000000  0.5705680000000 1.0
C      1  0.5431440000000  0.5255410000000  0.5755370000000 1.0
C      1  0.5607580000000  0.4247990000000  0.5220460000000 1.0
C      1  0.5816970000000  0.5039830000000  0.4360180000000 1.0
C      1  0.5706040000000  0.5313720000000  0.4328640000000 1.0
C      1  0.5313370000000  0.4967330000000  0.5805680000000 1.0
C      1  0.5922400000000  0.5238020000000  0.5128920000000 1.0
C      1  0.4314240000000  0.4970210000000  0.4792580000000 1.0
C      1  0.5278920000000  0.5169710000000  0.6231830000000 1.0
C      1  0.5760710000000  0.4243380000000  0.4859500000000 1.0
C      1  0.4452520000000  0.4703030000000  0.5152650000000 1.0
C      1  0.5316130000000  0.5251880000000  0.5314260000000 1.0
C      1  0.4138950000000  0.4366410000000  0.4824280000000 1.0
C      1  0.5152830000000  0.4790350000000  0.4008610000000 1.0
C      1  0.4633390000000  0.5127410000000  0.5994940000000 1.0
C      1  0.4514200000000  0.4800930000000  0.4123540000000 1.0
C      1  0.4628260000000  0.4063420000000  0.5058930000000 1.0
C      1  0.5661930000000  0.5089210000000  0.5083600000000 1.0
C      1  0.4443040000000  0.4888850000000  0.5406370000000 1.0
C      1  0.5398790000000  0.4211660000000  0.4513130000000 1.0
C      1  0.4425970000000  0.5912260000000  0.5263680000000 1.0
C      1  0.5613530000000  0.5899550000000  0.4734850000000 1.0
C      1  0.4262170000000  0.5106280000000  0.5276110000000 1.0
C      1  0.4028070000000  0.4727440000000  0.5380050000000 1.0
C      1  0.4780420000000  0.4686960000000  0.4226570000000 1.0
C      1  0.4002980000000  0.5298590000000  0.4859030000000 1.0
C      1  0.4418460000000  0.5159150000000  0.5010150000000 1.0
C      1  0.4683560000000  0.5071600000000  0.5081100000000 1.0
C      1  0.4700980000000  0.4966830000000  0.5594030000000 1.0
C      1  0.5585020000000  0.4655400000000  0.4094920000000 1.0
C      1  0.5123650000000  0.4243960000000  0.4888010000000 1.0
C      1  0.4799350000000  0.5550140000000  0.5114950000000 1.0
C      1  0.5751270000000  0.4805010000000  0.5701710000000 1.0
END
