TITL C-950525-1983-589 4.91592873854372e-07 125000 -522.256596969507 0 0 85 (C1) n - 1
REM
REM in /home/bkarasulu/work/CARBON/AIRSS/Generating-Clusters/EDIP-Nigel-Params/with-SteepDescent/Only-C1/SD-CG/HFTN-CG
REM
REM
REM
REM
REM
REM ./C.cell (11c1c37f851c82e70ff6c80c92926a4b)
REM
REM compiler GCC version 9.2.1 20190827 (Red Hat 9.2.1-1)
REM options -cpp -mtune=generic -march=x86-64 -g -O0 -fpre-include=/usr/include/finclude/math-vector-fortran.h
REM seed -112154084 435061053 -986946750 206817766 -1414331463 1184348647 -1474959031 -783636319 -1552233787 -1388707596 -2035840450 -1977033994 640614852 92937625 995465049 -1178277534 -177980368 374847182 -1116287006 983992773 719359558 1203136838 73699524 709724193 -504934545 -1408894188 1225555470 -674459264 -48453069 -652062184 -2028380134 1950306738 1573555642
REM
CELL 1.54180   50.00000   50.00000   50.00000   90.00000   90.00000   90.00000
LATT -1
SFAC C  
C      1  0.5587180000000  0.5295160000000  0.5323370000000 1.0
C      1  0.4637430000000  0.5635840000000  0.5235250000000 1.0
C      1  0.4568350000000  0.5785000000000  0.4532730000000 1.0
C      1  0.4144390000000  0.4958210000000  0.5142610000000 1.0
C      1  0.5054600000000  0.5023010000000  0.4772360000000 1.0
C      1  0.4661350000000  0.4915200000000  0.5164170000000 1.0
C      1  0.5337200000000  0.5727990000000  0.5279050000000 1.0
C      1  0.5078850000000  0.4557560000000  0.5323050000000 1.0
C      1  0.5546230000000  0.4366140000000  0.5348360000000 1.0
C      1  0.4260560000000  0.5392080000000  0.5000900000000 1.0
C      1  0.5253110000000  0.5146740000000  0.5714810000000 1.0
C      1  0.5181340000000  0.4165170000000  0.5046610000000 1.0
C      1  0.4506200000000  0.4550010000000  0.5442380000000 1.0
C      1  0.5709100000000  0.4482820000000  0.4880060000000 1.0
C      1  0.4447540000000  0.5417810000000  0.5227580000000 1.0
C      1  0.5353530000000  0.4929030000000  0.5549240000000 1.0
C      1  0.5749910000000  0.4770990000000  0.4767520000000 1.0
C      1  0.4909380000000  0.4260480000000  0.4978780000000 1.0
C      1  0.4934800000000  0.4873390000000  0.5798390000000 1.0
C      1  0.4854000000000  0.5473280000000  0.4733220000000 1.0
C      1  0.4604910000000  0.4852850000000  0.4638640000000 1.0
C      1  0.4914690000000  0.5029930000000  0.5318570000000 1.0
C      1  0.5520510000000  0.4478560000000  0.5603720000000 1.0
C      1  0.4703970000000  0.4567730000000  0.4673680000000 1.0
C      1  0.4918150000000  0.5570200000000  0.5322440000000 1.0
C      1  0.4329120000000  0.5076800000000  0.4366710000000 1.0
C      1  0.5093310000000  0.4633360000000  0.5797300000000 1.0
C      1  0.4698640000000  0.4443380000000  0.5607670000000 1.0
C      1  0.4522660000000  0.4957260000000  0.4180520000000 1.0
C      1  0.4452550000000  0.5203660000000  0.5428050000000 1.0
C      1  0.5333450000000  0.4442540000000  0.4512370000000 1.0
C      1  0.5343810000000  0.5299900000000  0.5027300000000 1.0
C      1  0.5468630000000  0.4335530000000  0.4757340000000 1.0
C      1  0.5450130000000  0.4811050000000  0.4733090000000 1.0
C      1  0.4374670000000  0.4531170000000  0.4967520000000 1.0
C      1  0.4975380000000  0.4456960000000  0.5590320000000 1.0
C      1  0.4523330000000  0.4355080000000  0.4784060000000 1.0
C      1  0.4321230000000  0.4733990000000  0.5540950000000 1.0
C      1  0.4507530000000  0.5313210000000  0.4444890000000 1.0
C      1  0.4314740000000  0.4842880000000  0.4572900000000 1.0
C      1  0.4191320000000  0.4737160000000  0.4834860000000 1.0
C      1  0.4831880000000  0.5062080000000  0.5609830000000 1.0
C      1  0.5236460000000  0.4876660000000  0.4292780000000 1.0
C      1  0.5609070000000  0.5026440000000  0.5420750000000 1.0
C      1  0.5289640000000  0.4379770000000  0.5213250000000 1.0
C      1  0.4601560000000  0.5049010000000  0.4905090000000 1.0
C      1  0.5376330000000  0.5628200000000  0.4643990000000 1.0
C      1  0.4640850000000  0.5793780000000  0.5004970000000 1.0
C      1  0.4603760000000  0.5216870000000  0.5663970000000 1.0
C      1  0.5175160000000  0.5609470000000  0.4460290000000 1.0
C      1  0.5765190000000  0.5205930000000  0.4848360000000 1.0
C      1  0.5392960000000  0.5485250000000  0.5422790000000 1.0
C      1  0.4248840000000  0.5558120000000  0.4776700000000 1.0
C      1  0.5433690000000  0.4713030000000  0.4451570000000 1.0
C      1  0.4973410000000  0.4750050000000  0.4311470000000 1.0
C      1  0.4772900000000  0.5324810000000  0.4309700000000 1.0
C      1  0.5730340000000  0.5113870000000  0.4579450000000 1.0
C      1  0.5206730000000  0.5407010000000  0.5623940000000 1.0
C      1  0.5263610000000  0.5167870000000  0.4341830000000 1.0
C      1  0.5781660000000  0.5484190000000  0.4879650000000 1.0
C      1  0.5497610000000  0.5559210000000  0.4898970000000 1.0
C      1  0.4668750000000  0.4139450000000  0.4898370000000 1.0
C      1  0.4749060000000  0.4944920000000  0.4374390000000 1.0
C      1  0.5497880000000  0.5794350000000  0.5066210000000 1.0
C      1  0.5513680000000  0.5250660000000  0.4454050000000 1.0
C      1  0.4946760000000  0.5521090000000  0.5611720000000 1.0
C      1  0.5765260000000  0.4849810000000  0.5249950000000 1.0
C      1  0.5750360000000  0.4490030000000  0.5177960000000 1.0
C      1  0.5847380000000  0.4957650000000  0.4990440000000 1.0
C      1  0.4593800000000  0.4623640000000  0.5167200000000 1.0
C      1  0.4870270000000  0.5230610000000  0.4890190000000 1.0
C      1  0.5029090000000  0.4548180000000  0.4534200000000 1.0
C      1  0.5153860000000  0.4849140000000  0.5332850000000 1.0
C      1  0.4884820000000  0.4537430000000  0.5082830000000 1.0
C      1  0.4738570000000  0.5730100000000  0.4750410000000 1.0
C      1  0.4282740000000  0.4970470000000  0.5392110000000 1.0
C      1  0.5341200000000  0.5100350000000  0.4769120000000 1.0
C      1  0.5073410000000  0.5808830000000  0.5265970000000 1.0
C      1  0.5019130000000  0.5298520000000  0.5159370000000 1.0
C      1  0.4387300000000  0.5567590000000  0.4533570000000 1.0
C      1  0.5059550000000  0.5376300000000  0.4349520000000 1.0
C      1  0.4277030000000  0.5108150000000  0.4922730000000 1.0
C      1  0.5029070000000  0.4719580000000  0.4824590000000 1.0
C      1  0.5381740000000  0.4688420000000  0.5726410000000 1.0
C      1  0.5369840000000  0.4084010000000  0.4853120000000 1.0
END
