TITL C-950523-3027-693 -6.49745590335581e-06 125000 -709.169147619318 0 0 114 (C1) n - 1
REM
REM in /home/bkarasulu/work/CARBON/AIRSS/Generating-Clusters/EDIP-Nigel-Params/with-SteepDescent/Only-C1/SD-CG/HFTN-CG
REM
REM
REM
REM
REM
REM ./C.cell (11c1c37f851c82e70ff6c80c92926a4b)
REM
REM compiler GCC version 9.2.1 20190827 (Red Hat 9.2.1-1)
REM options -cpp -mtune=generic -march=x86-64 -g -O0 -fpre-include=/usr/include/finclude/math-vector-fortran.h
REM seed -367310617 -625744119 285182100 50804374 156413469 -1768773827 1493004622 -1702523289 1808282092 -787926825 -1437422725 -1366513523 615797573 -431148948 -606203352 -271672355 803123762 1599883695 -764058624 1094514436 -1139595978 -46577432 -397661117 1845172767 -1115816504 1505260442 -406107167 -1838293520 -1585821600 1017648685 -723564484 1114303666 398531221
REM
CELL 1.54180   50.00000   50.00000   50.00000   90.00000   90.00000   90.00000
LATT -1
SFAC C  
C      1  0.4766980000000  0.5906800000000  0.5384940000000 1.0
C      1  0.5197010000000  0.5476420000000  0.4472100000000 1.0
C      1  0.5535560000000  0.4948170000000  0.5677950000000 1.0
C      1  0.4612970000000  0.5251870000000  0.5959060000000 1.0
C      1  0.5212490000000  0.5635590000000  0.5700820000000 1.0
C      1  0.4848000000000  0.5280330000000  0.5463090000000 1.0
C      1  0.4138340000000  0.4976910000000  0.4903900000000 1.0
C      1  0.5709240000000  0.4678350000000  0.4418410000000 1.0
C      1  0.5695610000000  0.5769130000000  0.5189540000000 1.0
C      1  0.5178080000000  0.5266880000000  0.5462100000000 1.0
C      1  0.4322180000000  0.4681960000000  0.4540070000000 1.0
C      1  0.5139490000000  0.4932070000000  0.4413040000000 1.0
C      1  0.4717130000000  0.4423530000000  0.4363300000000 1.0
C      1  0.4338730000000  0.5585190000000  0.5134790000000 1.0
C      1  0.5071570000000  0.5082680000000  0.5899560000000 1.0
C      1  0.4964390000000  0.4614580000000  0.6002350000000 1.0
C      1  0.5608010000000  0.4512590000000  0.4950430000000 1.0
C      1  0.5233970000000  0.4996800000000  0.5644450000000 1.0
C      1  0.4537650000000  0.5148020000000  0.4665710000000 1.0
C      1  0.4633740000000  0.5637910000000  0.5139640000000 1.0
C      1  0.4229970000000  0.4971990000000  0.5178520000000 1.0
C      1  0.4429840000000  0.4408570000000  0.4471790000000 1.0
C      1  0.4880200000000  0.5316460000000  0.5849690000000 1.0
C      1  0.5041310000000  0.4260480000000  0.5691150000000 1.0
C      1  0.5057060000000  0.5526580000000  0.4113590000000 1.0
C      1  0.4877020000000  0.5833000000000  0.4672850000000 1.0
C      1  0.5527980000000  0.4326000000000  0.4737900000000 1.0
C      1  0.5132930000000  0.5452810000000  0.5169350000000 1.0
C      1  0.4228590000000  0.4705370000000  0.4817600000000 1.0
C      1  0.4784960000000  0.5068280000000  0.4124650000000 1.0
C      1  0.5496000000000  0.4917990000000  0.4770820000000 1.0
C      1  0.5088690000000  0.5308640000000  0.4695650000000 1.0
C      1  0.5264710000000  0.4184890000000  0.4760690000000 1.0
C      1  0.4542390000000  0.4844060000000  0.5698190000000 1.0
C      1  0.5004170000000  0.4651120000000  0.4021130000000 1.0
C      1  0.5594250000000  0.4904810000000  0.4262730000000 1.0
C      1  0.4902060000000  0.4883200000000  0.6040780000000 1.0
C      1  0.4694340000000  0.4045650000000  0.4667090000000 1.0
C      1  0.4925930000000  0.5597340000000  0.5750540000000 1.0
C      1  0.5126450000000  0.5948720000000  0.4632840000000 1.0
C      1  0.4627020000000  0.4404150000000  0.5391050000000 1.0
C      1  0.4636050000000  0.4538780000000  0.5655960000000 1.0
C      1  0.4891780000000  0.4532920000000  0.4793850000000 1.0
C      1  0.4857200000000  0.4863140000000  0.5311810000000 1.0
C      1  0.4459820000000  0.4235660000000  0.4709060000000 1.0
C      1  0.5610040000000  0.4679690000000  0.5653920000000 1.0
C      1  0.4683070000000  0.4351320000000  0.4914480000000 1.0
C      1  0.4387820000000  0.5373520000000  0.5801570000000 1.0
C      1  0.4245280000000  0.4924720000000  0.5648390000000 1.0
C      1  0.4615920000000  0.4952590000000  0.5978270000000 1.0
C      1  0.4955060000000  0.5932180000000  0.5160960000000 1.0
C      1  0.5208060000000  0.5758050000000  0.5208510000000 1.0
C      1  0.5462110000000  0.5799270000000  0.5037130000000 1.0
C      1  0.4786850000000  0.4171770000000  0.5308650000000 1.0
C      1  0.5324550000000  0.5801180000000  0.5486160000000 1.0
C      1  0.4258400000000  0.5510420000000  0.5399860000000 1.0
C      1  0.5870700000000  0.5289930000000  0.4763040000000 1.0
C      1  0.5853980000000  0.5000670000000  0.5283440000000 1.0
C      1  0.4962860000000  0.4815850000000  0.4851800000000 1.0
C      1  0.5292250000000  0.5353830000000  0.4072090000000 1.0
C      1  0.5588730000000  0.5405420000000  0.5540100000000 1.0
C      1  0.4176540000000  0.4536700000000  0.5383630000000 1.0
C      1  0.4520570000000  0.4884320000000  0.4478300000000 1.0
C      1  0.4740670000000  0.5246560000000  0.4352830000000 1.0
C      1  0.4454200000000  0.4693200000000  0.5031450000000 1.0
C      1  0.5131020000000  0.4834620000000  0.5405690000000 1.0
C      1  0.5300230000000  0.5734620000000  0.4586830000000 1.0
C      1  0.4769260000000  0.5840100000000  0.4942850000000 1.0
C      1  0.4835590000000  0.4093480000000  0.5025250000000 1.0
C      1  0.5805170000000  0.4714540000000  0.5215960000000 1.0
C      1  0.4137620000000  0.4812770000000  0.5401240000000 1.0
C      1  0.5038560000000  0.4141060000000  0.5440670000000 1.0
C      1  0.5389050000000  0.5415040000000  0.5746090000000 1.0
C      1  0.5286020000000  0.5367000000000  0.4914810000000 1.0
C      1  0.5460240000000  0.5607810000000  0.4807310000000 1.0
C      1  0.5514750000000  0.4460240000000  0.4475860000000 1.0
C      1  0.5052640000000  0.4932730000000  0.4126420000000 1.0
C      1  0.4442810000000  0.5591010000000  0.5611740000000 1.0
C      1  0.4798940000000  0.5379470000000  0.5145790000000 1.0
C      1  0.4251760000000  0.5213250000000  0.4754760000000 1.0
C      1  0.5748900000000  0.5245760000000  0.5028120000000 1.0
C      1  0.5368000000000  0.4686140000000  0.4940960000000 1.0
C      1  0.4955200000000  0.5050970000000  0.4612560000000 1.0
C      1  0.4740580000000  0.4875370000000  0.5039340000000 1.0
C      1  0.4207250000000  0.5212750000000  0.5643520000000 1.0
C      1  0.4860840000000  0.4611620000000  0.4529810000000 1.0
C      1  0.4871100000000  0.4449680000000  0.5803510000000 1.0
C      1  0.5504310000000  0.4916180000000  0.3993520000000 1.0
C      1  0.4399420000000  0.4469690000000  0.5227760000000 1.0
C      1  0.5311480000000  0.4334860000000  0.4304540000000 1.0
C      1  0.5600130000000  0.5689080000000  0.5442640000000 1.0
C      1  0.5670380000000  0.5458920000000  0.4615930000000 1.0
C      1  0.5135170000000  0.4093970000000  0.5009180000000 1.0
C      1  0.4809540000000  0.5518130000000  0.4269660000000 1.0
C      1  0.5942030000000  0.5044510000000  0.4641370000000 1.0
C      1  0.5190950000000  0.4452760000000  0.4083720000000 1.0
C      1  0.4699380000000  0.5013410000000  0.5492330000000 1.0
C      1  0.5481460000000  0.5148060000000  0.4966760000000 1.0
C      1  0.4720170000000  0.5683300000000  0.5560660000000 1.0
C      1  0.4692570000000  0.5152700000000  0.4948870000000 1.0
C      1  0.5415590000000  0.5020800000000  0.4469970000000 1.0
C      1  0.4598220000000  0.4857600000000  0.4187540000000 1.0
C      1  0.4749570000000  0.5720560000000  0.4452610000000 1.0
C      1  0.5270640000000  0.5076720000000  0.3980140000000 1.0
C      1  0.5776880000000  0.4819800000000  0.4678900000000 1.0
C      1  0.5148000000000  0.4169860000000  0.4485410000000 1.0
C      1  0.5342400000000  0.4721840000000  0.5239690000000 1.0
C      1  0.4724290000000  0.4589450000000  0.4104710000000 1.0
C      1  0.4239500000000  0.5443480000000  0.4916500000000 1.0
C      1  0.5255270000000  0.4095850000000  0.5264920000000 1.0
C      1  0.5700330000000  0.5129260000000  0.5511760000000 1.0
C      1  0.4852950000000  0.4146590000000  0.4431800000000 1.0
C      1  0.5583500000000  0.4622460000000  0.5378680000000 1.0
C      1  0.5460820000000  0.5322550000000  0.4412240000000 1.0
END
