TITL C-950528-5794-682 1.51480606124344e-06 125000 -867.033895674664 0 0 139 (C1) n - 1
REM
REM in /home/bkarasulu/work/CARBON/AIRSS/Generating-Clusters/EDIP-Nigel-Params/with-SteepDescent/Only-C1/SD-CG/HFTN-CG
REM
REM
REM
REM
REM
REM ./C.cell (11c1c37f851c82e70ff6c80c92926a4b)
REM
REM compiler GCC version 9.2.1 20190827 (Red Hat 9.2.1-1)
REM options -cpp -mtune=generic -march=x86-64 -g -O0 -fpre-include=/usr/include/finclude/math-vector-fortran.h
REM seed -464692535 -111757479 -868225142 -1376405460 2051206938 51181484 2123077167 -826319611 -85528773 1930292696 1169370802 -1567643137 1897762094 -1013649542 -1775817428 -838655422 -1078237500 -1776102467 699674982 -1260404053 -664603097 555323117 2072839954 -802986188 -1890483465 -1870251031 635971193 -1103657499 512162838 -197823306 526027743 -1683972264 849270039
REM
CELL 1.54180   50.00000   50.00000   50.00000   90.00000   90.00000   90.00000
LATT -1
SFAC C  
C      1  0.5153420000000  0.4319210000000  0.4307140000000 1.0
C      1  0.4998300000000  0.4629070000000  0.5992440000000 1.0
C      1  0.4886330000000  0.5033170000000  0.4059320000000 1.0
C      1  0.4939830000000  0.5135970000000  0.5273670000000 1.0
C      1  0.5658050000000  0.5364880000000  0.4495430000000 1.0
C      1  0.4531340000000  0.3989340000000  0.5222140000000 1.0
C      1  0.5213830000000  0.5409310000000  0.4824610000000 1.0
C      1  0.4107110000000  0.4856410000000  0.5363670000000 1.0
C      1  0.5677640000000  0.4867160000000  0.4334160000000 1.0
C      1  0.5142490000000  0.4533460000000  0.4522700000000 1.0
C      1  0.4586240000000  0.4765920000000  0.5404790000000 1.0
C      1  0.4961620000000  0.5843030000000  0.5617450000000 1.0
C      1  0.4642940000000  0.4354820000000  0.4890050000000 1.0
C      1  0.4606830000000  0.5087330000000  0.4103240000000 1.0
C      1  0.4138460000000  0.5145260000000  0.5394100000000 1.0
C      1  0.4419080000000  0.4844920000000  0.4120710000000 1.0
C      1  0.4292220000000  0.4402720000000  0.5382050000000 1.0
C      1  0.5828100000000  0.5546100000000  0.4637980000000 1.0
C      1  0.5265210000000  0.5704330000000  0.4802430000000 1.0
C      1  0.4386970000000  0.5382260000000  0.5788960000000 1.0
C      1  0.5076520000000  0.3991010000000  0.4939260000000 1.0
C      1  0.6101690000000  0.5384720000000  0.5007740000000 1.0
C      1  0.4697370000000  0.5745520000000  0.4504730000000 1.0
C      1  0.5105340000000  0.5988290000000  0.5199870000000 1.0
C      1  0.5570780000000  0.4193030000000  0.5226040000000 1.0
C      1  0.5310460000000  0.4758370000000  0.4646910000000 1.0
C      1  0.4723980000000  0.4630140000000  0.5868950000000 1.0
C      1  0.5683040000000  0.5595480000000  0.5567060000000 1.0
C      1  0.5414930000000  0.4303130000000  0.4777940000000 1.0
C      1  0.5829440000000  0.4586760000000  0.5240720000000 1.0
C      1  0.4824220000000  0.3981280000000  0.4517750000000 1.0
C      1  0.4235950000000  0.5702680000000  0.5452960000000 1.0
C      1  0.4779870000000  0.5062900000000  0.6054440000000 1.0
C      1  0.4650910000000  0.5030550000000  0.5271600000000 1.0
C      1  0.4286210000000  0.4767250000000  0.4654470000000 1.0
C      1  0.4154170000000  0.5604630000000  0.5200490000000 1.0
C      1  0.4778250000000  0.4875870000000  0.4567910000000 1.0
C      1  0.4549180000000  0.5325770000000  0.4281720000000 1.0
C      1  0.5558000000000  0.5143000000000  0.4900870000000 1.0
C      1  0.5274530000000  0.4798120000000  0.4063120000000 1.0
C      1  0.5572650000000  0.5868580000000  0.5073210000000 1.0
C      1  0.5221230000000  0.5718010000000  0.5699820000000 1.0
C      1  0.5243020000000  0.4310350000000  0.5652380000000 1.0
C      1  0.4863170000000  0.4545960000000  0.4175490000000 1.0
C      1  0.5683760000000  0.4716580000000  0.5708480000000 1.0
C      1  0.4997320000000  0.4769100000000  0.4023820000000 1.0
C      1  0.4602890000000  0.5304210000000  0.4800540000000 1.0
C      1  0.4765370000000  0.5516340000000  0.4343940000000 1.0
C      1  0.4766440000000  0.4310570000000  0.5511730000000 1.0
C      1  0.5802230000000  0.4315790000000  0.4815320000000 1.0
C      1  0.4378300000000  0.5592030000000  0.4772020000000 1.0
C      1  0.5713780000000  0.4367370000000  0.5384910000000 1.0
C      1  0.5022020000000  0.4903940000000  0.6091210000000 1.0
C      1  0.4692310000000  0.4392220000000  0.4592070000000 1.0
C      1  0.4960920000000  0.5439240000000  0.5267260000000 1.0
C      1  0.5505900000000  0.5517810000000  0.4299580000000 1.0
C      1  0.5616530000000  0.4694880000000  0.4584500000000 1.0
C      1  0.4904260000000  0.5900870000000  0.4645820000000 1.0
C      1  0.4547340000000  0.4560900000000  0.4161160000000 1.0
C      1  0.4248280000000  0.5168290000000  0.5672790000000 1.0
C      1  0.5343680000000  0.5805720000000  0.5261480000000 1.0
C      1  0.5841530000000  0.5097760000000  0.4431000000000 1.0
C      1  0.4555250000000  0.4059790000000  0.4944930000000 1.0
C      1  0.5248580000000  0.5633500000000  0.4330340000000 1.0
C      1  0.5394560000000  0.5230870000000  0.5864930000000 1.0
C      1  0.4776080000000  0.4601710000000  0.5576900000000 1.0
C      1  0.5637720000000  0.4962390000000  0.5536970000000 1.0
C      1  0.5594040000000  0.4450460000000  0.5630680000000 1.0
C      1  0.5471460000000  0.5822140000000  0.5550910000000 1.0
C      1  0.4584450000000  0.4088060000000  0.4375330000000 1.0
C      1  0.5387580000000  0.4370910000000  0.5085730000000 1.0
C      1  0.5780710000000  0.5677650000000  0.5101550000000 1.0
C      1  0.4483310000000  0.4922830000000  0.4492640000000 1.0
C      1  0.4247140000000  0.4915930000000  0.4910610000000 1.0
C      1  0.5248190000000  0.5504120000000  0.5256650000000 1.0
C      1  0.4590910000000  0.5776780000000  0.5147420000000 1.0
C      1  0.6130080000000  0.5165370000000  0.4837780000000 1.0
C      1  0.5207520000000  0.4823270000000  0.4939150000000 1.0
C      1  0.4149960000000  0.4921390000000  0.4211510000000 1.0
C      1  0.4918690000000  0.5311850000000  0.4705380000000 1.0
C      1  0.5485970000000  0.5886990000000  0.4800780000000 1.0
C      1  0.6068190000000  0.5380060000000  0.5293140000000 1.0
C      1  0.4330050000000  0.4902050000000  0.5769300000000 1.0
C      1  0.5278980000000  0.5023640000000  0.4504490000000 1.0
C      1  0.4263180000000  0.4313550000000  0.4874530000000 1.0
C      1  0.5192940000000  0.5840260000000  0.4548940000000 1.0
C      1  0.5101830000000  0.4238820000000  0.5135660000000 1.0
C      1  0.5877390000000  0.4829770000000  0.5401790000000 1.0
C      1  0.4983830000000  0.6062150000000  0.5441440000000 1.0
C      1  0.5431990000000  0.5246650000000  0.4674790000000 1.0
C      1  0.4099030000000  0.4741200000000  0.5100570000000 1.0
C      1  0.4309450000000  0.4703700000000  0.5518940000000 1.0
C      1  0.5123020000000  0.4980890000000  0.5497280000000 1.0
C      1  0.4845690000000  0.5319520000000  0.5940330000000 1.0
C      1  0.5812140000000  0.4783020000000  0.4799110000000 1.0
C      1  0.4448670000000  0.4369880000000  0.4387440000000 1.0
C      1  0.4261550000000  0.4474280000000  0.4618930000000 1.0
C      1  0.4646380000000  0.5479380000000  0.5817230000000 1.0
C      1  0.4908350000000  0.5880540000000  0.4979410000000 1.0
C      1  0.5284200000000  0.5438540000000  0.5565990000000 1.0
C      1  0.5042380000000  0.4206360000000  0.5448440000000 1.0
C      1  0.4134550000000  0.5314470000000  0.5149770000000 1.0
C      1  0.5078940000000  0.5115220000000  0.4990860000000 1.0
C      1  0.5643690000000  0.4397420000000  0.4586320000000 1.0
C      1  0.5026560000000  0.5475970000000  0.4241580000000 1.0
C      1  0.4436320000000  0.5217990000000  0.4539620000000 1.0
C      1  0.4161390000000  0.4452930000000  0.5119370000000 1.0
C      1  0.5430370000000  0.4748240000000  0.5133600000000 1.0
C      1  0.5132750000000  0.5110290000000  0.5797350000000 1.0
C      1  0.4535240000000  0.4235790000000  0.5352190000000 1.0
C      1  0.5647310000000  0.4908410000000  0.4997500000000 1.0
C      1  0.4427970000000  0.5773290000000  0.4567390000000 1.0
C      1  0.5943210000000  0.5593750000000  0.4885790000000 1.0
C      1  0.4902580000000  0.4420570000000  0.5014400000000 1.0
C      1  0.4745940000000  0.4852060000000  0.4859020000000 1.0
C      1  0.4977670000000  0.5107800000000  0.4481490000000 1.0
C      1  0.5265390000000  0.4047730000000  0.4709830000000 1.0
C      1  0.5910010000000  0.4547290000000  0.4953710000000 1.0
C      1  0.5050020000000  0.4694690000000  0.5532170000000 1.0
C      1  0.5111840000000  0.4060500000000  0.4446740000000 1.0
C      1  0.5876830000000  0.5582840000000  0.5348910000000 1.0
C      1  0.4806350000000  0.5589690000000  0.5068580000000 1.0
C      1  0.4550800000000  0.5037330000000  0.4985880000000 1.0
C      1  0.4863970000000  0.4605900000000  0.4479530000000 1.0
C      1  0.4458040000000  0.5814480000000  0.5566750000000 1.0
C      1  0.4033650000000  0.5098570000000  0.4384900000000 1.0
C      1  0.4696820000000  0.5727510000000  0.5684300000000 1.0
C      1  0.4803540000000  0.3933460000000  0.4814220000000 1.0
C      1  0.5194920000000  0.4581650000000  0.5761150000000 1.0
C      1  0.5078780000000  0.5228510000000  0.4124860000000 1.0
C      1  0.5393970000000  0.4925680000000  0.5376210000000 1.0
C      1  0.5619620000000  0.5244690000000  0.5680770000000 1.0
C      1  0.4139790000000  0.5263270000000  0.4592840000000 1.0
C      1  0.4089630000000  0.5171760000000  0.4880230000000 1.0
C      1  0.4598360000000  0.4889930000000  0.5898530000000 1.0
C      1  0.4946680000000  0.4696070000000  0.5005890000000 1.0
C      1  0.5417840000000  0.4967260000000  0.4238150000000 1.0
C      1  0.4334750000000  0.5740730000000  0.5015220000000 1.0
C      1  0.5998690000000  0.4986310000000  0.4666320000000 1.0
END
