TITL C-950526-5686-68 -8.21375717731758e-07 125000 -261.716042419598 0 0 44 (C1) n - 1
REM
REM in /home/bkarasulu/work/CARBON/AIRSS/Generating-Clusters/EDIP-Nigel-Params/with-SteepDescent/Only-C1/SD-CG/HFTN-CG
REM
REM
REM
REM
REM
REM ./C.cell (11c1c37f851c82e70ff6c80c92926a4b)
REM
REM compiler GCC version 9.2.1 20190827 (Red Hat 9.2.1-1)
REM options -cpp -mtune=generic -march=x86-64 -g -O0 -fpre-include=/usr/include/finclude/math-vector-fortran.h
REM seed -1817639740 -602019848 -1754221817 -622602429 212282359 1331610034 1129036474 -1834061596 -2091783652 -847319214 569548263 -1220811804 206359392 -1993095818 1654091911 -1348780793 -279931684 -991080174 -978623878 1028008116 2085219422 1807035861 1794604175 1228761945 -140702222 1486755118 890566140 357578567 1619215987 252675432 1425601959 -550399233 357804660
REM
CELL 1.54180   50.00000   50.00000   50.00000   90.00000   90.00000   90.00000
LATT -1
SFAC C  
C      1  0.5141150000000  0.5485540000000  0.4987090000000 1.0
C      1  0.4882870000000  0.5490130000000  0.4835290000000 1.0
C      1  0.4935980000000  0.4775980000000  0.4785050000000 1.0
C      1  0.4608150000000  0.4389270000000  0.4805720000000 1.0
C      1  0.4867730000000  0.5225250000000  0.4704220000000 1.0
C      1  0.5076150000000  0.4706610000000  0.5237840000000 1.0
C      1  0.4963670000000  0.4674100000000  0.4504300000000 1.0
C      1  0.4640870000000  0.5068150000000  0.5339520000000 1.0
C      1  0.5085960000000  0.5689320000000  0.5378860000000 1.0
C      1  0.4509770000000  0.4985270000000  0.4634410000000 1.0
C      1  0.5377410000000  0.4464170000000  0.4605810000000 1.0
C      1  0.4844910000000  0.5135560000000  0.4340920000000 1.0
C      1  0.5057450000000  0.4914610000000  0.5627540000000 1.0
C      1  0.5183140000000  0.5481960000000  0.5551280000000 1.0
C      1  0.4933270000000  0.5028820000000  0.5362850000000 1.0
C      1  0.5536070000000  0.5312880000000  0.5301200000000 1.0
C      1  0.4702640000000  0.4375360000000  0.5288980000000 1.0
C      1  0.5589000000000  0.4583310000000  0.4772060000000 1.0
C      1  0.4662080000000  0.5574180000000  0.4980190000000 1.0
C      1  0.4652840000000  0.4875280000000  0.4853760000000 1.0
C      1  0.5309070000000  0.5046440000000  0.5645040000000 1.0
C      1  0.5390690000000  0.5387270000000  0.4804690000000 1.0
C      1  0.5270310000000  0.4396310000000  0.4895360000000 1.0
C      1  0.5019240000000  0.4558730000000  0.4986350000000 1.0
C      1  0.4784740000000  0.4381210000000  0.5022650000000 1.0
C      1  0.5504540000000  0.5218570000000  0.5036230000000 1.0
C      1  0.5102210000000  0.5267210000000  0.5237210000000 1.0
C      1  0.4548470000000  0.4522150000000  0.4574650000000 1.0
C      1  0.5201320000000  0.5734140000000  0.5125610000000 1.0
C      1  0.4802420000000  0.4475650000000  0.5520770000000 1.0
C      1  0.5290480000000  0.5185160000000  0.4594370000000 1.0
C      1  0.5402590000000  0.5298140000000  0.5550710000000 1.0
C      1  0.5512310000000  0.4497750000000  0.5029610000000 1.0
C      1  0.5254710000000  0.5063100000000  0.5068110000000 1.0
C      1  0.4556440000000  0.5331140000000  0.5360950000000 1.0
C      1  0.5223690000000  0.4610930000000  0.4427790000000 1.0
C      1  0.4614250000000  0.5580290000000  0.5253500000000 1.0
C      1  0.4535490000000  0.4773950000000  0.4440400000000 1.0
C      1  0.5114360000000  0.5033190000000  0.4801520000000 1.0
C      1  0.4568700000000  0.4938990000000  0.5110030000000 1.0
C      1  0.5037590000000  0.4629860000000  0.5516050000000 1.0
C      1  0.5096010000000  0.5268600000000  0.4395530000000 1.0
C      1  0.4809520000000  0.5724520000000  0.5390090000000 1.0
C      1  0.4799720000000  0.4840950000000  0.4315880000000 1.0
END
