TITL C-950534-5965-343 -1.17828180196888e-07 125000 -188.708964322136 0 0 32 (C1) n - 1
REM
REM in /home/bkarasulu/work/CARBON/AIRSS/Generating-Clusters/EDIP-Nigel-Params/with-SteepDescent/Only-C1/SD-CG/HFTN-CG
REM
REM
REM
REM
REM
REM ./C.cell (11c1c37f851c82e70ff6c80c92926a4b)
REM
REM compiler GCC version 9.2.1 20190827 (Red Hat 9.2.1-1)
REM options -cpp -mtune=generic -march=x86-64 -g -O0 -fpre-include=/usr/include/finclude/math-vector-fortran.h
REM seed 1917567091 2030162215 -611702714 -1685781474 -429178087 -840143410 492814848 -255954397 -1611952522 1618479078 372938749 -1717389273 1256369209 -1596917272 -398894894 1535318269 -880694782 2134466547 1031859627 424346581 929467162 -1945156112 2003094714 1444662712 818474114 -449458637 304694333 915365518 -1186669233 -219825529 228431907 -397183980 -264511938
REM
CELL 1.54180   50.00000   50.00000   50.00000   90.00000   90.00000   90.00000
LATT -1
SFAC C  
C      1  0.5374620000000  0.5497360000000  0.5048370000000 1.0
C      1  0.4783000000000  0.4400350000000  0.4793610000000 1.0
C      1  0.5121940000000  0.5147450000000  0.5086070000000 1.0
C      1  0.4890710000000  0.5332280000000  0.5648750000000 1.0
C      1  0.4865790000000  0.5506840000000  0.4828460000000 1.0
C      1  0.5360870000000  0.4647280000000  0.5077130000000 1.0
C      1  0.5448370000000  0.4787800000000  0.4828690000000 1.0
C      1  0.5105310000000  0.5335430000000  0.4829420000000 1.0
C      1  0.4568740000000  0.5104520000000  0.4775300000000 1.0
C      1  0.4548330000000  0.5063590000000  0.5346620000000 1.0
C      1  0.4810920000000  0.4797940000000  0.4500840000000 1.0
C      1  0.4658710000000  0.4633580000000  0.4703240000000 1.0
C      1  0.5203540000000  0.5375340000000  0.5262260000000 1.0
C      1  0.4716160000000  0.5258750000000  0.5221140000000 1.0
C      1  0.5562650000000  0.5044960000000  0.4859790000000 1.0
C      1  0.5534470000000  0.5309140000000  0.4916860000000 1.0
C      1  0.4575790000000  0.4836940000000  0.4907210000000 1.0
C      1  0.4678170000000  0.5326970000000  0.4940530000000 1.0
C      1  0.5464390000000  0.4770680000000  0.5309770000000 1.0
C      1  0.5272070000000  0.4956010000000  0.5380180000000 1.0
C      1  0.4677390000000  0.5070860000000  0.4492360000000 1.0
C      1  0.5310010000000  0.4726170000000  0.4591090000000 1.0
C      1  0.4889710000000  0.5058040000000  0.5640550000000 1.0
C      1  0.4988320000000  0.4332560000000  0.4950170000000 1.0
C      1  0.4920820000000  0.5411750000000  0.5377220000000 1.0
C      1  0.5070840000000  0.4561500000000  0.5091270000000 1.0
C      1  0.4887040000000  0.4692520000000  0.5297580000000 1.0
C      1  0.5031700000000  0.4856580000000  0.5501680000000 1.0
C      1  0.5079800000000  0.4886990000000  0.4601240000000 1.0
C      1  0.4873150000000  0.5266580000000  0.4418570000000 1.0
C      1  0.4626090000000  0.4824680000000  0.5206510000000 1.0
C      1  0.5100570000000  0.5178550000000  0.4567540000000 1.0
END
