TITL C-950531-5884-113 -4.08070901313332e-06 125000 -435.877514861414 0 0 72 (C1) n - 1
REM
REM in /home/bkarasulu/work/CARBON/AIRSS/Generating-Clusters/EDIP-Nigel-Params/with-SteepDescent/Only-C1/SD-CG/HFTN-CG
REM
REM
REM
REM
REM
REM ./C.cell (11c1c37f851c82e70ff6c80c92926a4b)
REM
REM compiler GCC version 9.2.1 20190827 (Red Hat 9.2.1-1)
REM options -cpp -mtune=generic -march=x86-64 -g -O0 -fpre-include=/usr/include/finclude/math-vector-fortran.h
REM seed 171898697 -467727585 1590547004 1207713901 -1543954117 649426541 -2044200904 -428751608 909431452 -893918820 105385413 629607722 56063431 357427938 1567155936 -906641172 -804506976 -583874584 209127240 1430983912 606299583 1997704417 1979861598 209578279 1898028107 785828964 -126025214 -935903935 -1047694390 88841362 -397427365 -1041461928 55069293
REM
CELL 1.54180   50.00000   50.00000   50.00000   90.00000   90.00000   90.00000
LATT -1
SFAC C  
C      1  0.4618520000000  0.4474500000000  0.4867800000000 1.0
C      1  0.5010210000000  0.5515760000000  0.4615110000000 1.0
C      1  0.4477020000000  0.5051250000000  0.4377450000000 1.0
C      1  0.4741760000000  0.5315620000000  0.5048200000000 1.0
C      1  0.5026210000000  0.4250800000000  0.4649520000000 1.0
C      1  0.5145680000000  0.5534860000000  0.5689810000000 1.0
C      1  0.5464540000000  0.4495300000000  0.4672510000000 1.0
C      1  0.4913500000000  0.5622090000000  0.5560030000000 1.0
C      1  0.4724280000000  0.4854660000000  0.5199220000000 1.0
C      1  0.4904870000000  0.5064130000000  0.4169990000000 1.0
C      1  0.5225870000000  0.5500770000000  0.4819380000000 1.0
C      1  0.4791200000000  0.4362340000000  0.5418070000000 1.0
C      1  0.5631760000000  0.5242580000000  0.4709030000000 1.0
C      1  0.4830860000000  0.4632850000000  0.5010280000000 1.0
C      1  0.4723760000000  0.5398630000000  0.5524910000000 1.0
C      1  0.4451820000000  0.4840690000000  0.5334770000000 1.0
C      1  0.5002620000000  0.4197030000000  0.5027690000000 1.0
C      1  0.5204640000000  0.4934560000000  0.5018940000000 1.0
C      1  0.5708740000000  0.5251210000000  0.4998650000000 1.0
C      1  0.5237950000000  0.4650150000000  0.5409710000000 1.0
C      1  0.5492060000000  0.4811880000000  0.4978740000000 1.0
C      1  0.5550890000000  0.4356000000000  0.4904520000000 1.0
C      1  0.4443250000000  0.5371020000000  0.5400290000000 1.0
C      1  0.5372180000000  0.5062690000000  0.4349160000000 1.0
C      1  0.5319190000000  0.5354170000000  0.5541510000000 1.0
C      1  0.5620640000000  0.4732850000000  0.4622370000000 1.0
C      1  0.5326540000000  0.5353420000000  0.4351370000000 1.0
C      1  0.5007650000000  0.4809080000000  0.4819200000000 1.0
C      1  0.5297600000000  0.5071510000000  0.5675710000000 1.0
C      1  0.5527070000000  0.4997320000000  0.4581540000000 1.0
C      1  0.4816240000000  0.5741050000000  0.4973940000000 1.0
C      1  0.5704730000000  0.4976520000000  0.5113220000000 1.0
C      1  0.4664610000000  0.4895260000000  0.4209450000000 1.0
C      1  0.5458250000000  0.5464030000000  0.4611240000000 1.0
C      1  0.5430780000000  0.4838160000000  0.5553920000000 1.0
C      1  0.4361120000000  0.5099470000000  0.5400680000000 1.0
C      1  0.4863170000000  0.5257590000000  0.5309510000000 1.0
C      1  0.5203660000000  0.5723310000000  0.5321120000000 1.0
C      1  0.5125230000000  0.4919660000000  0.4286540000000 1.0
C      1  0.4700050000000  0.5219870000000  0.4506680000000 1.0
C      1  0.5072830000000  0.4875360000000  0.5291500000000 1.0
C      1  0.5038840000000  0.4668690000000  0.4405500000000 1.0
C      1  0.5035730000000  0.5000720000000  0.5751630000000 1.0
C      1  0.4839480000000  0.4814460000000  0.5729510000000 1.0
C      1  0.5705550000000  0.4834330000000  0.5470750000000 1.0
C      1  0.5023680000000  0.5385770000000  0.4349540000000 1.0
C      1  0.4831640000000  0.5067350000000  0.4754930000000 1.0
C      1  0.4787290000000  0.4219560000000  0.4820410000000 1.0
C      1  0.4410700000000  0.4444060000000  0.5090150000000 1.0
C      1  0.4835330000000  0.4537470000000  0.5681090000000 1.0
C      1  0.5110150000000  0.4479760000000  0.5615770000000 1.0
C      1  0.4489120000000  0.5477010000000  0.5114280000000 1.0
C      1  0.5165370000000  0.4508040000000  0.4623960000000 1.0
C      1  0.4986580000000  0.4440540000000  0.5193830000000 1.0
C      1  0.5532050000000  0.4549660000000  0.5107750000000 1.0
C      1  0.4535170000000  0.5451350000000  0.4632600000000 1.0
C      1  0.4350910000000  0.5057930000000  0.4862380000000 1.0
C      1  0.5216560000000  0.5241190000000  0.4997110000000 1.0
C      1  0.5135790000000  0.5340080000000  0.5265310000000 1.0
C      1  0.4574460000000  0.5761070000000  0.5121870000000 1.0
C      1  0.5488380000000  0.5574110000000  0.5372990000000 1.0
C      1  0.4637890000000  0.5050940000000  0.4973700000000 1.0
C      1  0.4553630000000  0.4644310000000  0.4614940000000 1.0
C      1  0.5110430000000  0.5710940000000  0.5032440000000 1.0
C      1  0.4284700000000  0.4677220000000  0.5179950000000 1.0
C      1  0.4366280000000  0.4885000000000  0.4602210000000 1.0
C      1  0.5748890000000  0.4622260000000  0.5285960000000 1.0
C      1  0.4524480000000  0.4325510000000  0.5315720000000 1.0
C      1  0.4766940000000  0.5611210000000  0.4721280000000 1.0
C      1  0.4339720000000  0.5368620000000  0.4850580000000 1.0
C      1  0.4741140000000  0.4658220000000  0.4378670000000 1.0
C      1  0.5639540000000  0.5472580000000  0.5159910000000 1.0
END
