TITL C-950528-5794-277 -3.96968562063105e-06 125000 -1068.77661802841 0 0 171 (C1) n - 1
REM
REM in /home/bkarasulu/work/CARBON/AIRSS/Generating-Clusters/EDIP-Nigel-Params/with-SteepDescent/Only-C1/SD-CG/HFTN-CG
REM
REM
REM
REM
REM
REM ./C.cell (11c1c37f851c82e70ff6c80c92926a4b)
REM
REM compiler GCC version 9.2.1 20190827 (Red Hat 9.2.1-1)
REM options -cpp -mtune=generic -march=x86-64 -g -O0 -fpre-include=/usr/include/finclude/math-vector-fortran.h
REM seed 1388665803 2108498476 2072866360 549133074 859981592 1075136662 1052804289 783895133 -1013859280 -967336694 927050117 2068848637 -885421882 -1339858099 -470683962 -830383896 -1578033179 783268328 -1796068936 1472873483 2098473247 93331613 1461310452 2047107420 1964838352 1672433411 790922461 -849311150 537909750 -343835245 -888773937 -648000877 1316796366
REM
CELL 1.54180   50.00000   50.00000   50.00000   90.00000   90.00000   90.00000
LATT -1
SFAC C  
C      1  0.4174570000000  0.5591740000000  0.5132680000000 1.0
C      1  0.5025720000000  0.5870040000000  0.5101360000000 1.0
C      1  0.4616130000000  0.5596130000000  0.5145050000000 1.0
C      1  0.4568270000000  0.4400350000000  0.4310970000000 1.0
C      1  0.5174220000000  0.4839880000000  0.3979990000000 1.0
C      1  0.5947310000000  0.4331550000000  0.5149670000000 1.0
C      1  0.5908900000000  0.4890170000000  0.5697680000000 1.0
C      1  0.4242960000000  0.4502140000000  0.5590600000000 1.0
C      1  0.5107580000000  0.5656860000000  0.4909470000000 1.0
C      1  0.4934740000000  0.4350610000000  0.5902540000000 1.0
C      1  0.5585110000000  0.4058390000000  0.4948610000000 1.0
C      1  0.4990130000000  0.4716660000000  0.4445920000000 1.0
C      1  0.4005430000000  0.4533450000000  0.4860590000000 1.0
C      1  0.4313380000000  0.4987410000000  0.4648780000000 1.0
C      1  0.5486670000000  0.4639070000000  0.4281250000000 1.0
C      1  0.4260970000000  0.5687630000000  0.5388000000000 1.0
C      1  0.4783870000000  0.4108920000000  0.5477940000000 1.0
C      1  0.4787830000000  0.4248770000000  0.4175170000000 1.0
C      1  0.5542120000000  0.4261280000000  0.5411940000000 1.0
C      1  0.4343250000000  0.5479840000000  0.5572490000000 1.0
C      1  0.4664340000000  0.4644130000000  0.5469200000000 1.0
C      1  0.4821280000000  0.5365420000000  0.5777040000000 1.0
C      1  0.5675330000000  0.5163780000000  0.5372140000000 1.0
C      1  0.5801380000000  0.5374370000000  0.5554910000000 1.0
C      1  0.4577120000000  0.5558900000000  0.5729410000000 1.0
C      1  0.5013900000000  0.5570730000000  0.4078030000000 1.0
C      1  0.5027270000000  0.4400450000000  0.4089860000000 1.0
C      1  0.5433490000000  0.5609710000000  0.4550000000000 1.0
C      1  0.5445310000000  0.5748750000000  0.4282680000000 1.0
C      1  0.5208200000000  0.4039250000000  0.4630040000000 1.0
C      1  0.4526520000000  0.4489800000000  0.5692870000000 1.0
C      1  0.5487950000000  0.5932130000000  0.4967370000000 1.0
C      1  0.5179930000000  0.4557610000000  0.4891500000000 1.0
C      1  0.4301710000000  0.5499910000000  0.4533750000000 1.0
C      1  0.5099150000000  0.4078170000000  0.5111190000000 1.0
C      1  0.4379700000000  0.5901210000000  0.4799470000000 1.0
C      1  0.4520080000000  0.5690220000000  0.4630510000000 1.0
C      1  0.5701130000000  0.4190170000000  0.5174030000000 1.0
C      1  0.5899410000000  0.4709600000000  0.4391560000000 1.0
C      1  0.5007600000000  0.4456260000000  0.5131310000000 1.0
C      1  0.5907450000000  0.5568330000000  0.5029900000000 1.0
C      1  0.5444240000000  0.4818320000000  0.4045590000000 1.0
C      1  0.5199030000000  0.5233060000000  0.6057590000000 1.0
C      1  0.5598880000000  0.4663030000000  0.5660340000000 1.0
C      1  0.4820130000000  0.4582870000000  0.6059220000000 1.0
C      1  0.4958090000000  0.4858030000000  0.6028630000000 1.0
C      1  0.4679610000000  0.5140360000000  0.4856970000000 1.0
C      1  0.4163140000000  0.4775900000000  0.5590570000000 1.0
C      1  0.5152600000000  0.4952710000000  0.4548020000000 1.0
C      1  0.5631990000000  0.5291850000000  0.5796470000000 1.0
C      1  0.4469660000000  0.4624750000000  0.4143760000000 1.0
C      1  0.4863890000000  0.5334530000000  0.4746090000000 1.0
C      1  0.4616180000000  0.5838470000000  0.5627150000000 1.0
C      1  0.5098170000000  0.5050080000000  0.4869300000000 1.0
C      1  0.4494970000000  0.5140620000000  0.4016060000000 1.0
C      1  0.5921480000000  0.4537490000000  0.5346990000000 1.0
C      1  0.4206100000000  0.4115920000000  0.4964600000000 1.0
C      1  0.5276240000000  0.4235280000000  0.5540900000000 1.0
C      1  0.3877850000000  0.5025370000000  0.4756160000000 1.0
C      1  0.5315790000000  0.5222800000000  0.4952030000000 1.0
C      1  0.5330280000000  0.5893420000000  0.5695080000000 1.0
C      1  0.5594450000000  0.5058760000000  0.4119600000000 1.0
C      1  0.5198620000000  0.4403830000000  0.5768700000000 1.0
C      1  0.5714660000000  0.5021670000000  0.5876910000000 1.0
C      1  0.5142400000000  0.4472730000000  0.4588340000000 1.0
C      1  0.5393500000000  0.4111470000000  0.4405370000000 1.0
C      1  0.4136680000000  0.5749520000000  0.4890030000000 1.0
C      1  0.5587810000000  0.5215750000000  0.4833750000000 1.0
C      1  0.4262050000000  0.5015120000000  0.4949460000000 1.0
C      1  0.5479640000000  0.5324370000000  0.4024160000000 1.0
C      1  0.4518940000000  0.4552550000000  0.4989440000000 1.0
C      1  0.3940750000000  0.5296660000000  0.4842220000000 1.0
C      1  0.4555830000000  0.4655530000000  0.5936470000000 1.0
C      1  0.4900710000000  0.5310570000000  0.6062230000000 1.0
C      1  0.4963470000000  0.4957340000000  0.5135910000000 1.0
C      1  0.4256900000000  0.4997810000000  0.5748910000000 1.0
C      1  0.6061460000000  0.5253070000000  0.4724120000000 1.0
C      1  0.5850260000000  0.4968930000000  0.4272680000000 1.0
C      1  0.4047860000000  0.5147960000000  0.5312350000000 1.0
C      1  0.5235490000000  0.5406340000000  0.4510360000000 1.0
C      1  0.4227400000000  0.4783460000000  0.4228180000000 1.0
C      1  0.4750140000000  0.4527200000000  0.4793400000000 1.0
C      1  0.5065140000000  0.4107100000000  0.5392570000000 1.0
C      1  0.4197390000000  0.4753670000000  0.4525620000000 1.0
C      1  0.4745080000000  0.5081140000000  0.5669050000000 1.0
C      1  0.5579460000000  0.5575860000000  0.4100290000000 1.0
C      1  0.5094330000000  0.5458350000000  0.5645190000000 1.0
C      1  0.5947520000000  0.5141970000000  0.4479170000000 1.0
C      1  0.4754470000000  0.5509980000000  0.4238330000000 1.0
C      1  0.4862140000000  0.5179150000000  0.5310270000000 1.0
C      1  0.5222620000000  0.4949650000000  0.6157340000000 1.0
C      1  0.4950650000000  0.4699560000000  0.5551220000000 1.0
C      1  0.6123050000000  0.4796820000000  0.4824980000000 1.0
C      1  0.4905850000000  0.6060380000000  0.4679090000000 1.0
C      1  0.4283040000000  0.4165870000000  0.5227020000000 1.0
C      1  0.6101330000000  0.5047200000000  0.4951130000000 1.0
C      1  0.5140590000000  0.5797430000000  0.4232130000000 1.0
C      1  0.5198500000000  0.5364760000000  0.3998950000000 1.0
C      1  0.4573950000000  0.4084640000000  0.5246500000000 1.0
C      1  0.4199420000000  0.4430050000000  0.5313470000000 1.0
C      1  0.5759230000000  0.5290070000000  0.5077360000000 1.0
C      1  0.4271140000000  0.5435280000000  0.4255880000000 1.0
C      1  0.4529000000000  0.4958950000000  0.5887450000000 1.0
C      1  0.5671730000000  0.4677850000000  0.4807840000000 1.0
C      1  0.4878380000000  0.5687780000000  0.5300020000000 1.0
C      1  0.5252520000000  0.5460450000000  0.5112320000000 1.0
C      1  0.4454910000000  0.4831210000000  0.5085080000000 1.0
C      1  0.4678000000000  0.4065140000000  0.4977000000000 1.0
C      1  0.4444840000000  0.5905950000000  0.5392140000000 1.0
C      1  0.4705210000000  0.4241160000000  0.5731230000000 1.0
C      1  0.4028290000000  0.5350700000000  0.5113470000000 1.0
C      1  0.5296650000000  0.5985300000000  0.5190560000000 1.0
C      1  0.4858010000000  0.4010880000000  0.4304340000000 1.0
C      1  0.3935260000000  0.4755740000000  0.4661140000000 1.0
C      1  0.4252040000000  0.5065920000000  0.4148390000000 1.0
C      1  0.4891000000000  0.5864730000000  0.5545920000000 1.0
C      1  0.5747810000000  0.4027180000000  0.4724190000000 1.0
C      1  0.5934590000000  0.5527720000000  0.4743560000000 1.0
C      1  0.4007700000000  0.4598810000000  0.5151910000000 1.0
C      1  0.5083320000000  0.4729280000000  0.5289950000000 1.0
C      1  0.5272620000000  0.4372370000000  0.4276460000000 1.0
C      1  0.5299130000000  0.4057460000000  0.4907010000000 1.0
C      1  0.4979600000000  0.4919110000000  0.5731730000000 1.0
C      1  0.4054090000000  0.5536360000000  0.4687590000000 1.0
C      1  0.4728270000000  0.4721360000000  0.4572820000000 1.0
C      1  0.4647820000000  0.4981130000000  0.3844470000000 1.0
C      1  0.4966320000000  0.4689480000000  0.4111350000000 1.0
C      1  0.5518570000000  0.4470790000000  0.4629790000000 1.0
C      1  0.4218400000000  0.5212520000000  0.5550290000000 1.0
C      1  0.4604590000000  0.4999370000000  0.4605250000000 1.0
C      1  0.5431900000000  0.4874980000000  0.4486060000000 1.0
C      1  0.5744900000000  0.5819550000000  0.5101330000000 1.0
C      1  0.5645630000000  0.4206290000000  0.4533950000000 1.0
C      1  0.5377960000000  0.4779350000000  0.5299290000000 1.0
C      1  0.5428160000000  0.4683280000000  0.5008070000000 1.0
C      1  0.5530790000000  0.5530550000000  0.5245610000000 1.0
C      1  0.4938010000000  0.5890580000000  0.4452470000000 1.0
C      1  0.4692730000000  0.4452790000000  0.5221600000000 1.0
C      1  0.5654800000000  0.4962080000000  0.4664810000000 1.0
C      1  0.5038770000000  0.5430410000000  0.5340880000000 1.0
C      1  0.5416830000000  0.4578530000000  0.5878420000000 1.0
C      1  0.5437810000000  0.5915180000000  0.5439570000000 1.0
C      1  0.4556400000000  0.5208780000000  0.5307260000000 1.0
C      1  0.6066230000000  0.5274220000000  0.5452360000000 1.0
C      1  0.4555990000000  0.5963300000000  0.5034230000000 1.0
C      1  0.4511160000000  0.5421380000000  0.4085690000000 1.0
C      1  0.5462880000000  0.4993770000000  0.5516400000000 1.0
C      1  0.4815480000000  0.5273870000000  0.4437360000000 1.0
C      1  0.4690970000000  0.5756560000000  0.4394920000000 1.0
C      1  0.4273120000000  0.4365140000000  0.4828790000000 1.0
C      1  0.4448520000000  0.4263440000000  0.4561910000000 1.0
C      1  0.5949930000000  0.4640520000000  0.4669970000000 1.0
C      1  0.4835540000000  0.6046680000000  0.4953360000000 1.0
C      1  0.5319410000000  0.5256460000000  0.5768040000000 1.0
C      1  0.4712690000000  0.4217610000000  0.4730100000000 1.0
C      1  0.4726880000000  0.5583640000000  0.4844430000000 1.0
C      1  0.4692320000000  0.4745590000000  0.3991910000000 1.0
C      1  0.5964720000000  0.4829730000000  0.5414260000000 1.0
C      1  0.4930620000000  0.4090940000000  0.4562320000000 1.0
C      1  0.5094660000000  0.5752070000000  0.5723340000000 1.0
C      1  0.4470530000000  0.4888370000000  0.5383440000000 1.0
C      1  0.5727870000000  0.4440900000000  0.5536720000000 1.0
C      1  0.5663400000000  0.5439760000000  0.4642180000000 1.0
C      1  0.5461680000000  0.4824950000000  0.6044500000000 1.0
C      1  0.6085630000000  0.5052700000000  0.5259370000000 1.0
C      1  0.4456160000000  0.5269870000000  0.5022230000000 1.0
C      1  0.5093050000000  0.5195180000000  0.4393820000000 1.0
C      1  0.4744880000000  0.5065720000000  0.6127330000000 1.0
C      1  0.5328890000000  0.5787070000000  0.4762770000000 1.0
C      1  0.3987920000000  0.4887780000000  0.5197180000000 1.0
C      1  0.5705870000000  0.5841490000000  0.5391320000000 1.0
END
