TITL C-950536-5891-57 -2.77373820003706e-06 125000 -761.478493596113 0 0 123 (C1) n - 1
REM
REM in /home/bkarasulu/work/CARBON/AIRSS/Generating-Clusters/EDIP-Nigel-Params/with-SteepDescent/Only-C1/SD-CG/HFTN-CG
REM
REM
REM
REM
REM
REM ./C.cell (11c1c37f851c82e70ff6c80c92926a4b)
REM
REM compiler GCC version 9.2.1 20190827 (Red Hat 9.2.1-1)
REM options -cpp -mtune=generic -march=x86-64 -g -O0 -fpre-include=/usr/include/finclude/math-vector-fortran.h
REM seed -775083768 -860295824 -1615522164 354192414 -1915429039 982396556 1708526126 593078049 1209135379 -636003127 -1639844396 -794308107 -467949921 -471081656 -1257059086 964508799 -1136120874 -129702998 -1156685382 778773705 -75803025 542102902 -1840888179 783760961 -910557535 -2026716933 1871325490 498432260 -459397189 -1551768800 -142054391 282614159 660663734
REM
CELL 1.54180   50.00000   50.00000   50.00000   90.00000   90.00000   90.00000
LATT -1
SFAC C  
C      1  0.4036930000000  0.4682530000000  0.5117190000000 1.0
C      1  0.5365530000000  0.4205290000000  0.4670800000000 1.0
C      1  0.5833010000000  0.5026840000000  0.4433090000000 1.0
C      1  0.5707960000000  0.5139830000000  0.3954430000000 1.0
C      1  0.5073930000000  0.5968980000000  0.5295260000000 1.0
C      1  0.5202840000000  0.5186440000000  0.4114620000000 1.0
C      1  0.5368600000000  0.5762090000000  0.4964600000000 1.0
C      1  0.5950230000000  0.4701170000000  0.4982890000000 1.0
C      1  0.4679710000000  0.5917950000000  0.5047430000000 1.0
C      1  0.5087710000000  0.4630020000000  0.5541470000000 1.0
C      1  0.4555000000000  0.4717910000000  0.4501290000000 1.0
C      1  0.4766870000000  0.4906290000000  0.5167410000000 1.0
C      1  0.5422310000000  0.5680380000000  0.5546090000000 1.0
C      1  0.4996880000000  0.5277820000000  0.4720090000000 1.0
C      1  0.4317150000000  0.4945730000000  0.5828550000000 1.0
C      1  0.4387030000000  0.5639990000000  0.4775680000000 1.0
C      1  0.5818590000000  0.5107170000000  0.5478990000000 1.0
C      1  0.4655830000000  0.5630360000000  0.4634220000000 1.0
C      1  0.4816140000000  0.5212240000000  0.5921630000000 1.0
C      1  0.5418440000000  0.4584080000000  0.5895020000000 1.0
C      1  0.4476710000000  0.4718680000000  0.5784960000000 1.0
C      1  0.4949700000000  0.4958520000000  0.5893780000000 1.0
C      1  0.4937740000000  0.5671510000000  0.5663660000000 1.0
C      1  0.4613950000000  0.5415600000000  0.5102180000000 1.0
C      1  0.5335240000000  0.4647800000000  0.4853670000000 1.0
C      1  0.4185550000000  0.5161090000000  0.5699060000000 1.0
C      1  0.5565440000000  0.4915150000000  0.3878650000000 1.0
C      1  0.4877270000000  0.5474180000000  0.5447740000000 1.0
C      1  0.5112940000000  0.5749150000000  0.4553400000000 1.0
C      1  0.4121050000000  0.5156810000000  0.4934010000000 1.0
C      1  0.5207240000000  0.4457750000000  0.5761230000000 1.0
C      1  0.4719740000000  0.5835380000000  0.5747970000000 1.0
C      1  0.4448630000000  0.5290330000000  0.5339370000000 1.0
C      1  0.4266530000000  0.4785350000000  0.4430350000000 1.0
C      1  0.4582920000000  0.4659790000000  0.4791790000000 1.0
C      1  0.4801330000000  0.3764300000000  0.4880300000000 1.0
C      1  0.4901800000000  0.4160480000000  0.5223480000000 1.0
C      1  0.4836710000000  0.4610910000000  0.5181980000000 1.0
C      1  0.5069380000000  0.3856190000000  0.4914250000000 1.0
C      1  0.5385470000000  0.4598090000000  0.4371460000000 1.0
C      1  0.5114740000000  0.4068040000000  0.4717840000000 1.0
C      1  0.5738570000000  0.5324900000000  0.5637330000000 1.0
C      1  0.5615300000000  0.4786020000000  0.4480290000000 1.0
C      1  0.5375700000000  0.4072640000000  0.5222130000000 1.0
C      1  0.5674430000000  0.4848290000000  0.5557280000000 1.0
C      1  0.5252450000000  0.5015830000000  0.4383930000000 1.0
C      1  0.5580010000000  0.5536120000000  0.4583260000000 1.0
C      1  0.5585480000000  0.5660320000000  0.5136220000000 1.0
C      1  0.4968480000000  0.5257960000000  0.5014540000000 1.0
C      1  0.5556290000000  0.5444800000000  0.4313000000000 1.0
C      1  0.5253990000000  0.4997160000000  0.5787680000000 1.0
C      1  0.5359110000000  0.4546390000000  0.5150640000000 1.0
C      1  0.5942590000000  0.4993790000000  0.4958870000000 1.0
C      1  0.4597940000000  0.4923050000000  0.4929740000000 1.0
C      1  0.4383020000000  0.5376520000000  0.5641460000000 1.0
C      1  0.5194980000000  0.4699260000000  0.4174190000000 1.0
C      1  0.5057620000000  0.5587780000000  0.4309910000000 1.0
C      1  0.4058780000000  0.4492360000000  0.5363840000000 1.0
C      1  0.4070270000000  0.4790430000000  0.5392690000000 1.0
C      1  0.4496840000000  0.5690800000000  0.5043830000000 1.0
C      1  0.5166600000000  0.5835550000000  0.5560460000000 1.0
C      1  0.4553450000000  0.5224040000000  0.4853570000000 1.0
C      1  0.4902550000000  0.4450590000000  0.5845140000000 1.0
C      1  0.4899320000000  0.4700470000000  0.4143910000000 1.0
C      1  0.4727330000000  0.4533810000000  0.4320560000000 1.0
C      1  0.4739300000000  0.4271710000000  0.5691460000000 1.0
C      1  0.5025980000000  0.5493420000000  0.5191490000000 1.0
C      1  0.5908860000000  0.5148650000000  0.4698930000000 1.0
C      1  0.4313370000000  0.5294200000000  0.4416070000000 1.0
C      1  0.4527760000000  0.4154630000000  0.4783700000000 1.0
C      1  0.5311440000000  0.5276980000000  0.5798060000000 1.0
C      1  0.4800840000000  0.5447380000000  0.4208140000000 1.0
C      1  0.5149370000000  0.4885050000000  0.4852180000000 1.0
C      1  0.4167570000000  0.5240200000000  0.5217670000000 1.0
C      1  0.5338360000000  0.5075080000000  0.3875080000000 1.0
C      1  0.5271590000000  0.4471390000000  0.4613850000000 1.0
C      1  0.4726120000000  0.5324940000000  0.4625850000000 1.0
C      1  0.4656490000000  0.5988900000000  0.5533890000000 1.0
C      1  0.4579350000000  0.5338570000000  0.5842280000000 1.0
C      1  0.5773510000000  0.5403270000000  0.4758020000000 1.0
C      1  0.4717230000000  0.4978990000000  0.4446580000000 1.0
C      1  0.5083950000000  0.5765540000000  0.5067850000000 1.0
C      1  0.5810780000000  0.4510800000000  0.4810250000000 1.0
C      1  0.5087950000000  0.4487980000000  0.5284980000000 1.0
C      1  0.5117390000000  0.3966540000000  0.5184450000000 1.0
C      1  0.5617240000000  0.4750220000000  0.4782260000000 1.0
C      1  0.4057160000000  0.4870020000000  0.4892060000000 1.0
C      1  0.4079970000000  0.4762100000000  0.4636090000000 1.0
C      1  0.5468260000000  0.4815360000000  0.5329550000000 1.0
C      1  0.4063120000000  0.5076600000000  0.5439590000000 1.0
C      1  0.4786550000000  0.6040430000000  0.5289570000000 1.0
C      1  0.4620030000000  0.5045910000000  0.5396150000000 1.0
C      1  0.5655100000000  0.4274360000000  0.4897320000000 1.0
C      1  0.5770610000000  0.5449470000000  0.5046130000000 1.0
C      1  0.5501680000000  0.5453230000000  0.5707880000000 1.0
C      1  0.4669130000000  0.4363150000000  0.5206110000000 1.0
C      1  0.5057190000000  0.5081330000000  0.5347800000000 1.0
C      1  0.4762920000000  0.4970720000000  0.4150410000000 1.0
C      1  0.4774440000000  0.4722550000000  0.5831840000000 1.0
C      1  0.5788260000000  0.5158250000000  0.5168510000000 1.0
C      1  0.4898210000000  0.4057770000000  0.4523670000000 1.0
C      1  0.4250920000000  0.5040570000000  0.4324360000000 1.0
C      1  0.4547140000000  0.4331060000000  0.5492520000000 1.0
C      1  0.5025990000000  0.5001030000000  0.4592000000000 1.0
C      1  0.4847990000000  0.5189130000000  0.5534760000000 1.0
C      1  0.5224730000000  0.4891980000000  0.5497870000000 1.0
C      1  0.4687150000000  0.3942360000000  0.4689260000000 1.0
C      1  0.5529890000000  0.5021970000000  0.5120700000000 1.0
C      1  0.5485860000000  0.5110370000000  0.4589740000000 1.0
C      1  0.4515660000000  0.5433080000000  0.4266330000000 1.0
C      1  0.4543880000000  0.4392940000000  0.4928120000000 1.0
C      1  0.5737810000000  0.5228270000000  0.4227090000000 1.0
C      1  0.5293360000000  0.5462250000000  0.4179460000000 1.0
C      1  0.4908540000000  0.5211630000000  0.4065780000000 1.0
C      1  0.5523390000000  0.4298430000000  0.5153370000000 1.0
C      1  0.4282990000000  0.5341580000000  0.4722410000000 1.0
C      1  0.5368360000000  0.5699300000000  0.4687390000000 1.0
C      1  0.4365090000000  0.4527330000000  0.5593220000000 1.0
C      1  0.5520440000000  0.4836760000000  0.5827170000000 1.0
C      1  0.4882230000000  0.5803730000000  0.4743180000000 1.0
C      1  0.5358760000000  0.5090290000000  0.4890400000000 1.0
C      1  0.4815480000000  0.4277510000000  0.4376220000000 1.0
C      1  0.5625360000000  0.5785640000000  0.5386620000000 1.0
END
