TITL C-950527-2551-576 8.2097571299665e-07 125000 -239.836200726429 0 0 40 (C1) n - 1
REM
REM in /home/bkarasulu/work/CARBON/AIRSS/Generating-Clusters/EDIP-Nigel-Params/with-SteepDescent/Only-C1/SD-CG/HFTN-CG
REM
REM
REM
REM
REM
REM ./C.cell (11c1c37f851c82e70ff6c80c92926a4b)
REM
REM compiler GCC version 9.2.1 20190827 (Red Hat 9.2.1-1)
REM options -cpp -mtune=generic -march=x86-64 -g -O0 -fpre-include=/usr/include/finclude/math-vector-fortran.h
REM seed 111588982 -1027723075 -230625080 1519119189 -441194537 1468431964 -1031249950 1382039867 -11098046 -1004563848 2105071263 721446031 606958999 768056067 1837777470 865018486 -780187017 1808712117 360137968 938223489 -1627467192 -1041593748 1831596627 123911582 -387596400 1457126568 1369627122 1380613985 -1637768792 -1991478433 -45741297 62417361 546797387
REM
CELL 1.54180   50.00000   50.00000   50.00000   90.00000   90.00000   90.00000
LATT -1
SFAC C  
C      1  0.4587420000000  0.4967510000000  0.5030270000000 1.0
C      1  0.5052260000000  0.5127970000000  0.5041070000000 1.0
C      1  0.4634630000000  0.4618120000000  0.4690100000000 1.0
C      1  0.5110470000000  0.5739890000000  0.4902110000000 1.0
C      1  0.5116850000000  0.4577060000000  0.4727210000000 1.0
C      1  0.4775370000000  0.5095840000000  0.5513060000000 1.0
C      1  0.4501180000000  0.4502550000000  0.5356910000000 1.0
C      1  0.4650000000000  0.5308450000000  0.4679960000000 1.0
C      1  0.4455450000000  0.4717570000000  0.4906530000000 1.0
C      1  0.4427370000000  0.4755030000000  0.5448920000000 1.0
C      1  0.5077070000000  0.4317050000000  0.5121090000000 1.0
C      1  0.4994450000000  0.4341720000000  0.4853400000000 1.0
C      1  0.5395000000000  0.5288130000000  0.5342440000000 1.0
C      1  0.5260820000000  0.5039970000000  0.5237110000000 1.0
C      1  0.4894200000000  0.5353230000000  0.5141860000000 1.0
C      1  0.5343030000000  0.5147100000000  0.4498810000000 1.0
C      1  0.5621910000000  0.5378580000000  0.5203520000000 1.0
C      1  0.4893430000000  0.4778770000000  0.4698550000000 1.0
C      1  0.5196210000000  0.4956670000000  0.4350470000000 1.0
C      1  0.5155560000000  0.5337860000000  0.4612500000000 1.0
C      1  0.4837700000000  0.5366200000000  0.5420050000000 1.0
C      1  0.4935560000000  0.4976460000000  0.4462030000000 1.0
C      1  0.5016610000000  0.4456020000000  0.5355010000000 1.0
C      1  0.5535990000000  0.5594520000000  0.4769020000000 1.0
C      1  0.5258170000000  0.5595340000000  0.4706960000000 1.0
C      1  0.5270560000000  0.5701610000000  0.5136800000000 1.0
C      1  0.4706500000000  0.4357590000000  0.4804800000000 1.0
C      1  0.5352940000000  0.4664170000000  0.4848580000000 1.0
C      1  0.4549410000000  0.4981930000000  0.5339130000000 1.0
C      1  0.4507760000000  0.5206400000000  0.4886490000000 1.0
C      1  0.4754830000000  0.4423390000000  0.5441120000000 1.0
C      1  0.5533640000000  0.5600610000000  0.5053630000000 1.0
C      1  0.5525420000000  0.5041300000000  0.4682300000000 1.0
C      1  0.4882300000000  0.5262160000000  0.4528810000000 1.0
C      1  0.4458870000000  0.4475500000000  0.5072300000000 1.0
C      1  0.5502180000000  0.4882880000000  0.4901990000000 1.0
C      1  0.5186180000000  0.5500710000000  0.5342670000000 1.0
C      1  0.4871580000000  0.4914870000000  0.4964670000000 1.0
C      1  0.5028690000000  0.4938050000000  0.5529230000000 1.0
C      1  0.5142430000000  0.4711240000000  0.5398490000000 1.0
END
