TITL C-950531-5884-167 1.93410627470839e-06 125000 -978.942008036651 0 0 156 (C1) n - 1
REM
REM in /home/bkarasulu/work/CARBON/AIRSS/Generating-Clusters/EDIP-Nigel-Params/with-SteepDescent/Only-C1/SD-CG/HFTN-CG
REM
REM
REM
REM
REM
REM ./C.cell (11c1c37f851c82e70ff6c80c92926a4b)
REM
REM compiler GCC version 9.2.1 20190827 (Red Hat 9.2.1-1)
REM options -cpp -mtune=generic -march=x86-64 -g -O0 -fpre-include=/usr/include/finclude/math-vector-fortran.h
REM seed 1063133312 1241914503 1542982698 -1326157225 -1973568933 -1367001727 681694926 -132167082 -1325605097 -1403306379 1259342078 -1759084081 -141873600 1994284223 -1272805875 1822357841 -1673971155 -1465797607 -64143935 1695459493 -858623621 -605865372 1120027007 1271521187 752878704 1503786388 -1286888349 -1567062674 -679882499 -1896841047 -1371503473 1381539209 1316774331
REM
CELL 1.54180   50.00000   50.00000   50.00000   90.00000   90.00000   90.00000
LATT -1
SFAC C  
C      1  0.4928610000000  0.4938570000000  0.5426430000000 1.0
C      1  0.5336230000000  0.3954800000000  0.5538550000000 1.0
C      1  0.4425230000000  0.5341030000000  0.4286890000000 1.0
C      1  0.4216550000000  0.4703340000000  0.5638330000000 1.0
C      1  0.5656910000000  0.4626400000000  0.5384680000000 1.0
C      1  0.4533660000000  0.5356560000000  0.4958370000000 1.0
C      1  0.5562630000000  0.5739110000000  0.4483110000000 1.0
C      1  0.5831770000000  0.5141880000000  0.5667780000000 1.0
C      1  0.5038810000000  0.5005250000000  0.6007800000000 1.0
C      1  0.5178650000000  0.4832130000000  0.5294720000000 1.0
C      1  0.5389740000000  0.4615440000000  0.5926820000000 1.0
C      1  0.3962270000000  0.5197570000000  0.5722560000000 1.0
C      1  0.4673890000000  0.4053920000000  0.5060800000000 1.0
C      1  0.5222570000000  0.5547030000000  0.5108100000000 1.0
C      1  0.5436250000000  0.4012970000000  0.5026040000000 1.0
C      1  0.4573930000000  0.5734840000000  0.4628720000000 1.0
C      1  0.4663860000000  0.5860660000000  0.5236680000000 1.0
C      1  0.4987800000000  0.5505390000000  0.5906140000000 1.0
C      1  0.5412750000000  0.4837630000000  0.4059040000000 1.0
C      1  0.5109810000000  0.4045870000000  0.5394050000000 1.0
C      1  0.5315540000000  0.5289740000000  0.5555240000000 1.0
C      1  0.4441960000000  0.4521190000000  0.5697520000000 1.0
C      1  0.5859140000000  0.5304020000000  0.4767010000000 1.0
C      1  0.5361790000000  0.5800200000000  0.4264400000000 1.0
C      1  0.4937580000000  0.5905860000000  0.5625560000000 1.0
C      1  0.4261150000000  0.5371380000000  0.4533570000000 1.0
C      1  0.4240810000000  0.4201890000000  0.5142970000000 1.0
C      1  0.4427380000000  0.4178390000000  0.4650160000000 1.0
C      1  0.5639000000000  0.5809630000000  0.4987610000000 1.0
C      1  0.4792000000000  0.5639560000000  0.4154650000000 1.0
C      1  0.4025120000000  0.4583660000000  0.4887910000000 1.0
C      1  0.5785830000000  0.5029620000000  0.4309040000000 1.0
C      1  0.4598180000000  0.4446250000000  0.4134670000000 1.0
C      1  0.4857270000000  0.4552450000000  0.5011970000000 1.0
C      1  0.4811790000000  0.4847170000000  0.4907510000000 1.0
C      1  0.4738400000000  0.5330000000000  0.5194060000000 1.0
C      1  0.5338100000000  0.4596710000000  0.4955410000000 1.0
C      1  0.4842860000000  0.5344760000000  0.5692560000000 1.0
C      1  0.5602970000000  0.4232210000000  0.5104540000000 1.0
C      1  0.4665820000000  0.5280210000000  0.5930010000000 1.0
C      1  0.4512230000000  0.5566410000000  0.4149700000000 1.0
C      1  0.5490150000000  0.4564610000000  0.4139690000000 1.0
C      1  0.4292510000000  0.5558510000000  0.4964020000000 1.0
C      1  0.5543670000000  0.5426250000000  0.4472480000000 1.0
C      1  0.5477800000000  0.5861110000000  0.4745180000000 1.0
C      1  0.5541530000000  0.4358820000000  0.5360870000000 1.0
C      1  0.4983010000000  0.5957420000000  0.4579070000000 1.0
C      1  0.5476310000000  0.4848740000000  0.5478530000000 1.0
C      1  0.4526480000000  0.4422100000000  0.5435540000000 1.0
C      1  0.5044970000000  0.4296940000000  0.5827920000000 1.0
C      1  0.5040850000000  0.5153920000000  0.5591320000000 1.0
C      1  0.4853310000000  0.4451910000000  0.4707120000000 1.0
C      1  0.4038760000000  0.5418300000000  0.5033580000000 1.0
C      1  0.4412960000000  0.4062950000000  0.4922040000000 1.0
C      1  0.5159940000000  0.4136240000000  0.5111460000000 1.0
C      1  0.5420120000000  0.5315020000000  0.5836590000000 1.0
C      1  0.4536590000000  0.3998640000000  0.4466540000000 1.0
C      1  0.4921850000000  0.5952120000000  0.5097390000000 1.0
C      1  0.5016310000000  0.4902620000000  0.4071130000000 1.0
C      1  0.4123990000000  0.4670100000000  0.4644460000000 1.0
C      1  0.5621360000000  0.4939650000000  0.5736430000000 1.0
C      1  0.4639210000000  0.5050880000000  0.5263630000000 1.0
C      1  0.4237120000000  0.5139910000000  0.4722480000000 1.0
C      1  0.4955090000000  0.5357740000000  0.4734570000000 1.0
C      1  0.5777660000000  0.5608870000000  0.5520700000000 1.0
C      1  0.5342160000000  0.4347030000000  0.4044820000000 1.0
C      1  0.5622730000000  0.5027120000000  0.4079090000000 1.0
C      1  0.4813190000000  0.4269000000000  0.4189010000000 1.0
C      1  0.5865240000000  0.5459880000000  0.5280170000000 1.0
C      1  0.4716750000000  0.5784250000000  0.5505360000000 1.0
C      1  0.4114180000000  0.5030100000000  0.5281610000000 1.0
C      1  0.4946670000000  0.4236660000000  0.5546870000000 1.0
C      1  0.4446240000000  0.4165100000000  0.5348550000000 1.0
C      1  0.5904520000000  0.4798120000000  0.4732410000000 1.0
C      1  0.5939390000000  0.4986500000000  0.5171070000000 1.0
C      1  0.4283590000000  0.5637510000000  0.4662810000000 1.0
C      1  0.4548740000000  0.4956400000000  0.4976290000000 1.0
C      1  0.5837090000000  0.4588440000000  0.4918780000000 1.0
C      1  0.5472150000000  0.4197670000000  0.5598860000000 1.0
C      1  0.4583100000000  0.5962530000000  0.4810940000000 1.0
C      1  0.4917620000000  0.4534950000000  0.5972140000000 1.0
C      1  0.5262500000000  0.5579020000000  0.5467630000000 1.0
C      1  0.5182750000000  0.5287180000000  0.6012610000000 1.0
C      1  0.4380280000000  0.5111200000000  0.5431820000000 1.0
C      1  0.5248430000000  0.4231050000000  0.4534220000000 1.0
C      1  0.5463620000000  0.5268360000000  0.4733640000000 1.0
C      1  0.4275280000000  0.4902190000000  0.4573280000000 1.0
C      1  0.5469030000000  0.5899960000000  0.5220570000000 1.0
C      1  0.4510010000000  0.4582120000000  0.4372210000000 1.0
C      1  0.5106610000000  0.5701220000000  0.5701930000000 1.0
C      1  0.5131280000000  0.5426230000000  0.3827740000000 1.0
C      1  0.5147540000000  0.5086400000000  0.4314350000000 1.0
C      1  0.5341590000000  0.4340700000000  0.5830030000000 1.0
C      1  0.5245740000000  0.4212210000000  0.4256790000000 1.0
C      1  0.5856860000000  0.4706090000000  0.5185030000000 1.0
C      1  0.4814030000000  0.4890900000000  0.4605930000000 1.0
C      1  0.4800700000000  0.5119640000000  0.4039640000000 1.0
C      1  0.3922370000000  0.5201880000000  0.5444840000000 1.0
C      1  0.4368680000000  0.5761240000000  0.5184190000000 1.0
C      1  0.5810280000000  0.5293730000000  0.4452790000000 1.0
C      1  0.5174300000000  0.5034300000000  0.5069580000000 1.0
C      1  0.5729920000000  0.5517520000000  0.5018050000000 1.0
C      1  0.4968120000000  0.4180990000000  0.4653610000000 1.0
C      1  0.4796500000000  0.4088260000000  0.4417890000000 1.0
C      1  0.4556480000000  0.5090000000000  0.4213250000000 1.0
C      1  0.5506720000000  0.5139620000000  0.5334140000000 1.0
C      1  0.5310020000000  0.4842800000000  0.4425260000000 1.0
C      1  0.5534190000000  0.3912690000000  0.4780670000000 1.0
C      1  0.5639140000000  0.4746740000000  0.5942910000000 1.0
C      1  0.5192210000000  0.5980210000000  0.5188610000000 1.0
C      1  0.5960840000000  0.5046940000000  0.4881030000000 1.0
C      1  0.5320080000000  0.5347900000000  0.4252570000000 1.0
C      1  0.5451130000000  0.5728770000000  0.4005430000000 1.0
C      1  0.4937000000000  0.4045790000000  0.4928380000000 1.0
C      1  0.5808980000000  0.5179590000000  0.5364450000000 1.0
C      1  0.5009540000000  0.4676490000000  0.4500330000000 1.0
C      1  0.4946660000000  0.5137480000000  0.4535520000000 1.0
C      1  0.5141790000000  0.4725850000000  0.6037430000000 1.0
C      1  0.4536330000000  0.4873270000000  0.4426980000000 1.0
C      1  0.4198230000000  0.5142490000000  0.5864480000000 1.0
C      1  0.4810300000000  0.4466090000000  0.5398920000000 1.0
C      1  0.4082330000000  0.5135310000000  0.4979830000000 1.0
C      1  0.4854660000000  0.6033390000000  0.4829880000000 1.0
C      1  0.5138080000000  0.5599670000000  0.4335460000000 1.0
C      1  0.5362590000000  0.5461700000000  0.3976950000000 1.0
C      1  0.4852530000000  0.4702880000000  0.5566780000000 1.0
C      1  0.4920460000000  0.4639150000000  0.4214420000000 1.0
C      1  0.4685550000000  0.5485850000000  0.5478030000000 1.0
C      1  0.4151100000000  0.4503250000000  0.5134080000000 1.0
C      1  0.5628790000000  0.4540900000000  0.4394220000000 1.0
C      1  0.5512760000000  0.5746310000000  0.5469380000000 1.0
C      1  0.4739750000000  0.4991930000000  0.5985220000000 1.0
C      1  0.4775150000000  0.5825030000000  0.4412260000000 1.0
C      1  0.5137210000000  0.4476390000000  0.5129270000000 1.0
C      1  0.5540570000000  0.4318390000000  0.4598390000000 1.0
C      1  0.4113190000000  0.4722440000000  0.5351560000000 1.0
C      1  0.4221970000000  0.5615650000000  0.5415090000000 1.0
C      1  0.4427980000000  0.4639070000000  0.4891030000000 1.0
C      1  0.5252030000000  0.4854270000000  0.4861300000000 1.0
C      1  0.4693280000000  0.5483170000000  0.4751940000000 1.0
C      1  0.5469890000000  0.5362480000000  0.5039270000000 1.0
C      1  0.5422530000000  0.4975100000000  0.4676010000000 1.0
C      1  0.3974270000000  0.5470270000000  0.5317300000000 1.0
C      1  0.4401730000000  0.5407360000000  0.5543580000000 1.0
C      1  0.5769400000000  0.4787840000000  0.4476670000000 1.0
C      1  0.5773000000000  0.5419200000000  0.5753530000000 1.0
C      1  0.4551410000000  0.4453510000000  0.4646830000000 1.0
C      1  0.5141530000000  0.5547580000000  0.4629240000000 1.0
C      1  0.5023060000000  0.5306390000000  0.5039140000000 1.0
C      1  0.4384640000000  0.5369720000000  0.5848090000000 1.0
C      1  0.5581390000000  0.4434950000000  0.4884400000000 1.0
C      1  0.5680890000000  0.4060760000000  0.4599640000000 1.0
C      1  0.5203970000000  0.5763230000000  0.4817770000000 1.0
C      1  0.4924910000000  0.5391500000000  0.4014910000000 1.0
C      1  0.4360570000000  0.4955270000000  0.5694840000000 1.0
C      1  0.4698990000000  0.4698590000000  0.5821680000000 1.0
END
