TITL C-951346-9544-778 -4.29653241735255e-06 125000 -914.580105809278 0 0 146 (C1) n - 1
REM
REM in /home/bkarasulu/work/CARBON/AIRSS/Generating-Clusters/EDIP-Nigel-Params/with-SteepDescent/Only-C1/SD-CG/HFTN-CG
REM
REM
REM
REM
REM
REM ./C.cell (11c1c37f851c82e70ff6c80c92926a4b)
REM
REM compiler GCC version 9.2.1 20190827 (Red Hat 9.2.1-1)
REM options -cpp -mtune=generic -march=x86-64 -g -O0 -fpre-include=/usr/include/finclude/math-vector-fortran.h
REM seed 1667223944 -1681719840 1589636535 -1414088051 -1812729409 993381496 112008353 571334426 -417222596 2069137590 -1059333982 -791669547 -982841393 -1492530934 -1749379517 -32734728 1647459815 1035186721 -1633169734 -2106464300 -1424356827 252188296 -93499482 1707528794 1707963439 240664535 -1149469105 -583578153 -609013110 -1667039332 773903156 854592666 -1437800595
REM
CELL 1.54180   50.00000   50.00000   50.00000   90.00000   90.00000   90.00000
LATT -1
SFAC C  
C      1  0.5316710000000  0.4636170000000  0.5941200000000 1.0
C      1  0.4397540000000  0.4604630000000  0.4181910000000 1.0
C      1  0.4149660000000  0.4520140000000  0.4888210000000 1.0
C      1  0.5503780000000  0.4237570000000  0.5143030000000 1.0
C      1  0.5907760000000  0.5595100000000  0.5268410000000 1.0
C      1  0.4102400000000  0.5057760000000  0.5616190000000 1.0
C      1  0.4909550000000  0.4085280000000  0.4587860000000 1.0
C      1  0.5278150000000  0.5930680000000  0.4288070000000 1.0
C      1  0.5382190000000  0.5972610000000  0.4546210000000 1.0
C      1  0.4337840000000  0.4450340000000  0.5315320000000 1.0
C      1  0.5545490000000  0.5019880000000  0.5335520000000 1.0
C      1  0.5625880000000  0.5731960000000  0.4901170000000 1.0
C      1  0.5895500000000  0.4920950000000  0.5551330000000 1.0
C      1  0.4327240000000  0.4887930000000  0.4222340000000 1.0
C      1  0.4967520000000  0.5574600000000  0.4321050000000 1.0
C      1  0.5881810000000  0.5167990000000  0.4602340000000 1.0
C      1  0.4364860000000  0.5941540000000  0.5345840000000 1.0
C      1  0.5660150000000  0.4361500000000  0.4575570000000 1.0
C      1  0.4578750000000  0.5284540000000  0.4193730000000 1.0
C      1  0.4598350000000  0.4758420000000  0.5958300000000 1.0
C      1  0.5418860000000  0.4396150000000  0.5795940000000 1.0
C      1  0.4955430000000  0.4215170000000  0.5600510000000 1.0
C      1  0.5141700000000  0.5705290000000  0.5336800000000 1.0
C      1  0.5675910000000  0.5116580000000  0.5085490000000 1.0
C      1  0.4047460000000  0.4798450000000  0.5558080000000 1.0
C      1  0.4160720000000  0.5459220000000  0.4753120000000 1.0
C      1  0.5760700000000  0.4795280000000  0.4357880000000 1.0
C      1  0.5397190000000  0.4769670000000  0.5253680000000 1.0
C      1  0.4788460000000  0.4369960000000  0.4262870000000 1.0
C      1  0.4983260000000  0.5483220000000  0.5151180000000 1.0
C      1  0.4687030000000  0.4557480000000  0.5442570000000 1.0
C      1  0.5220600000000  0.4467290000000  0.4808410000000 1.0
C      1  0.5237900000000  0.4494780000000  0.4086710000000 1.0
C      1  0.4812290000000  0.4584260000000  0.5912930000000 1.0
C      1  0.5173210000000  0.4695730000000  0.5434590000000 1.0
C      1  0.4981940000000  0.5199560000000  0.4028490000000 1.0
C      1  0.5182620000000  0.5204870000000  0.4565730000000 1.0
C      1  0.4823420000000  0.6042650000000  0.5185410000000 1.0
C      1  0.5567260000000  0.5750640000000  0.4615440000000 1.0
C      1  0.4794770000000  0.5155850000000  0.4915410000000 1.0
C      1  0.5673480000000  0.4519680000000  0.4331320000000 1.0
C      1  0.5385550000000  0.4250440000000  0.4663130000000 1.0
C      1  0.4030400000000  0.5413740000000  0.5011440000000 1.0
C      1  0.4468410000000  0.5204120000000  0.4939030000000 1.0
C      1  0.5757900000000  0.4366880000000  0.5210720000000 1.0
C      1  0.5261780000000  0.6066340000000  0.5007890000000 1.0
C      1  0.4712290000000  0.4003990000000  0.5047870000000 1.0
C      1  0.4792900000000  0.5759590000000  0.4475620000000 1.0
C      1  0.5655150000000  0.5675470000000  0.5181730000000 1.0
C      1  0.4239470000000  0.5580370000000  0.5173650000000 1.0
C      1  0.5479640000000  0.5512460000000  0.4454680000000 1.0
C      1  0.4305190000000  0.5236410000000  0.5510050000000 1.0
C      1  0.4550300000000  0.4214070000000  0.4903890000000 1.0
C      1  0.4608430000000  0.4859040000000  0.5473610000000 1.0
C      1  0.4696800000000  0.4968960000000  0.4527160000000 1.0
C      1  0.5174820000000  0.6013130000000  0.4749070000000 1.0
C      1  0.5921650000000  0.4879270000000  0.4577190000000 1.0
C      1  0.4865590000000  0.5240060000000  0.5824360000000 1.0
C      1  0.4645900000000  0.5980650000000  0.5405240000000 1.0
C      1  0.5690320000000  0.4481030000000  0.5701360000000 1.0
C      1  0.5971180000000  0.5141310000000  0.5114010000000 1.0
C      1  0.4440540000000  0.5398100000000  0.4414790000000 1.0
C      1  0.4998820000000  0.5696780000000  0.5604030000000 1.0
C      1  0.5154910000000  0.3954970000000  0.5265820000000 1.0
C      1  0.4740240000000  0.4444450000000  0.4909290000000 1.0
C      1  0.5190910000000  0.4896190000000  0.4578740000000 1.0
C      1  0.4821990000000  0.5058580000000  0.5386560000000 1.0
C      1  0.5236910000000  0.4331080000000  0.5561260000000 1.0
C      1  0.5221660000000  0.4875360000000  0.5030900000000 1.0
C      1  0.4575170000000  0.5206970000000  0.5784100000000 1.0
C      1  0.4609350000000  0.4992990000000  0.4233030000000 1.0
C      1  0.4888500000000  0.4875350000000  0.4942180000000 1.0
C      1  0.5108940000000  0.5984710000000  0.5225530000000 1.0
C      1  0.5196520000000  0.3907740000000  0.4977630000000 1.0
C      1  0.4938670000000  0.4597360000000  0.5282800000000 1.0
C      1  0.4357250000000  0.4444220000000  0.4427640000000 1.0
C      1  0.3873040000000  0.4916350000000  0.5020740000000 1.0
C      1  0.4755010000000  0.5346950000000  0.5308940000000 1.0
C      1  0.5995670000000  0.5291400000000  0.4838400000000 1.0
C      1  0.4679810000000  0.4577300000000  0.4091830000000 1.0
C      1  0.4196130000000  0.5512330000000  0.5461310000000 1.0
C      1  0.5355740000000  0.4985490000000  0.4125850000000 1.0
C      1  0.5337940000000  0.4750590000000  0.4789120000000 1.0
C      1  0.4158060000000  0.4969810000000  0.4454430000000 1.0
C      1  0.4318490000000  0.5105150000000  0.5201290000000 1.0
C      1  0.4024540000000  0.4688470000000  0.5087540000000 1.0
C      1  0.5086780000000  0.4996600000000  0.5527590000000 1.0
C      1  0.4035730000000  0.5131170000000  0.5104990000000 1.0
C      1  0.5318720000000  0.5100960000000  0.5886360000000 1.0
C      1  0.5677540000000  0.4768600000000  0.5674890000000 1.0
C      1  0.5501680000000  0.4865510000000  0.5888540000000 1.0
C      1  0.5524160000000  0.5446360000000  0.5585590000000 1.0
C      1  0.4889990000000  0.5929180000000  0.4703860000000 1.0
C      1  0.5615560000000  0.5343780000000  0.4896160000000 1.0
C      1  0.4074920000000  0.4599850000000  0.5362370000000 1.0
C      1  0.4924580000000  0.3931950000000  0.4844480000000 1.0
C      1  0.4500310000000  0.4925520000000  0.5754330000000 1.0
C      1  0.5151170000000  0.4771540000000  0.4068870000000 1.0
C      1  0.4931410000000  0.4471180000000  0.4667200000000 1.0
C      1  0.4603280000000  0.4279470000000  0.4470080000000 1.0
C      1  0.5426480000000  0.4083960000000  0.4902180000000 1.0
C      1  0.4474660000000  0.4905890000000  0.4729070000000 1.0
C      1  0.5073780000000  0.4343860000000  0.4268990000000 1.0
C      1  0.5209020000000  0.5216290000000  0.4207960000000 1.0
C      1  0.5433460000000  0.5616680000000  0.5363150000000 1.0
C      1  0.5988950000000  0.4686640000000  0.4777910000000 1.0
C      1  0.4825360000000  0.5414900000000  0.4117350000000 1.0
C      1  0.5327420000000  0.5373360000000  0.5787470000000 1.0
C      1  0.4543670000000  0.5473000000000  0.5086400000000 1.0
C      1  0.5669720000000  0.5274540000000  0.4412890000000 1.0
C      1  0.5798110000000  0.4647610000000  0.5109210000000 1.0
C      1  0.4534380000000  0.5638380000000  0.4538990000000 1.0
C      1  0.5052660000000  0.4742870000000  0.5847170000000 1.0
C      1  0.4743660000000  0.4399260000000  0.5692030000000 1.0
C      1  0.5259390000000  0.5646960000000  0.4272550000000 1.0
C      1  0.4309500000000  0.4322520000000  0.5043120000000 1.0
C      1  0.4513450000000  0.5722440000000  0.5769790000000 1.0
C      1  0.5327740000000  0.5319670000000  0.4825580000000 1.0
C      1  0.4598970000000  0.4742310000000  0.4972050000000 1.0
C      1  0.4884840000000  0.5286540000000  0.4642220000000 1.0
C      1  0.5051180000000  0.5467160000000  0.5774310000000 1.0
C      1  0.4909940000000  0.4127370000000  0.5271520000000 1.0
C      1  0.5828000000000  0.5213670000000  0.5541660000000 1.0
C      1  0.5844650000000  0.4443470000000  0.4782640000000 1.0
C      1  0.4701060000000  0.5974010000000  0.4931810000000 1.0
C      1  0.4921990000000  0.4787870000000  0.4635510000000 1.0
C      1  0.4239950000000  0.5241290000000  0.4561050000000 1.0
C      1  0.5368270000000  0.4129500000000  0.5374430000000 1.0
C      1  0.5040000000000  0.5027690000000  0.5940130000000 1.0
C      1  0.5604060000000  0.5021840000000  0.4272170000000 1.0
C      1  0.5977510000000  0.4845800000000  0.5263280000000 1.0
C      1  0.4830330000000  0.5560020000000  0.4862540000000 1.0
C      1  0.4849520000000  0.4835060000000  0.4022640000000 1.0
C      1  0.5509220000000  0.4455320000000  0.4117960000000 1.0
C      1  0.4300900000000  0.5758090000000  0.5576690000000 1.0
C      1  0.4977260000000  0.4384510000000  0.5097670000000 1.0
C      1  0.5175400000000  0.4150620000000  0.4462110000000 1.0
C      1  0.5305530000000  0.5193670000000  0.5385430000000 1.0
C      1  0.4736030000000  0.5820250000000  0.5624780000000 1.0
C      1  0.4420980000000  0.5879070000000  0.4969400000000 1.0
C      1  0.4422610000000  0.4823860000000  0.5226950000000 1.0
C      1  0.4222960000000  0.4631890000000  0.4618910000000 1.0
C      1  0.4348320000000  0.5690720000000  0.4751820000000 1.0
C      1  0.5797370000000  0.4343630000000  0.5484950000000 1.0
C      1  0.5997080000000  0.5341420000000  0.5337920000000 1.0
C      1  0.5184990000000  0.5255400000000  0.5088660000000 1.0
END
