TITL C-950530-3293-698 0.679813567466281 125000 -113.603156529365 0 0 22 (C1) n - 1
REM
REM in /home/bkarasulu/work/CARBON/AIRSS/Generating-Clusters/EDIP-Nigel-Params/with-SteepDescent/Only-C1/SD-CG/HFTN-CG
REM
REM
REM
REM
REM
REM ./C.cell (11c1c37f851c82e70ff6c80c92926a4b)
REM
REM compiler GCC version 9.2.1 20190827 (Red Hat 9.2.1-1)
REM options -cpp -mtune=generic -march=x86-64 -g -O0 -fpre-include=/usr/include/finclude/math-vector-fortran.h
REM seed -2021159699 -2079665809 211153207 2058474032 1417872485 2038625331 -168845298 406974856 -629232273 -106660934 1085796788 -18580049 43551854 -1024715216 666574291 30825571 -2128698866 -1507020258 -130651044 855052754 27404042 108565620 731432285 2098551853 -708103049 -557385762 1395245821 -2443100 -1029821772 -999093590 972274536 112940926 1356923072
REM
CELL 1.54180   50.00000   50.00000   50.00000   90.00000   90.00000   90.00000
LATT -1
SFAC C  
C      1  0.5642530000000  0.4591440000000  0.5243530000000 1.0
C      1  0.4573610000000  0.5177210000000  0.4313290000000 1.0
C      1  0.4367340000000  0.5047490000000  0.4752100000000 1.0
C      1  0.5470240000000  0.4421900000000  0.4835560000000 1.0
C      1  0.5249910000000  0.4988850000000  0.5244030000000 1.0
C      1  0.4894430000000  0.4845090000000  0.4647330000000 1.0
C      1  0.5021510000000  0.5571800000000  0.5655460000000 1.0
C      1  0.5239550000000  0.5537360000000  0.5884630000000 1.0
C      1  0.5460030000000  0.4604220000000  0.5039690000000 1.0
C      1  0.5077720000000  0.4819390000000  0.4836280000000 1.0
C      1  0.5227030000000  0.5171780000000  0.5433630000000 1.0
C      1  0.5493300000000  0.4244290000000  0.4652440000000 1.0
C      1  0.5042880000000  0.5739800000000  0.5882070000000 1.0
C      1  0.4254450000000  0.4759910000000  0.4685860000000 1.0
C      1  0.4683350000000  0.5650180000000  0.4520230000000 1.0
C      1  0.4213520000000  0.4890020000000  0.4929950000000 1.0
C      1  0.5820130000000  0.4565910000000  0.5426330000000 1.0
C      1  0.5222840000000  0.5351890000000  0.5642990000000 1.0
C      1  0.4437180000000  0.4949010000000  0.4459980000000 1.0
C      1  0.4719200000000  0.4851530000000  0.4437750000000 1.0
C      1  0.4629050000000  0.5414400000000  0.4436870000000 1.0
C      1  0.5260220000000  0.4806510000000  0.5040010000000 1.0
END
