TITL C-951341-1326-281 -4.61833680316402e-06 125000 -1215.64868172896 0 0 193 (C1) n - 1
REM
REM in /home/bkarasulu/work/CARBON/AIRSS/Generating-Clusters/EDIP-Nigel-Params/with-SteepDescent/Only-C1/SD-CG/HFTN-CG
REM
REM
REM
REM
REM
REM ./C.cell (11c1c37f851c82e70ff6c80c92926a4b)
REM
REM compiler GCC version 9.2.1 20190827 (Red Hat 9.2.1-1)
REM options -cpp -mtune=generic -march=x86-64 -g -O0 -fpre-include=/usr/include/finclude/math-vector-fortran.h
REM seed -1694899696 -952647386 649587651 2004791289 1440175726 -1000591844 984204570 607698363 1823737677 582405142 -308468541 -171844206 -807817326 192658186 1828744611 785773713 147735428 1637278718 -1580978381 892479443 132896929 -1743555321 513319465 1994010968 1335603394 -1923188615 975878933 -135857836 -1252682495 766244465 2079613980 1276085553 -1723962939
REM
CELL 1.54180   50.00000   50.00000   50.00000   90.00000   90.00000   90.00000
LATT -1
SFAC C  
C      1  0.4369540000000  0.5591650000000  0.5598940000000 1.0
C      1  0.5193870000000  0.4952960000000  0.3764230000000 1.0
C      1  0.4393540000000  0.5802340000000  0.4581890000000 1.0
C      1  0.4071920000000  0.4280220000000  0.4793780000000 1.0
C      1  0.4103890000000  0.4112310000000  0.5020870000000 1.0
C      1  0.5425380000000  0.4175990000000  0.5352940000000 1.0
C      1  0.4982170000000  0.5273320000000  0.4536850000000 1.0
C      1  0.5520630000000  0.5313640000000  0.4478210000000 1.0
C      1  0.4044280000000  0.5030090000000  0.4274670000000 1.0
C      1  0.4298750000000  0.4030750000000  0.5213240000000 1.0
C      1  0.5794000000000  0.4984990000000  0.4712810000000 1.0
C      1  0.5095720000000  0.5279900000000  0.6150440000000 1.0
C      1  0.5569550000000  0.5793760000000  0.4575830000000 1.0
C      1  0.4758200000000  0.5212890000000  0.4042570000000 1.0
C      1  0.5328190000000  0.4476670000000  0.5357910000000 1.0
C      1  0.4523310000000  0.5071030000000  0.4181560000000 1.0
C      1  0.4840600000000  0.4004610000000  0.5253500000000 1.0
C      1  0.5367560000000  0.5214070000000  0.6079780000000 1.0
C      1  0.6113040000000  0.4554090000000  0.4928660000000 1.0
C      1  0.4575930000000  0.4004510000000  0.5087700000000 1.0
C      1  0.5202800000000  0.5570590000000  0.4158010000000 1.0
C      1  0.5423140000000  0.4796890000000  0.4467730000000 1.0
C      1  0.5511030000000  0.5660340000000  0.5892620000000 1.0
C      1  0.6021120000000  0.4541980000000  0.4622580000000 1.0
C      1  0.5887020000000  0.4572020000000  0.5810920000000 1.0
C      1  0.4162980000000  0.5732120000000  0.5139880000000 1.0
C      1  0.5059870000000  0.5651030000000  0.5459420000000 1.0
C      1  0.4691760000000  0.4104760000000  0.4440550000000 1.0
C      1  0.5221830000000  0.5586990000000  0.4805090000000 1.0
C      1  0.4112540000000  0.5005310000000  0.5013260000000 1.0
C      1  0.6195800000000  0.4814300000000  0.5035260000000 1.0
C      1  0.5529770000000  0.4553700000000  0.4634610000000 1.0
C      1  0.5153160000000  0.4319850000000  0.5983810000000 1.0
C      1  0.5387190000000  0.4994000000000  0.5919480000000 1.0
C      1  0.4879870000000  0.4421450000000  0.5888250000000 1.0
C      1  0.4715160000000  0.5237300000000  0.5413410000000 1.0
C      1  0.5903370000000  0.4722010000000  0.4388310000000 1.0
C      1  0.4344350000000  0.4400070000000  0.4696040000000 1.0
C      1  0.6159530000000  0.4998270000000  0.5260370000000 1.0
C      1  0.4763380000000  0.4218050000000  0.5704050000000 1.0
C      1  0.5986630000000  0.5211350000000  0.4670420000000 1.0
C      1  0.4859570000000  0.5187890000000  0.5970420000000 1.0
C      1  0.5367200000000  0.4521890000000  0.6008450000000 1.0
C      1  0.4403160000000  0.5279080000000  0.5994730000000 1.0
C      1  0.5464750000000  0.5148230000000  0.4069480000000 1.0
C      1  0.5686670000000  0.5209530000000  0.4243570000000 1.0
C      1  0.5304650000000  0.5368670000000  0.3966500000000 1.0
C      1  0.5002590000000  0.6096080000000  0.5569420000000 1.0
C      1  0.5480740000000  0.5731130000000  0.4863830000000 1.0
C      1  0.5747860000000  0.4151640000000  0.5356520000000 1.0
C      1  0.4165010000000  0.5022610000000  0.4704540000000 1.0
C      1  0.4332770000000  0.4568290000000  0.5200940000000 1.0
C      1  0.4620220000000  0.5509980000000  0.5314700000000 1.0
C      1  0.4660870000000  0.5407200000000  0.6050360000000 1.0
C      1  0.5145410000000  0.5382820000000  0.5581480000000 1.0
C      1  0.5047660000000  0.5016230000000  0.4695550000000 1.0
C      1  0.5472410000000  0.4123300000000  0.4846910000000 1.0
C      1  0.4639470000000  0.4764470000000  0.4590470000000 1.0
C      1  0.5879390000000  0.4283170000000  0.4594540000000 1.0
C      1  0.4041310000000  0.5357130000000  0.5381280000000 1.0
C      1  0.4713610000000  0.4677780000000  0.5860700000000 1.0
C      1  0.4889580000000  0.4592280000000  0.4467760000000 1.0
C      1  0.5143390000000  0.6041830000000  0.5150060000000 1.0
C      1  0.4701930000000  0.4922100000000  0.6031710000000 1.0
C      1  0.5360250000000  0.4637310000000  0.5086300000000 1.0
C      1  0.4934950000000  0.4402870000000  0.4076230000000 1.0
C      1  0.4529450000000  0.4338870000000  0.5577950000000 1.0
C      1  0.4541260000000  0.5315500000000  0.4822950000000 1.0
C      1  0.4878740000000  0.4702940000000  0.5289990000000 1.0
C      1  0.3806380000000  0.4921100000000  0.5350030000000 1.0
C      1  0.5037770000000  0.4016930000000  0.5037090000000 1.0
C      1  0.3797930000000  0.5342210000000  0.5089680000000 1.0
C      1  0.4132810000000  0.4451050000000  0.5413130000000 1.0
C      1  0.4598070000000  0.4521630000000  0.4226930000000 1.0
C      1  0.4875480000000  0.4647200000000  0.4996270000000 1.0
C      1  0.4550810000000  0.5784970000000  0.4341500000000 1.0
C      1  0.5080350000000  0.5913830000000  0.4481470000000 1.0
C      1  0.5734190000000  0.5495140000000  0.5454230000000 1.0
C      1  0.3883520000000  0.4673870000000  0.4577600000000 1.0
C      1  0.5292010000000  0.4754240000000  0.5826310000000 1.0
C      1  0.5291160000000  0.4451140000000  0.3928420000000 1.0
C      1  0.4131290000000  0.5647260000000  0.5423670000000 1.0
C      1  0.5544570000000  0.5019720000000  0.5317660000000 1.0
C      1  0.6088790000000  0.4335020000000  0.5142180000000 1.0
C      1  0.4706330000000  0.5507900000000  0.3999270000000 1.0
C      1  0.5627450000000  0.5927640000000  0.5195000000000 1.0
C      1  0.5463690000000  0.4645970000000  0.4059010000000 1.0
C      1  0.5313410000000  0.4933590000000  0.5143840000000 1.0
C      1  0.5077640000000  0.5541530000000  0.6257110000000 1.0
C      1  0.4741950000000  0.4393470000000  0.4967320000000 1.0
C      1  0.5132210000000  0.4896980000000  0.4214400000000 1.0
C      1  0.4741840000000  0.5958940000000  0.5499080000000 1.0
C      1  0.3914670000000  0.4975300000000  0.4546180000000 1.0
C      1  0.4961950000000  0.4175100000000  0.5481880000000 1.0
C      1  0.5292330000000  0.4175420000000  0.3948950000000 1.0
C      1  0.5087980000000  0.5217600000000  0.3839180000000 1.0
C      1  0.6097000000000  0.5277690000000  0.5206990000000 1.0
C      1  0.5545210000000  0.5429540000000  0.6051750000000 1.0
C      1  0.4661560000000  0.5081120000000  0.4964650000000 1.0
C      1  0.4743310000000  0.5667600000000  0.5923390000000 1.0
C      1  0.4844670000000  0.5815050000000  0.4324170000000 1.0
C      1  0.4325780000000  0.5320360000000  0.5724140000000 1.0
C      1  0.5623740000000  0.4607000000000  0.4936390000000 1.0
C      1  0.4429980000000  0.5885170000000  0.5078720000000 1.0
C      1  0.4798750000000  0.5714230000000  0.4846300000000 1.0
C      1  0.5266060000000  0.5358250000000  0.5295430000000 1.0
C      1  0.5460360000000  0.4631770000000  0.5591190000000 1.0
C      1  0.5230630000000  0.4054590000000  0.5566260000000 1.0
C      1  0.4118340000000  0.5766580000000  0.4584260000000 1.0
C      1  0.4024770000000  0.4918580000000  0.5533700000000 1.0
C      1  0.5505590000000  0.5876850000000  0.5467870000000 1.0
C      1  0.5668940000000  0.5711740000000  0.5644130000000 1.0
C      1  0.4793130000000  0.4879270000000  0.4814860000000 1.0
C      1  0.4006140000000  0.5518730000000  0.4967620000000 1.0
C      1  0.5448300000000  0.4903850000000  0.3917150000000 1.0
C      1  0.4548840000000  0.5880380000000  0.4814000000000 1.0
C      1  0.5232210000000  0.5444290000000  0.4524370000000 1.0
C      1  0.5397970000000  0.5997000000000  0.5006590000000 1.0
C      1  0.4766900000000  0.5451780000000  0.4691480000000 1.0
C      1  0.4649730000000  0.6023160000000  0.5225710000000 1.0
C      1  0.5045520000000  0.4949480000000  0.5278760000000 1.0
C      1  0.5036780000000  0.4465740000000  0.5405960000000 1.0
C      1  0.4895570000000  0.4177880000000  0.4829620000000 1.0
C      1  0.5058590000000  0.5841720000000  0.4766040000000 1.0
C      1  0.5957090000000  0.4372270000000  0.5423460000000 1.0
C      1  0.5815980000000  0.4864080000000  0.4973980000000 1.0
C      1  0.5526120000000  0.5504750000000  0.5221470000000 1.0
C      1  0.5739440000000  0.4242240000000  0.4868750000000 1.0
C      1  0.5250250000000  0.5797810000000  0.5873610000000 1.0
C      1  0.4948720000000  0.4193000000000  0.4298370000000 1.0
C      1  0.5508240000000  0.5048930000000  0.4645580000000 1.0
C      1  0.5610050000000  0.4449240000000  0.5806890000000 1.0
C      1  0.5710570000000  0.5537300000000  0.4543050000000 1.0
C      1  0.4076030000000  0.5193940000000  0.5632090000000 1.0
C      1  0.4152740000000  0.4709390000000  0.5016130000000 1.0
C      1  0.5098350000000  0.6248700000000  0.5346270000000 1.0
C      1  0.4478870000000  0.5054380000000  0.5403750000000 1.0
C      1  0.4078410000000  0.5505830000000  0.4683080000000 1.0
C      1  0.4484600000000  0.4624210000000  0.5653460000000 1.0
C      1  0.4610500000000  0.5761420000000  0.5676960000000 1.0
C      1  0.4999620000000  0.4749640000000  0.3768680000000 1.0
C      1  0.4287150000000  0.5286940000000  0.4616550000000 1.0
C      1  0.4482400000000  0.4308190000000  0.4417650000000 1.0
C      1  0.5256160000000  0.4096660000000  0.5841420000000 1.0
C      1  0.4450320000000  0.4782570000000  0.4155730000000 1.0
C      1  0.4281660000000  0.5224290000000  0.4289700000000 1.0
C      1  0.5137270000000  0.4581490000000  0.4898280000000 1.0
C      1  0.4461940000000  0.5617480000000  0.4122430000000 1.0
C      1  0.5634180000000  0.5337050000000  0.4983150000000 1.0
C      1  0.5930390000000  0.5041300000000  0.4354120000000 1.0
C      1  0.5052770000000  0.5410290000000  0.5080720000000 1.0
C      1  0.4913480000000  0.5219090000000  0.5659080000000 1.0
C      1  0.4165580000000  0.4768960000000  0.4211320000000 1.0
C      1  0.5316840000000  0.4088840000000  0.5086830000000 1.0
C      1  0.4873630000000  0.6115100000000  0.5059810000000 1.0
C      1  0.4155640000000  0.4663820000000  0.5629310000000 1.0
C      1  0.4461460000000  0.4363770000000  0.4989880000000 1.0
C      1  0.4273140000000  0.5200600000000  0.5218720000000 1.0
C      1  0.5883600000000  0.4829680000000  0.5652760000000 1.0
C      1  0.5298080000000  0.5072110000000  0.4871020000000 1.0
C      1  0.5009410000000  0.5183210000000  0.4225470000000 1.0
C      1  0.6119750000000  0.4902560000000  0.5520170000000 1.0
C      1  0.4292750000000  0.4206100000000  0.5460000000000 1.0
C      1  0.5120540000000  0.4800380000000  0.4490220000000 1.0
C      1  0.5751930000000  0.5112500000000  0.5140720000000 1.0
C      1  0.5705440000000  0.4278130000000  0.4335450000000 1.0
C      1  0.4687050000000  0.4001880000000  0.4713810000000 1.0
C      1  0.5650670000000  0.4815510000000  0.5484230000000 1.0
C      1  0.4554950000000  0.4756690000000  0.5377640000000 1.0
C      1  0.5213320000000  0.5880070000000  0.5590750000000 1.0
C      1  0.4330310000000  0.4727830000000  0.4618660000000 1.0
C      1  0.5891410000000  0.4110300000000  0.5079820000000 1.0
C      1  0.4934950000000  0.5678470000000  0.4088980000000 1.0
C      1  0.3832660000000  0.5055480000000  0.5100840000000 1.0
C      1  0.4871650000000  0.5162250000000  0.5169050000000 1.0
C      1  0.5366010000000  0.4287400000000  0.4626010000000 1.0
C      1  0.4434300000000  0.5008890000000  0.6069630000000 1.0
C      1  0.3957170000000  0.4553750000000  0.4848990000000 1.0
C      1  0.5079020000000  0.4383020000000  0.4675920000000 1.0
C      1  0.4952540000000  0.4709540000000  0.4045580000000 1.0
C      1  0.5699890000000  0.4562820000000  0.4227870000000 1.0
C      1  0.5845310000000  0.5708540000000  0.5080790000000 1.0
C      1  0.5435310000000  0.4125840000000  0.4388480000000 1.0
C      1  0.5350700000000  0.5837770000000  0.4379230000000 1.0
C      1  0.5979730000000  0.5531370000000  0.5295960000000 1.0
C      1  0.4073100000000  0.4566000000000  0.4385130000000 1.0
C      1  0.4230370000000  0.5460610000000  0.4133270000000 1.0
C      1  0.4421560000000  0.5444020000000  0.5087090000000 1.0
C      1  0.5020470000000  0.5700730000000  0.6030270000000 1.0
C      1  0.5842110000000  0.5451900000000  0.4788670000000 1.0
C      1  0.5211730000000  0.4081050000000  0.4200170000000 1.0
C      1  0.6076850000000  0.4402160000000  0.5680060000000 1.0
C      1  0.4867600000000  0.5640650000000  0.5190410000000 1.0
END
