TITL C-951340-9809-412 -5.46869413257706e-06 125000 -995.692051278151 0 0 160 (C1) n - 1
REM
REM in /home/bkarasulu/work/CARBON/AIRSS/Generating-Clusters/EDIP-Nigel-Params/with-SteepDescent/Only-C1/SD-CG/HFTN-CG
REM
REM
REM
REM
REM
REM ./C.cell (11c1c37f851c82e70ff6c80c92926a4b)
REM
REM compiler GCC version 9.2.1 20190827 (Red Hat 9.2.1-1)
REM options -cpp -mtune=generic -march=x86-64 -g -O0 -fpre-include=/usr/include/finclude/math-vector-fortran.h
REM seed -112490179 1726384010 -1517337536 801011187 333193821 1798997969 -533858494 -1326299139 1227707451 1832935298 990761915 1985636257 1555357666 1843905955 784209301 1583319015 1632786824 -1717193147 1954462468 1137598234 -579221396 1633364242 2052885880 894809765 -558400631 1103739028 -1721049478 992300984 2123358771 -1650697133 522035943 1072243700 -675332008
REM
CELL 1.54180   50.00000   50.00000   50.00000   90.00000   90.00000   90.00000
LATT -1
SFAC C  
C      1  0.5461770000000  0.4133590000000  0.4844170000000 1.0
C      1  0.5710530000000  0.4829060000000  0.4898200000000 1.0
C      1  0.5134250000000  0.5199420000000  0.4927980000000 1.0
C      1  0.4437070000000  0.4674410000000  0.4186950000000 1.0
C      1  0.5118190000000  0.4057260000000  0.4418490000000 1.0
C      1  0.5028620000000  0.5689920000000  0.5691390000000 1.0
C      1  0.4995840000000  0.4976930000000  0.6001810000000 1.0
C      1  0.5396210000000  0.4378280000000  0.4210070000000 1.0
C      1  0.4704810000000  0.5076020000000  0.4705100000000 1.0
C      1  0.4596430000000  0.5496710000000  0.4403900000000 1.0
C      1  0.5123190000000  0.4289210000000  0.4244610000000 1.0
C      1  0.4241830000000  0.5683380000000  0.5372350000000 1.0
C      1  0.4945440000000  0.4105120000000  0.4944150000000 1.0
C      1  0.4041850000000  0.4636860000000  0.5328190000000 1.0
C      1  0.5688820000000  0.4853550000000  0.4195230000000 1.0
C      1  0.4518830000000  0.5687040000000  0.5511280000000 1.0
C      1  0.4882650000000  0.5538920000000  0.4665890000000 1.0
C      1  0.5151660000000  0.4649770000000  0.5429070000000 1.0
C      1  0.4126930000000  0.5389840000000  0.4496230000000 1.0
C      1  0.5287110000000  0.5678770000000  0.4876390000000 1.0
C      1  0.5317230000000  0.5954990000000  0.4750330000000 1.0
C      1  0.4559690000000  0.4749490000000  0.5922990000000 1.0
C      1  0.4828060000000  0.5015900000000  0.4436910000000 1.0
C      1  0.4651660000000  0.5114370000000  0.4189550000000 1.0
C      1  0.4657910000000  0.5789120000000  0.5265980000000 1.0
C      1  0.5468080000000  0.4691600000000  0.5886870000000 1.0
C      1  0.4377570000000  0.4385780000000  0.4176340000000 1.0
C      1  0.4695790000000  0.4988920000000  0.5992200000000 1.0
C      1  0.5415070000000  0.4921230000000  0.4132240000000 1.0
C      1  0.5325070000000  0.4083640000000  0.5330360000000 1.0
C      1  0.4630030000000  0.5808320000000  0.4426610000000 1.0
C      1  0.4855010000000  0.5303560000000  0.5258380000000 1.0
C      1  0.4455540000000  0.4365800000000  0.5738040000000 1.0
C      1  0.4537720000000  0.5223750000000  0.5933430000000 1.0
C      1  0.4819900000000  0.4642140000000  0.4889850000000 1.0
C      1  0.5136070000000  0.5291670000000  0.3911570000000 1.0
C      1  0.5525410000000  0.5942310000000  0.5164920000000 1.0
C      1  0.3927500000000  0.5105770000000  0.5140950000000 1.0
C      1  0.6016660000000  0.5186070000000  0.4797040000000 1.0
C      1  0.6026470000000  0.5014530000000  0.4546320000000 1.0
C      1  0.4370560000000  0.5708800000000  0.4852760000000 1.0
C      1  0.5796720000000  0.4569800000000  0.5411600000000 1.0
C      1  0.4122170000000  0.4358680000000  0.5269960000000 1.0
C      1  0.4773750000000  0.4564080000000  0.4610510000000 1.0
C      1  0.5188900000000  0.4893550000000  0.5617820000000 1.0
C      1  0.4895290000000  0.3857390000000  0.4797470000000 1.0
C      1  0.4239840000000  0.5072600000000  0.5513810000000 1.0
C      1  0.5264610000000  0.4816720000000  0.4535280000000 1.0
C      1  0.5461470000000  0.5588220000000  0.5556070000000 1.0
C      1  0.4054930000000  0.4706860000000  0.4812950000000 1.0
C      1  0.4377360000000  0.5232510000000  0.4448440000000 1.0
C      1  0.4043330000000  0.5493750000000  0.5424730000000 1.0
C      1  0.5295850000000  0.5575860000000  0.5809400000000 1.0
C      1  0.4259730000000  0.4825260000000  0.4371740000000 1.0
C      1  0.5477830000000  0.4955120000000  0.5174830000000 1.0
C      1  0.4588020000000  0.4485590000000  0.5015340000000 1.0
C      1  0.5839430000000  0.4406860000000  0.4893040000000 1.0
C      1  0.6103560000000  0.4742410000000  0.4583680000000 1.0
C      1  0.5102940000000  0.5855860000000  0.5460380000000 1.0
C      1  0.4389840000000  0.4143920000000  0.4578790000000 1.0
C      1  0.5119000000000  0.5114850000000  0.4441570000000 1.0
C      1  0.4717320000000  0.5400020000000  0.4150110000000 1.0
C      1  0.5064170000000  0.5012810000000  0.3878820000000 1.0
C      1  0.4222280000000  0.4295390000000  0.4406300000000 1.0
C      1  0.4477360000000  0.4519390000000  0.4584920000000 1.0
C      1  0.5757190000000  0.5046920000000  0.4416380000000 1.0
C      1  0.5049950000000  0.4060720000000  0.5226810000000 1.0
C      1  0.5565500000000  0.4430810000000  0.4442420000000 1.0
C      1  0.4327950000000  0.4198680000000  0.5415790000000 1.0
C      1  0.4888720000000  0.4490390000000  0.5438200000000 1.0
C      1  0.4377370000000  0.5219420000000  0.4989340000000 1.0
C      1  0.5096180000000  0.5319690000000  0.4657940000000 1.0
C      1  0.4732230000000  0.5619280000000  0.5717990000000 1.0
C      1  0.4973500000000  0.6048040000000  0.5040430000000 1.0
C      1  0.4071370000000  0.5267300000000  0.4941620000000 1.0
C      1  0.4358850000000  0.4709810000000  0.4793230000000 1.0
C      1  0.4860570000000  0.4179290000000  0.5422850000000 1.0
C      1  0.5061910000000  0.6015800000000  0.4603160000000 1.0
C      1  0.5542750000000  0.5253290000000  0.4751520000000 1.0
C      1  0.4997570000000  0.5343000000000  0.5511410000000 1.0
C      1  0.4650610000000  0.4198000000000  0.5009130000000 1.0
C      1  0.4634410000000  0.4226430000000  0.4179270000000 1.0
C      1  0.4588140000000  0.4115450000000  0.5287290000000 1.0
C      1  0.4889350000000  0.5973920000000  0.5302640000000 1.0
C      1  0.5729470000000  0.4573550000000  0.4253300000000 1.0
C      1  0.4973180000000  0.5677730000000  0.4925530000000 1.0
C      1  0.5119390000000  0.5668180000000  0.4237990000000 1.0
C      1  0.5714160000000  0.4411120000000  0.5166790000000 1.0
C      1  0.5912350000000  0.5479870000000  0.5331490000000 1.0
C      1  0.5315430000000  0.4197280000000  0.5619830000000 1.0
C      1  0.5406580000000  0.5219190000000  0.5016600000000 1.0
C      1  0.5052720000000  0.4209690000000  0.5738970000000 1.0
C      1  0.4874140000000  0.3955710000000  0.4531910000000 1.0
C      1  0.4637740000000  0.4633830000000  0.5506310000000 1.0
C      1  0.4694740000000  0.4484190000000  0.5914180000000 1.0
C      1  0.4943430000000  0.5775720000000  0.4457220000000 1.0
C      1  0.4037170000000  0.4892240000000  0.4561050000000 1.0
C      1  0.4569080000000  0.5914670000000  0.4700860000000 1.0
C      1  0.5583070000000  0.4598250000000  0.5621230000000 1.0
C      1  0.5241530000000  0.4549770000000  0.4722460000000 1.0
C      1  0.5776510000000  0.5582060000000  0.4549620000000 1.0
C      1  0.4454080000000  0.4540340000000  0.5281890000000 1.0
C      1  0.4315630000000  0.5193250000000  0.5765280000000 1.0
C      1  0.5445600000000  0.5508930000000  0.5119230000000 1.0
C      1  0.4416960000000  0.5051880000000  0.4723260000000 1.0
C      1  0.5379630000000  0.5592980000000  0.4352320000000 1.0
C      1  0.4996090000000  0.5443470000000  0.4107490000000 1.0
C      1  0.4684080000000  0.5472030000000  0.5963170000000 1.0
C      1  0.5319160000000  0.5306030000000  0.5917660000000 1.0
C      1  0.5114480000000  0.5229820000000  0.6102370000000 1.0
C      1  0.5298330000000  0.5350740000000  0.5427700000000 1.0
C      1  0.4982480000000  0.4460310000000  0.5870390000000 1.0
C      1  0.4915010000000  0.5426640000000  0.6117340000000 1.0
C      1  0.4906860000000  0.4727300000000  0.4407660000000 1.0
C      1  0.4173890000000  0.5614200000000  0.4660940000000 1.0
C      1  0.4760900000000  0.5548920000000  0.5104550000000 1.0
C      1  0.5885590000000  0.5038510000000  0.5025090000000 1.0
C      1  0.5343800000000  0.5199460000000  0.4222420000000 1.0
C      1  0.4759760000000  0.4670190000000  0.4137970000000 1.0
C      1  0.4303830000000  0.4638300000000  0.5776670000000 1.0
C      1  0.5565810000000  0.4964100000000  0.4642840000000 1.0
C      1  0.5513870000000  0.4200360000000  0.5127910000000 1.0
C      1  0.3987820000000  0.5187320000000  0.4656640000000 1.0
C      1  0.5942780000000  0.4660930000000  0.4802520000000 1.0
C      1  0.5579260000000  0.5167350000000  0.5918950000000 1.0
C      1  0.6094230000000  0.5260180000000  0.5348800000000 1.0
C      1  0.3999940000000  0.5215700000000  0.5410560000000 1.0
C      1  0.5392850000000  0.5848460000000  0.5397910000000 1.0
C      1  0.3985690000000  0.4812650000000  0.5092550000000 1.0
C      1  0.5687470000000  0.5180240000000  0.5647450000000 1.0
C      1  0.4925900000000  0.5061690000000  0.5624090000000 1.0
C      1  0.4702600000000  0.4932030000000  0.5441340000000 1.0
C      1  0.5665420000000  0.4276840000000  0.4684390000000 1.0
C      1  0.5988630000000  0.4772720000000  0.5401940000000 1.0
C      1  0.4780640000000  0.4926560000000  0.4940980000000 1.0
C      1  0.5682980000000  0.5355810000000  0.4337590000000 1.0
C      1  0.5430760000000  0.5078970000000  0.5481590000000 1.0
C      1  0.5098220000000  0.4587160000000  0.4971940000000 1.0
C      1  0.4245720000000  0.5790640000000  0.5107260000000 1.0
C      1  0.5669940000000  0.5830400000000  0.4689870000000 1.0
C      1  0.5193360000000  0.4225540000000  0.4742760000000 1.0
C      1  0.4876470000000  0.4378520000000  0.4088740000000 1.0
C      1  0.4534310000000  0.5471660000000  0.4928340000000 1.0
C      1  0.5383890000000  0.4449140000000  0.5461890000000 1.0
C      1  0.6056230000000  0.4998780000000  0.5253140000000 1.0
C      1  0.4470000000000  0.5098490000000  0.5312270000000 1.0
C      1  0.5593560000000  0.4904580000000  0.6014330000000 1.0
C      1  0.5344510000000  0.5479690000000  0.4634400000000 1.0
C      1  0.5750110000000  0.5555180000000  0.5068260000000 1.0
C      1  0.4795810000000  0.4931570000000  0.3977660000000 1.0
C      1  0.4643580000000  0.4110870000000  0.4448480000000 1.0
C      1  0.5717990000000  0.5839710000000  0.4985080000000 1.0
C      1  0.4188700000000  0.4778230000000  0.5543700000000 1.0
C      1  0.5741440000000  0.5466470000000  0.5571990000000 1.0
C      1  0.5163800000000  0.4692450000000  0.5952650000000 1.0
C      1  0.4830920000000  0.6067930000000  0.4789440000000 1.0
C      1  0.5279640000000  0.4828480000000  0.3902920000000 1.0
C      1  0.5804330000000  0.5405200000000  0.4790700000000 1.0
C      1  0.4973790000000  0.5055230000000  0.5111120000000 1.0
C      1  0.5191340000000  0.4800200000000  0.5166190000000 1.0
END
