TITL C-951345-2650-26 -3.92993932757926e-06 125000 -1119.71127639215 0 0 178 (C1) n - 1
REM
REM in /home/bkarasulu/work/CARBON/AIRSS/Generating-Clusters/EDIP-Nigel-Params/with-SteepDescent/Only-C1/SD-CG/HFTN-CG
REM
REM
REM
REM
REM
REM ./C.cell (11c1c37f851c82e70ff6c80c92926a4b)
REM
REM compiler GCC version 9.2.1 20190827 (Red Hat 9.2.1-1)
REM options -cpp -mtune=generic -march=x86-64 -g -O0 -fpre-include=/usr/include/finclude/math-vector-fortran.h
REM seed 1763166006 -20722885 -1969656981 -1532800119 1556543501 -2095556149 1883409662 2121046228 -1287468305 -1547658758 1173799027 311767744 -521154293 1950883960 1443499879 9178791 -502802121 -2055803713 -164228943 -1503020241 139411394 992454428 -1704090076 1981550030 -1045639580 -97145716 1606117627 -54980262 660081686 1126646618 775608943 -1284744605 -1521077248
REM
CELL 1.54180   50.00000   50.00000   50.00000   90.00000   90.00000   90.00000
LATT -1
SFAC C  
C      1  0.4306660000000  0.5891460000000  0.4820650000000 1.0
C      1  0.5102520000000  0.4968720000000  0.5826300000000 1.0
C      1  0.4495420000000  0.5627240000000  0.5514980000000 1.0
C      1  0.4245490000000  0.5508350000000  0.5638470000000 1.0
C      1  0.4852340000000  0.5368630000000  0.5463500000000 1.0
C      1  0.4489500000000  0.4947760000000  0.5099700000000 1.0
C      1  0.4214420000000  0.4095740000000  0.5177860000000 1.0
C      1  0.4575590000000  0.5649030000000  0.4409920000000 1.0
C      1  0.4442880000000  0.5848190000000  0.5321260000000 1.0
C      1  0.3916840000000  0.5092060000000  0.4814040000000 1.0
C      1  0.5705790000000  0.4736700000000  0.4007090000000 1.0
C      1  0.4626610000000  0.5327770000000  0.4013030000000 1.0
C      1  0.5966010000000  0.5245670000000  0.5450810000000 1.0
C      1  0.4961230000000  0.5113830000000  0.5354120000000 1.0
C      1  0.5149540000000  0.4263590000000  0.5388530000000 1.0
C      1  0.5940600000000  0.4319420000000  0.4873940000000 1.0
C      1  0.4691000000000  0.6017590000000  0.5311620000000 1.0
C      1  0.4850340000000  0.6035050000000  0.5067030000000 1.0
C      1  0.4323500000000  0.4407570000000  0.5655780000000 1.0
C      1  0.4912110000000  0.6022220000000  0.4589210000000 1.0
C      1  0.4846860000000  0.4136560000000  0.4116580000000 1.0
C      1  0.4488710000000  0.5093510000000  0.4623720000000 1.0
C      1  0.4410230000000  0.4587700000000  0.5876220000000 1.0
C      1  0.4513350000000  0.5266310000000  0.6074420000000 1.0
C      1  0.4073420000000  0.4350190000000  0.5207260000000 1.0
C      1  0.4095340000000  0.5373370000000  0.5404560000000 1.0
C      1  0.5316220000000  0.4613340000000  0.4434810000000 1.0
C      1  0.4236060000000  0.5329060000000  0.4309730000000 1.0
C      1  0.4199300000000  0.5079900000000  0.5453620000000 1.0
C      1  0.5353320000000  0.4173360000000  0.4399330000000 1.0
C      1  0.5564570000000  0.5136560000000  0.4604910000000 1.0
C      1  0.5167090000000  0.4604480000000  0.4018970000000 1.0
C      1  0.5137460000000  0.4727110000000  0.5216400000000 1.0
C      1  0.5661170000000  0.5725250000000  0.5035510000000 1.0
C      1  0.4133690000000  0.5492830000000  0.5120890000000 1.0
C      1  0.4331150000000  0.5725430000000  0.5070930000000 1.0
C      1  0.5001460000000  0.5542040000000  0.4703830000000 1.0
C      1  0.5144490000000  0.4003210000000  0.4816210000000 1.0
C      1  0.5382270000000  0.5852200000000  0.4446400000000 1.0
C      1  0.5457450000000  0.5290420000000  0.5080460000000 1.0
C      1  0.5292090000000  0.5940100000000  0.4914560000000 1.0
C      1  0.4478570000000  0.4071320000000  0.5324600000000 1.0
C      1  0.5556640000000  0.5442460000000  0.4647050000000 1.0
C      1  0.5778630000000  0.5327850000000  0.5933980000000 1.0
C      1  0.4311390000000  0.5294110000000  0.5849730000000 1.0
C      1  0.5612330000000  0.5658440000000  0.5344790000000 1.0
C      1  0.4032540000000  0.5366370000000  0.4867190000000 1.0
C      1  0.5432550000000  0.4449660000000  0.5029330000000 1.0
C      1  0.4773310000000  0.3977470000000  0.5241180000000 1.0
C      1  0.4473110000000  0.5357760000000  0.4476180000000 1.0
C      1  0.5898540000000  0.4783800000000  0.4874240000000 1.0
C      1  0.4921910000000  0.3873590000000  0.4987980000000 1.0
C      1  0.5151290000000  0.5366460000000  0.4487360000000 1.0
C      1  0.5519080000000  0.4816060000000  0.4808540000000 1.0
C      1  0.5268620000000  0.4864160000000  0.4982390000000 1.0
C      1  0.5753440000000  0.4785680000000  0.5701940000000 1.0
C      1  0.4731080000000  0.4834960000000  0.6063170000000 1.0
C      1  0.5197520000000  0.5654060000000  0.4936830000000 1.0
C      1  0.4732700000000  0.5233750000000  0.5753010000000 1.0
C      1  0.4880380000000  0.5363090000000  0.5988650000000 1.0
C      1  0.5421330000000  0.4134930000000  0.5383880000000 1.0
C      1  0.5133530000000  0.4441030000000  0.5128370000000 1.0
C      1  0.4118280000000  0.4504980000000  0.5455110000000 1.0
C      1  0.6141160000000  0.5366150000000  0.4957940000000 1.0
C      1  0.5030390000000  0.4648480000000  0.4457610000000 1.0
C      1  0.4688430000000  0.4546810000000  0.5981940000000 1.0
C      1  0.4678850000000  0.3830660000000  0.4835280000000 1.0
C      1  0.4439970000000  0.4902150000000  0.4147550000000 1.0
C      1  0.4169050000000  0.4501260000000  0.4668870000000 1.0
C      1  0.5295980000000  0.5490790000000  0.5807030000000 1.0
C      1  0.5151250000000  0.5874930000000  0.5386740000000 1.0
C      1  0.4919850000000  0.4399930000000  0.4613340000000 1.0
C      1  0.5956120000000  0.5372630000000  0.4466330000000 1.0
C      1  0.4913540000000  0.3976050000000  0.4338770000000 1.0
C      1  0.5936300000000  0.4873920000000  0.4409810000000 1.0
C      1  0.5530650000000  0.4099550000000  0.4610790000000 1.0
C      1  0.6142000000000  0.5644950000000  0.4953830000000 1.0
C      1  0.4831630000000  0.5123050000000  0.4057120000000 1.0
C      1  0.4756250000000  0.6147340000000  0.4816730000000 1.0
C      1  0.4060000000000  0.4810080000000  0.5376240000000 1.0
C      1  0.4816100000000  0.5737650000000  0.4577990000000 1.0
C      1  0.4672430000000  0.3883940000000  0.4467200000000 1.0
C      1  0.5536930000000  0.4958340000000  0.3982490000000 1.0
C      1  0.5920600000000  0.5002250000000  0.5606260000000 1.0
C      1  0.4992620000000  0.5581900000000  0.5826500000000 1.0
C      1  0.4854120000000  0.4467860000000  0.5722420000000 1.0
C      1  0.3813970000000  0.4861600000000  0.5239200000000 1.0
C      1  0.4418870000000  0.5156380000000  0.4911310000000 1.0
C      1  0.4940480000000  0.4065990000000  0.5460050000000 1.0
C      1  0.4674640000000  0.5607950000000  0.4112150000000 1.0
C      1  0.4694780000000  0.4633750000000  0.5472400000000 1.0
C      1  0.4346820000000  0.4857560000000  0.4434270000000 1.0
C      1  0.4232560000000  0.4005530000000  0.4916330000000 1.0
C      1  0.6114920000000  0.5237790000000  0.5207990000000 1.0
C      1  0.4046550000000  0.4843370000000  0.4417250000000 1.0
C      1  0.4513070000000  0.4117910000000  0.4544690000000 1.0
C      1  0.5003230000000  0.4916580000000  0.4572110000000 1.0
C      1  0.5131930000000  0.6049090000000  0.5134020000000 1.0
C      1  0.5831800000000  0.4255140000000  0.5124590000000 1.0
C      1  0.5842700000000  0.5520950000000  0.5505420000000 1.0
C      1  0.4582620000000  0.5377750000000  0.5323970000000 1.0
C      1  0.5590570000000  0.4676160000000  0.5219340000000 1.0
C      1  0.4754620000000  0.5007130000000  0.4630830000000 1.0
C      1  0.5464640000000  0.4569240000000  0.4669230000000 1.0
C      1  0.4530130000000  0.4998540000000  0.6178590000000 1.0
C      1  0.4558370000000  0.5415540000000  0.5011980000000 1.0
C      1  0.4489990000000  0.4171830000000  0.5599200000000 1.0
C      1  0.5194670000000  0.4496580000000  0.5736970000000 1.0
C      1  0.5700990000000  0.5139700000000  0.5111000000000 1.0
C      1  0.4725990000000  0.4860390000000  0.4079760000000 1.0
C      1  0.4475810000000  0.5093000000000  0.5349490000000 1.0
C      1  0.5573180000000  0.5209090000000  0.4135810000000 1.0
C      1  0.5212550000000  0.5625060000000  0.4053400000000 1.0
C      1  0.5929300000000  0.4418080000000  0.4619980000000 1.0
C      1  0.4639410000000  0.4326850000000  0.5006400000000 1.0
C      1  0.5461530000000  0.4340620000000  0.5629170000000 1.0
C      1  0.5346910000000  0.5319940000000  0.6057130000000 1.0
C      1  0.5356990000000  0.4804960000000  0.5412220000000 1.0
C      1  0.4840440000000  0.5389690000000  0.4913220000000 1.0
C      1  0.5495460000000  0.5718670000000  0.5779030000000 1.0
C      1  0.5763840000000  0.5568230000000  0.5783350000000 1.0
C      1  0.4084220000000  0.5510640000000  0.4615000000000 1.0
C      1  0.4092720000000  0.4597820000000  0.4949670000000 1.0
C      1  0.4480790000000  0.4819330000000  0.5696480000000 1.0
C      1  0.4337230000000  0.4693250000000  0.5126900000000 1.0
C      1  0.4363320000000  0.5191990000000  0.4080600000000 1.0
C      1  0.5354930000000  0.5301850000000  0.5577550000000 1.0
C      1  0.5100110000000  0.5170150000000  0.6054920000000 1.0
C      1  0.5722390000000  0.4505200000000  0.5589810000000 1.0
C      1  0.5829670000000  0.4598900000000  0.4422390000000 1.0
C      1  0.5109220000000  0.5586690000000  0.5272990000000 1.0
C      1  0.4861980000000  0.4824320000000  0.5307270000000 1.0
C      1  0.3969200000000  0.4582760000000  0.4485390000000 1.0
C      1  0.4900370000000  0.4624290000000  0.4169200000000 1.0
C      1  0.4504950000000  0.4458030000000  0.5263220000000 1.0
C      1  0.5473550000000  0.5532700000000  0.4905850000000 1.0
C      1  0.5396260000000  0.4433110000000  0.4219360000000 1.0
C      1  0.5449560000000  0.5862780000000  0.5513090000000 1.0
C      1  0.4269370000000  0.5735230000000  0.4577990000000 1.0
C      1  0.5871910000000  0.4442460000000  0.5345160000000 1.0
C      1  0.5668790000000  0.5817040000000  0.4404360000000 1.0
C      1  0.3901130000000  0.5044100000000  0.4539830000000 1.0
C      1  0.5222390000000  0.6023410000000  0.4634120000000 1.0
C      1  0.5208150000000  0.5053150000000  0.5544220000000 1.0
C      1  0.5543680000000  0.4182390000000  0.5106110000000 1.0
C      1  0.6059530000000  0.5229570000000  0.4710000000000 1.0
C      1  0.5893040000000  0.5719090000000  0.4848190000000 1.0
C      1  0.4503420000000  0.4079030000000  0.4839840000000 1.0
C      1  0.4636140000000  0.4376850000000  0.4473090000000 1.0
C      1  0.5081950000000  0.4131130000000  0.4536860000000 1.0
C      1  0.5378530000000  0.5447650000000  0.5334330000000 1.0
C      1  0.3889390000000  0.4835060000000  0.4971790000000 1.0
C      1  0.5271310000000  0.4734770000000  0.5899010000000 1.0
C      1  0.5273610000000  0.5351850000000  0.4180500000000 1.0
C      1  0.4937510000000  0.5683980000000  0.4046130000000 1.0
C      1  0.4885960000000  0.5946460000000  0.5528730000000 1.0
C      1  0.5439160000000  0.4015200000000  0.4867670000000 1.0
C      1  0.5766410000000  0.5140090000000  0.4368570000000 1.0
C      1  0.4775910000000  0.4183820000000  0.5672810000000 1.0
C      1  0.5233970000000  0.5139770000000  0.4942060000000 1.0
C      1  0.5792430000000  0.5605280000000  0.4576950000000 1.0
C      1  0.4794170000000  0.4932720000000  0.5784460000000 1.0
C      1  0.5580380000000  0.5144930000000  0.6013410000000 1.0
C      1  0.4480310000000  0.6107560000000  0.4789650000000 1.0
C      1  0.5803580000000  0.4878220000000  0.5126650000000 1.0
C      1  0.5689110000000  0.4515390000000  0.4177330000000 1.0
C      1  0.4726960000000  0.4379520000000  0.4184060000000 1.0
C      1  0.4997240000000  0.5210180000000  0.5071090000000 1.0
C      1  0.4431490000000  0.4591930000000  0.4558710000000 1.0
C      1  0.5256860000000  0.4891810000000  0.3976720000000 1.0
C      1  0.4257060000000  0.5035250000000  0.5730860000000 1.0
C      1  0.5542060000000  0.4874000000000  0.5883160000000 1.0
C      1  0.6044800000000  0.4937310000000  0.4677840000000 1.0
C      1  0.5227090000000  0.5117000000000  0.4618140000000 1.0
C      1  0.5112650000000  0.5143280000000  0.4027180000000 1.0
C      1  0.4774380000000  0.5734740000000  0.5690740000000 1.0
C      1  0.5368770000000  0.5841480000000  0.4162180000000 1.0
C      1  0.4899480000000  0.4424630000000  0.4916460000000 1.0
END
