TITL C-950532-2784-531 -1.75926914479211e-06 125000 -427.122503378569 0 0 70 (C1) n - 1
REM
REM in /home/bkarasulu/work/CARBON/AIRSS/Generating-Clusters/EDIP-Nigel-Params/with-SteepDescent/Only-C1/SD-CG/HFTN-CG
REM
REM
REM
REM
REM
REM ./C.cell (11c1c37f851c82e70ff6c80c92926a4b)
REM
REM compiler GCC version 9.2.1 20190827 (Red Hat 9.2.1-1)
REM options -cpp -mtune=generic -march=x86-64 -g -O0 -fpre-include=/usr/include/finclude/math-vector-fortran.h
REM seed 1227251497 1520180103 1959482017 -339606507 -871642588 381378726 -802008866 422266774 318386035 1305401770 755987029 -1374264777 -2058343650 7003899 1294192681 415374777 -1338237678 -2012366385 -495200446 913859275 -467309053 -1046612300 -2076756810 264005603 -1544398597 1642480929 1025435584 19736521 1341149668 1182382157 814622357 1293302664 1906840053
REM
CELL 1.54180   50.00000   50.00000   50.00000   90.00000   90.00000   90.00000
LATT -1
SFAC C  
C      1  0.4754650000000  0.5716790000000  0.4830230000000 1.0
C      1  0.5181480000000  0.4796030000000  0.5277330000000 1.0
C      1  0.4383780000000  0.4571240000000  0.5309670000000 1.0
C      1  0.5000090000000  0.5087270000000  0.5640950000000 1.0
C      1  0.4864130000000  0.5238570000000  0.5109980000000 1.0
C      1  0.4691940000000  0.5442790000000  0.5513660000000 1.0
C      1  0.4774050000000  0.5497570000000  0.5241060000000 1.0
C      1  0.5368370000000  0.4967110000000  0.5118850000000 1.0
C      1  0.5511630000000  0.5646720000000  0.4943420000000 1.0
C      1  0.4734040000000  0.4995440000000  0.5232230000000 1.0
C      1  0.5241270000000  0.5073720000000  0.4351410000000 1.0
C      1  0.5251370000000  0.4563740000000  0.4513120000000 1.0
C      1  0.5008000000000  0.5688510000000  0.5232750000000 1.0
C      1  0.5121470000000  0.4365570000000  0.5368680000000 1.0
C      1  0.4448800000000  0.4476730000000  0.4775390000000 1.0
C      1  0.5688970000000  0.4814800000000  0.5433690000000 1.0
C      1  0.5004360000000  0.4606100000000  0.5781310000000 1.0
C      1  0.5284790000000  0.5731020000000  0.4796610000000 1.0
C      1  0.4849810000000  0.5330030000000  0.4215520000000 1.0
C      1  0.5143960000000  0.4398500000000  0.5649760000000 1.0
C      1  0.4990470000000  0.4477500000000  0.4411520000000 1.0
C      1  0.4751740000000  0.4079440000000  0.4663140000000 1.0
C      1  0.5130610000000  0.5204440000000  0.4760720000000 1.0
C      1  0.4600040000000  0.5206910000000  0.4296020000000 1.0
C      1  0.5233180000000  0.5654160000000  0.5392490000000 1.0
C      1  0.5381730000000  0.4377790000000  0.4686550000000 1.0
C      1  0.5692670000000  0.5249430000000  0.5202940000000 1.0
C      1  0.5530000000000  0.5358210000000  0.4963960000000 1.0
C      1  0.5027150000000  0.5749350000000  0.4948180000000 1.0
C      1  0.4773130000000  0.4675130000000  0.4389100000000 1.0
C      1  0.4788880000000  0.4894400000000  0.4200730000000 1.0
C      1  0.5246760000000  0.5235160000000  0.5032050000000 1.0
C      1  0.4443350000000  0.4657410000000  0.5020650000000 1.0
C      1  0.4332230000000  0.4812170000000  0.5450420000000 1.0
C      1  0.5000460000000  0.5686330000000  0.4424030000000 1.0
C      1  0.4867360000000  0.4482770000000  0.5257230000000 1.0
C      1  0.5742090000000  0.4964610000000  0.5193340000000 1.0
C      1  0.4425290000000  0.5330110000000  0.4914030000000 1.0
C      1  0.4574150000000  0.5561820000000  0.5019470000000 1.0
C      1  0.4438930000000  0.5002850000000  0.4703160000000 1.0
C      1  0.5569590000000  0.5232950000000  0.4677660000000 1.0
C      1  0.5414800000000  0.5500930000000  0.5515280000000 1.0
C      1  0.4779880000000  0.4669680000000  0.5593960000000 1.0
C      1  0.5558110000000  0.5268810000000  0.5463040000000 1.0
C      1  0.5558930000000  0.5008510000000  0.5606350000000 1.0
C      1  0.4926700000000  0.4888890000000  0.5432100000000 1.0
C      1  0.5126420000000  0.4889890000000  0.5833510000000 1.0
C      1  0.5407880000000  0.4913600000000  0.5826000000000 1.0
C      1  0.4509450000000  0.4663590000000  0.4544220000000 1.0
C      1  0.4728510000000  0.4767740000000  0.5031630000000 1.0
C      1  0.5562180000000  0.4924010000000  0.4658800000000 1.0
C      1  0.4836390000000  0.5192690000000  0.4783000000000 1.0
C      1  0.4296220000000  0.5137610000000  0.5097520000000 1.0
C      1  0.4750990000000  0.5641730000000  0.4546700000000 1.0
C      1  0.5305310000000  0.5302190000000  0.4543440000000 1.0
C      1  0.5007720000000  0.5090870000000  0.4172150000000 1.0
C      1  0.4911190000000  0.4229290000000  0.4508570000000 1.0
C      1  0.5385590000000  0.4823840000000  0.4434220000000 1.0
C      1  0.4559520000000  0.4223930000000  0.4779390000000 1.0
C      1  0.4271520000000  0.4894280000000  0.4931360000000 1.0
C      1  0.4665860000000  0.5355680000000  0.4560160000000 1.0
C      1  0.4735510000000  0.4906360000000  0.4758000000000 1.0
C      1  0.5253440000000  0.5612800000000  0.4523230000000 1.0
C      1  0.4626570000000  0.4447490000000  0.5429320000000 1.0
C      1  0.5400200000000  0.4521000000000  0.4929330000000 1.0
C      1  0.5574350000000  0.4558070000000  0.5402800000000 1.0
C      1  0.5332020000000  0.4531780000000  0.5241790000000 1.0
C      1  0.4811130000000  0.5284950000000  0.5697690000000 1.0
C      1  0.5405790000000  0.4805040000000  0.4878190000000 1.0
C      1  0.4451030000000  0.5043560000000  0.5335250000000 1.0
END
