TITL C-950532-2784-603 7.47477792486869e-07 125000 -624.892836109357 0 0 102 (C1) n - 1
REM
REM in /home/bkarasulu/work/CARBON/AIRSS/Generating-Clusters/EDIP-Nigel-Params/with-SteepDescent/Only-C1/SD-CG/HFTN-CG
REM
REM
REM
REM
REM
REM ./C.cell (11c1c37f851c82e70ff6c80c92926a4b)
REM
REM compiler GCC version 9.2.1 20190827 (Red Hat 9.2.1-1)
REM options -cpp -mtune=generic -march=x86-64 -g -O0 -fpre-include=/usr/include/finclude/math-vector-fortran.h
REM seed -35023495 -797120958 -980005469 -2028747322 958929606 1033314232 -2096050380 2113820412 956934238 125189290 1724180459 122864658 2062581546 -2101834731 2042038841 -701948726 380803657 1174365729 2071748861 1614207770 -873824355 2110507503 972806541 939426971 603791556 405595969 1092959939 626232907 -490342205 -1010584493 2029016849 -1708089413 -643036561
REM
CELL 1.54180   50.00000   50.00000   50.00000   90.00000   90.00000   90.00000
LATT -1
SFAC C  
C      1  0.3995230000000  0.5286990000000  0.4902580000000 1.0
C      1  0.5336120000000  0.4358080000000  0.4406860000000 1.0
C      1  0.5556050000000  0.5617110000000  0.4532720000000 1.0
C      1  0.5393150000000  0.4311280000000  0.5259250000000 1.0
C      1  0.4562380000000  0.3996100000000  0.5071320000000 1.0
C      1  0.4576330000000  0.5160520000000  0.4242450000000 1.0
C      1  0.5295840000000  0.5829340000000  0.4901920000000 1.0
C      1  0.5202990000000  0.4644350000000  0.5568170000000 1.0
C      1  0.4218400000000  0.4925550000000  0.4554040000000 1.0
C      1  0.4133000000000  0.4645450000000  0.4990590000000 1.0
C      1  0.4954100000000  0.4285470000000  0.5610230000000 1.0
C      1  0.5107210000000  0.4468130000000  0.4285970000000 1.0
C      1  0.5325660000000  0.5791760000000  0.4616890000000 1.0
C      1  0.4740550000000  0.5820160000000  0.4499900000000 1.0
C      1  0.5046080000000  0.5021210000000  0.4104320000000 1.0
C      1  0.4470140000000  0.5031460000000  0.4973920000000 1.0
C      1  0.4454320000000  0.4072690000000  0.4835990000000 1.0
C      1  0.4543580000000  0.5189200000000  0.5243720000000 1.0
C      1  0.4819200000000  0.4682230000000  0.5094120000000 1.0
C      1  0.4478450000000  0.4929170000000  0.4401510000000 1.0
C      1  0.4492930000000  0.4816630000000  0.5671140000000 1.0
C      1  0.5436330000000  0.4750690000000  0.4146630000000 1.0
C      1  0.5442090000000  0.4911310000000  0.4969610000000 1.0
C      1  0.5149480000000  0.4186330000000  0.5154600000000 1.0
C      1  0.4426680000000  0.5424890000000  0.4625960000000 1.0
C      1  0.4942420000000  0.4933120000000  0.5222540000000 1.0
C      1  0.4915960000000  0.5179330000000  0.5622920000000 1.0
C      1  0.4780880000000  0.5784200000000  0.4784560000000 1.0
C      1  0.5213250000000  0.5047970000000  0.4842270000000 1.0
C      1  0.4923170000000  0.5490200000000  0.4169980000000 1.0
C      1  0.5179140000000  0.5326000000000  0.5553790000000 1.0
C      1  0.5493810000000  0.5201180000000  0.5475410000000 1.0
C      1  0.4178400000000  0.5418850000000  0.5092920000000 1.0
C      1  0.5510660000000  0.4511500000000  0.4253630000000 1.0
C      1  0.5877540000000  0.4836840000000  0.5367150000000 1.0
C      1  0.5077960000000  0.5486690000000  0.4644090000000 1.0
C      1  0.5018180000000  0.5760270000000  0.4972830000000 1.0
C      1  0.5711410000000  0.4510100000000  0.5025440000000 1.0
C      1  0.5846780000000  0.5218640000000  0.4686200000000 1.0
C      1  0.5473090000000  0.5666730000000  0.5347330000000 1.0
C      1  0.4958660000000  0.4999110000000  0.5866360000000 1.0
C      1  0.4655530000000  0.4172320000000  0.5267940000000 1.0
C      1  0.5710140000000  0.4608660000000  0.5287430000000 1.0
C      1  0.4805770000000  0.4502580000000  0.5710370000000 1.0
C      1  0.4561970000000  0.4553740000000  0.5562710000000 1.0
C      1  0.4593350000000  0.4305890000000  0.4757590000000 1.0
C      1  0.4601910000000  0.5222870000000  0.4761030000000 1.0
C      1  0.4296260000000  0.5010080000000  0.5592110000000 1.0
C      1  0.5601560000000  0.5004090000000  0.5672690000000 1.0
C      1  0.4084360000000  0.5155420000000  0.4663180000000 1.0
C      1  0.4288160000000  0.5207040000000  0.5391130000000 1.0
C      1  0.5616380000000  0.5480820000000  0.5528670000000 1.0
C      1  0.4932140000000  0.4149030000000  0.5362320000000 1.0
C      1  0.4841090000000  0.5361800000000  0.4896250000000 1.0
C      1  0.5011520000000  0.5138670000000  0.5015780000000 1.0
C      1  0.4862040000000  0.4280470000000  0.4653740000000 1.0
C      1  0.5096250000000  0.4305780000000  0.4854390000000 1.0
C      1  0.5928840000000  0.5010950000000  0.4908060000000 1.0
C      1  0.5156860000000  0.5580770000000  0.4337710000000 1.0
C      1  0.5444680000000  0.5451480000000  0.4302100000000 1.0
C      1  0.4858390000000  0.5207030000000  0.4182330000000 1.0
C      1  0.5555010000000  0.5130900000000  0.5173160000000 1.0
C      1  0.4637640000000  0.5465910000000  0.5146510000000 1.0
C      1  0.4758580000000  0.5052450000000  0.5408330000000 1.0
C      1  0.4634220000000  0.4671210000000  0.4435100000000 1.0
C      1  0.5421370000000  0.5170660000000  0.4407180000000 1.0
C      1  0.5683390000000  0.4867130000000  0.4769430000000 1.0
C      1  0.5434010000000  0.4469100000000  0.5500090000000 1.0
C      1  0.4476110000000  0.5694780000000  0.4759090000000 1.0
C      1  0.5299970000000  0.4984130000000  0.4204490000000 1.0
C      1  0.5312420000000  0.4666260000000  0.5125240000000 1.0
C      1  0.4473440000000  0.5429280000000  0.4328920000000 1.0
C      1  0.5552010000000  0.5533150000000  0.5799670000000 1.0
C      1  0.5218360000000  0.5518530000000  0.5306690000000 1.0
C      1  0.5530230000000  0.5700170000000  0.5051610000000 1.0
C      1  0.3905780000000  0.5069310000000  0.5060890000000 1.0
C      1  0.4623600000000  0.4778230000000  0.4904730000000 1.0
C      1  0.5252540000000  0.5193320000000  0.5989690000000 1.0
C      1  0.5859450000000  0.4896270000000  0.5642280000000 1.0
C      1  0.5070230000000  0.4578920000000  0.4964900000000 1.0
C      1  0.4397770000000  0.5608920000000  0.5042020000000 1.0
C      1  0.4684640000000  0.5640490000000  0.4271320000000 1.0
C      1  0.4507390000000  0.4588640000000  0.4699090000000 1.0
C      1  0.5424770000000  0.4956830000000  0.5909460000000 1.0
C      1  0.4213480000000  0.4655880000000  0.4699080000000 1.0
C      1  0.5189500000000  0.4782170000000  0.5839300000000 1.0
C      1  0.4707010000000  0.4826340000000  0.5879990000000 1.0
C      1  0.4998790000000  0.5700210000000  0.5252600000000 1.0
C      1  0.5286360000000  0.5431580000000  0.5819870000000 1.0
C      1  0.5446250000000  0.5379880000000  0.5012160000000 1.0
C      1  0.4303100000000  0.4484090000000  0.5150090000000 1.0
C      1  0.4560330000000  0.4458340000000  0.5279560000000 1.0
C      1  0.5676090000000  0.5045780000000  0.4502300000000 1.0
C      1  0.5852410000000  0.5074280000000  0.5182280000000 1.0
C      1  0.5255740000000  0.5242250000000  0.4646320000000 1.0
C      1  0.4755460000000  0.5621800000000  0.5356440000000 1.0
C      1  0.5191910000000  0.4829150000000  0.5346270000000 1.0
C      1  0.5596330000000  0.4364770000000  0.4829370000000 1.0
C      1  0.5353070000000  0.4331850000000  0.4697910000000 1.0
C      1  0.5667620000000  0.5460880000000  0.4774550000000 1.0
C      1  0.4877320000000  0.4490860000000  0.4448360000000 1.0
C      1  0.4151510000000  0.4918980000000  0.5084340000000 1.0
END
