TITL C-950530-3293-424 -1.8922275790227e-06 125000 -283.140669339597 0 0 48 (C1) n - 1
REM
REM in /home/bkarasulu/work/CARBON/AIRSS/Generating-Clusters/EDIP-Nigel-Params/with-SteepDescent/Only-C1/SD-CG/HFTN-CG
REM
REM
REM
REM
REM
REM ./C.cell (11c1c37f851c82e70ff6c80c92926a4b)
REM
REM compiler GCC version 9.2.1 20190827 (Red Hat 9.2.1-1)
REM options -cpp -mtune=generic -march=x86-64 -g -O0 -fpre-include=/usr/include/finclude/math-vector-fortran.h
REM seed -197146684 1765012917 -1205054832 1097640752 -964280376 1087651089 2026073235 -1601900879 1302967221 -2080992346 234503768 832105940 880558390 -142779532 -758989710 710106424 1940555759 -268450499 882380122 1101526843 806144652 -245121348 -1935619316 -912752876 -1657374190 172854431 1766267289 -471143406 1860027156 394008262 -1757319822 -167536020 493208392
REM
CELL 1.54180   50.00000   50.00000   50.00000   90.00000   90.00000   90.00000
LATT -1
SFAC C  
C      1  0.4704360000000  0.4549100000000  0.4629660000000 1.0
C      1  0.5300400000000  0.4927010000000  0.5162690000000 1.0
C      1  0.4855970000000  0.5008780000000  0.5442700000000 1.0
C      1  0.5559810000000  0.5531400000000  0.5166740000000 1.0
C      1  0.5177690000000  0.5251210000000  0.4354860000000 1.0
C      1  0.5687190000000  0.5184820000000  0.4884420000000 1.0
C      1  0.4994200000000  0.4982290000000  0.5695630000000 1.0
C      1  0.4369240000000  0.5179250000000  0.4892470000000 1.0
C      1  0.4644610000000  0.5522450000000  0.4903780000000 1.0
C      1  0.4408850000000  0.4740610000000  0.5116190000000 1.0
C      1  0.5512820000000  0.5059720000000  0.5323040000000 1.0
C      1  0.5646500000000  0.5267570000000  0.5147280000000 1.0
C      1  0.5351840000000  0.5190520000000  0.5542780000000 1.0
C      1  0.4455930000000  0.5392190000000  0.5116330000000 1.0
C      1  0.4905010000000  0.4757590000000  0.5265640000000 1.0
C      1  0.4937930000000  0.4477170000000  0.4486660000000 1.0
C      1  0.4772940000000  0.4512450000000  0.5367210000000 1.0
C      1  0.5194030000000  0.4389790000000  0.4536630000000 1.0
C      1  0.5176670000000  0.5543130000000  0.4703530000000 1.0
C      1  0.5460580000000  0.5127180000000  0.4730170000000 1.0
C      1  0.4961070000000  0.4302010000000  0.5372010000000 1.0
C      1  0.4938500000000  0.4232700000000  0.4914930000000 1.0
C      1  0.4989890000000  0.5574100000000  0.4475920000000 1.0
C      1  0.4965010000000  0.4616600000000  0.4980830000000 1.0
C      1  0.5446370000000  0.5718900000000  0.5013120000000 1.0
C      1  0.5322930000000  0.4560420000000  0.4721500000000 1.0
C      1  0.4525750000000  0.5340780000000  0.4682850000000 1.0
C      1  0.5137070000000  0.5335390000000  0.5435100000000 1.0
C      1  0.4630640000000  0.5319810000000  0.5359120000000 1.0
C      1  0.5359760000000  0.5344650000000  0.4561130000000 1.0
C      1  0.4928470000000  0.5443510000000  0.4986970000000 1.0
C      1  0.4613170000000  0.4826600000000  0.4646640000000 1.0
C      1  0.5123870000000  0.4766140000000  0.4767640000000 1.0
C      1  0.4377230000000  0.4878610000000  0.5358840000000 1.0
C      1  0.5462490000000  0.4698260000000  0.5184420000000 1.0
C      1  0.4895840000000  0.5318790000000  0.4368240000000 1.0
C      1  0.4484370000000  0.4910860000000  0.4893270000000 1.0
C      1  0.5314700000000  0.5779530000000  0.4787550000000 1.0
C      1  0.4556250000000  0.5047410000000  0.5492380000000 1.0
C      1  0.4681190000000  0.4374980000000  0.4876020000000 1.0
C      1  0.5000410000000  0.5185120000000  0.4888960000000 1.0
C      1  0.4913150000000  0.5410380000000  0.5286460000000 1.0
C      1  0.4569610000000  0.4492330000000  0.5142390000000 1.0
C      1  0.4721340000000  0.5167260000000  0.4550830000000 1.0
C      1  0.5111520000000  0.4246030000000  0.5142050000000 1.0
C      1  0.5227860000000  0.5012160000000  0.4885810000000 1.0
C      1  0.5366280000000  0.4481630000000  0.5009690000000 1.0
C      1  0.5258670000000  0.5020870000000  0.5746920000000 1.0
END
