TITL C-950536-5891-245 1.27883455813074e-07 125000 -663.667072006651 0 0 107 (C1) n - 1
REM
REM in /home/bkarasulu/work/CARBON/AIRSS/Generating-Clusters/EDIP-Nigel-Params/with-SteepDescent/Only-C1/SD-CG/HFTN-CG
REM
REM
REM
REM
REM
REM ./C.cell (11c1c37f851c82e70ff6c80c92926a4b)
REM
REM compiler GCC version 9.2.1 20190827 (Red Hat 9.2.1-1)
REM options -cpp -mtune=generic -march=x86-64 -g -O0 -fpre-include=/usr/include/finclude/math-vector-fortran.h
REM seed -2044593813 -1630293041 1926779312 -1939029098 94936916 -1672988529 1276823391 -642497932 1505478005 -1938237263 -408603698 1545503188 1255419919 794077493 913673610 620726235 -1213660800 -1953058046 -1481494125 379562892 -726019404 -1032008758 724763608 -1333306809 1640274968 196171586 495818755 675077397 438042734 326359665 -2081727935 -1292317185 -778567243
REM
CELL 1.54180   50.00000   50.00000   50.00000   90.00000   90.00000   90.00000
LATT -1
SFAC C  
C      1  0.5279000000000  0.5373830000000  0.5217770000000 1.0
C      1  0.5554550000000  0.5782670000000  0.5230790000000 1.0
C      1  0.5698930000000  0.5241180000000  0.5271970000000 1.0
C      1  0.5212280000000  0.5151140000000  0.4157260000000 1.0
C      1  0.4739250000000  0.5013180000000  0.4837720000000 1.0
C      1  0.5446250000000  0.5190240000000  0.4745620000000 1.0
C      1  0.5603040000000  0.4906990000000  0.4350390000000 1.0
C      1  0.5406880000000  0.4325790000000  0.5479990000000 1.0
C      1  0.5284710000000  0.5706120000000  0.4826840000000 1.0
C      1  0.5465050000000  0.4214870000000  0.4662390000000 1.0
C      1  0.4916360000000  0.4425090000000  0.5701220000000 1.0
C      1  0.5219930000000  0.5178250000000  0.5430800000000 1.0
C      1  0.5800100000000  0.4568270000000  0.5098130000000 1.0
C      1  0.5541690000000  0.4904440000000  0.4732360000000 1.0
C      1  0.4815480000000  0.4773440000000  0.4655230000000 1.0
C      1  0.5141580000000  0.5626020000000  0.4415350000000 1.0
C      1  0.4566030000000  0.4939930000000  0.4160870000000 1.0
C      1  0.4481480000000  0.5294600000000  0.5669330000000 1.0
C      1  0.4518630000000  0.5738120000000  0.4732950000000 1.0
C      1  0.5159670000000  0.4701260000000  0.5384880000000 1.0
C      1  0.5138230000000  0.5945260000000  0.5531810000000 1.0
C      1  0.5420890000000  0.5572210000000  0.5412700000000 1.0
C      1  0.4931100000000  0.5488740000000  0.5597190000000 1.0
C      1  0.4394360000000  0.4550720000000  0.5699500000000 1.0
C      1  0.4676460000000  0.4317650000000  0.4904710000000 1.0
C      1  0.5102110000000  0.5951090000000  0.5250580000000 1.0
C      1  0.4774510000000  0.5129420000000  0.5288250000000 1.0
C      1  0.4781770000000  0.5836870000000  0.4722510000000 1.0
C      1  0.4954140000000  0.5332900000000  0.4793790000000 1.0
C      1  0.4736990000000  0.4178410000000  0.5169320000000 1.0
C      1  0.4262380000000  0.5596070000000  0.4991100000000 1.0
C      1  0.5475640000000  0.4212710000000  0.5201670000000 1.0
C      1  0.4821900000000  0.6055870000000  0.4884180000000 1.0
C      1  0.5728870000000  0.4963500000000  0.5632660000000 1.0
C      1  0.4211230000000  0.5422410000000  0.4759010000000 1.0
C      1  0.4469240000000  0.4810730000000  0.5780790000000 1.0
C      1  0.4320950000000  0.4507780000000  0.5387370000000 1.0
C      1  0.4420680000000  0.4403950000000  0.4495160000000 1.0
C      1  0.4879620000000  0.4948040000000  0.5081310000000 1.0
C      1  0.5061020000000  0.4858490000000  0.4210660000000 1.0
C      1  0.4643510000000  0.5552000000000  0.5633400000000 1.0
C      1  0.4329750000000  0.5528190000000  0.5264880000000 1.0
C      1  0.5823600000000  0.5396700000000  0.5057900000000 1.0
C      1  0.4898600000000  0.4482600000000  0.4729560000000 1.0
C      1  0.4323230000000  0.4973460000000  0.5156180000000 1.0
C      1  0.4089160000000  0.5167080000000  0.4715650000000 1.0
C      1  0.5178630000000  0.5671970000000  0.5583320000000 1.0
C      1  0.5030340000000  0.5370470000000  0.4292830000000 1.0
C      1  0.5506760000000  0.4794920000000  0.5719050000000 1.0
C      1  0.5547890000000  0.4480360000000  0.4615050000000 1.0
C      1  0.4233110000000  0.4551790000000  0.4870610000000 1.0
C      1  0.4786250000000  0.4787800000000  0.4081790000000 1.0
C      1  0.4664350000000  0.4692900000000  0.5391590000000 1.0
C      1  0.4288770000000  0.5268430000000  0.5410660000000 1.0
C      1  0.4755790000000  0.5416510000000  0.4201700000000 1.0
C      1  0.5241850000000  0.4612590000000  0.4230150000000 1.0
C      1  0.4922470000000  0.4984510000000  0.5736710000000 1.0
C      1  0.4949590000000  0.5198650000000  0.5515610000000 1.0
C      1  0.4798660000000  0.4670670000000  0.5132420000000 1.0
C      1  0.5760080000000  0.5667510000000  0.5076510000000 1.0
C      1  0.5421010000000  0.5634020000000  0.4547470000000 1.0
C      1  0.4844420000000  0.6035840000000  0.5158900000000 1.0
C      1  0.4423080000000  0.5089980000000  0.4346530000000 1.0
C      1  0.5566770000000  0.5367310000000  0.4523980000000 1.0
C      1  0.5484430000000  0.4648570000000  0.4382640000000 1.0
C      1  0.5617440000000  0.4368900000000  0.4981890000000 1.0
C      1  0.4921810000000  0.4703700000000  0.5576190000000 1.0
C      1  0.5230930000000  0.4098770000000  0.5088240000000 1.0
C      1  0.4708340000000  0.4518520000000  0.4101990000000 1.0
C      1  0.5952010000000  0.4737250000000  0.4932210000000 1.0
C      1  0.5381320000000  0.4776230000000  0.4968430000000 1.0
C      1  0.5117350000000  0.4373880000000  0.4298470000000 1.0
C      1  0.4654580000000  0.4356770000000  0.4327280000000 1.0
C      1  0.5822140000000  0.4955600000000  0.4805340000000 1.0
C      1  0.4623590000000  0.4336670000000  0.5656870000000 1.0
C      1  0.4523060000000  0.5359070000000  0.4356830000000 1.0
C      1  0.5171830000000  0.4978970000000  0.5040730000000 1.0
C      1  0.4558380000000  0.4204480000000  0.5394170000000 1.0
C      1  0.4974700000000  0.5208200000000  0.4526510000000 1.0
C      1  0.5105710000000  0.4236930000000  0.5545270000000 1.0
C      1  0.4520760000000  0.5697530000000  0.5405040000000 1.0
C      1  0.5756490000000  0.4968530000000  0.5343840000000 1.0
C      1  0.5006340000000  0.5636980000000  0.4703410000000 1.0
C      1  0.5217220000000  0.5248420000000  0.4944750000000 1.0
C      1  0.5825780000000  0.5267840000000  0.4789920000000 1.0
C      1  0.5206230000000  0.4496390000000  0.4889040000000 1.0
C      1  0.4285800000000  0.4982250000000  0.4603490000000 1.0
C      1  0.4207960000000  0.4696880000000  0.4615250000000 1.0
C      1  0.4628520000000  0.5937920000000  0.5306350000000 1.0
C      1  0.5493020000000  0.5167820000000  0.4280180000000 1.0
C      1  0.5369010000000  0.5215550000000  0.5678580000000 1.0
C      1  0.5296100000000  0.4968840000000  0.5829460000000 1.0
C      1  0.4255660000000  0.4679050000000  0.5144290000000 1.0
C      1  0.5644560000000  0.5333270000000  0.5564590000000 1.0
C      1  0.4542240000000  0.4977130000000  0.5377680000000 1.0
C      1  0.5429210000000  0.4629690000000  0.5469420000000 1.0
C      1  0.4905170000000  0.4323580000000  0.4471770000000 1.0
C      1  0.4406380000000  0.4325300000000  0.4780060000000 1.0
C      1  0.4436950000000  0.5061590000000  0.4876770000000 1.0
C      1  0.5017900000000  0.4238370000000  0.5249790000000 1.0
C      1  0.5233490000000  0.4127800000000  0.4801150000000 1.0
C      1  0.5053770000000  0.4523170000000  0.5162670000000 1.0
C      1  0.4432170000000  0.5504660000000  0.4591490000000 1.0
C      1  0.4620100000000  0.5045700000000  0.5803590000000 1.0
C      1  0.5328360000000  0.5883380000000  0.5067460000000 1.0
C      1  0.5594630000000  0.4740180000000  0.5226490000000 1.0
C      1  0.4997880000000  0.4925170000000  0.4491900000000 1.0
END
