TITL C-951337-3020-386 -1.30981308062568e-06 125000 -229.293348057492 0 0 39 (C1) n - 1
REM
REM in /home/bkarasulu/work/CARBON/AIRSS/Generating-Clusters/EDIP-Nigel-Params/with-SteepDescent/Only-C1/SD-CG/HFTN-CG
REM
REM
REM
REM
REM
REM ./C.cell (11c1c37f851c82e70ff6c80c92926a4b)
REM
REM compiler GCC version 9.2.1 20190827 (Red Hat 9.2.1-1)
REM options -cpp -mtune=generic -march=x86-64 -g -O0 -fpre-include=/usr/include/finclude/math-vector-fortran.h
REM seed 567424986 89453520 -258342161 -41979629 -1283453079 1969751634 -511610090 -1080608194 -2143495262 -955432913 -2114221206 1227001438 -1773208720 854912258 -891268766 871639106 385735902 -1830336523 -499924938 988152396 -2100134803 -1605952372 -1365542823 907137603 -1765629708 -454287196 1330620350 -847924502 -243458483 -1906827209 -1767783467 1228516349 2135544416
REM
CELL 1.54180   50.00000   50.00000   50.00000   90.00000   90.00000   90.00000
LATT -1
SFAC C  
C      1  0.5238760000000  0.5483320000000  0.5252290000000 1.0
C      1  0.4646060000000  0.4774890000000  0.5127230000000 1.0
C      1  0.5180890000000  0.5195300000000  0.4557390000000 1.0
C      1  0.5146320000000  0.5448170000000  0.4712070000000 1.0
C      1  0.4986290000000  0.4587080000000  0.5411500000000 1.0
C      1  0.5148000000000  0.4935750000000  0.5019530000000 1.0
C      1  0.5009220000000  0.4455160000000  0.4985210000000 1.0
C      1  0.4914340000000  0.5483620000000  0.4890370000000 1.0
C      1  0.4947110000000  0.4500130000000  0.4700860000000 1.0
C      1  0.4910780000000  0.5061760000000  0.5146000000000 1.0
C      1  0.4540920000000  0.4940280000000  0.5355020000000 1.0
C      1  0.4901800000000  0.4807530000000  0.5578620000000 1.0
C      1  0.5096620000000  0.4761080000000  0.4342150000000 1.0
C      1  0.5543630000000  0.5108340000000  0.5360540000000 1.0
C      1  0.5467080000000  0.5332940000000  0.5225360000000 1.0
C      1  0.5312710000000  0.5044810000000  0.5491090000000 1.0
C      1  0.4916940000000  0.5299390000000  0.5600980000000 1.0
C      1  0.5398560000000  0.5519280000000  0.4824610000000 1.0
C      1  0.5219810000000  0.4648860000000  0.5108360000000 1.0
C      1  0.4622730000000  0.4836910000000  0.5602900000000 1.0
C      1  0.4805830000000  0.4524820000000  0.5193850000000 1.0
C      1  0.5023020000000  0.5055450000000  0.5467650000000 1.0
C      1  0.4719030000000  0.4974580000000  0.4608110000000 1.0
C      1  0.5453900000000  0.5112890000000  0.4581390000000 1.0
C      1  0.4667110000000  0.5122360000000  0.4862720000000 1.0
C      1  0.5448640000000  0.4996980000000  0.4951360000000 1.0
C      1  0.4459370000000  0.4741130000000  0.4908110000000 1.0
C      1  0.4568550000000  0.4725060000000  0.4650140000000 1.0
C      1  0.4648030000000  0.5503050000000  0.4785270000000 1.0
C      1  0.4968450000000  0.5496000000000  0.5177660000000 1.0
C      1  0.4452620000000  0.5322950000000  0.4860490000000 1.0
C      1  0.5551540000000  0.5282030000000  0.4791700000000 1.0
C      1  0.4987140000000  0.4987030000000  0.4477440000000 1.0
C      1  0.4689430000000  0.4478040000000  0.4586870000000 1.0
C      1  0.4771180000000  0.5408480000000  0.5381460000000 1.0
C      1  0.4561750000000  0.5224870000000  0.5313640000000 1.0
C      1  0.5416870000000  0.4583250000000  0.4662930000000 1.0
C      1  0.5487490000000  0.4673070000000  0.4918280000000 1.0
C      1  0.5171490000000  0.4563330000000  0.4528860000000 1.0
END
