TITL C-951337-3020-613 -7.13110389905769e-06 125000 -897.136815190854 0 0 142 (C1) n - 1
REM
REM in /home/bkarasulu/work/CARBON/AIRSS/Generating-Clusters/EDIP-Nigel-Params/with-SteepDescent/Only-C1/SD-CG/HFTN-CG
REM
REM
REM
REM
REM
REM ./C.cell (11c1c37f851c82e70ff6c80c92926a4b)
REM
REM compiler GCC version 9.2.1 20190827 (Red Hat 9.2.1-1)
REM options -cpp -mtune=generic -march=x86-64 -g -O0 -fpre-include=/usr/include/finclude/math-vector-fortran.h
REM seed -129474103 464870090 -317376274 -1513681977 1463571174 847916559 -1308534599 867467093 1769870387 260828915 216734014 260317136 835788596 1130585000 495768128 -785516036 332330008 945210875 -676161625 -67269508 543891985 1132510617 -406898518 -1327572813 1404550086 1028302438 -39450980 522631293 1506143009 -825414554 339511778 -736163832 -524889458
REM
CELL 1.54180   50.00000   50.00000   50.00000   90.00000   90.00000   90.00000
LATT -1
SFAC C  
C      1  0.5467420000000  0.4566210000000  0.4924570000000 1.0
C      1  0.5396750000000  0.4607530000000  0.4029830000000 1.0
C      1  0.5201780000000  0.5258240000000  0.5477040000000 1.0
C      1  0.5647880000000  0.5579810000000  0.5106130000000 1.0
C      1  0.4325080000000  0.5693270000000  0.4745590000000 1.0
C      1  0.5559360000000  0.5382860000000  0.5786320000000 1.0
C      1  0.5103090000000  0.5507230000000  0.5660720000000 1.0
C      1  0.4392660000000  0.5484330000000  0.4534900000000 1.0
C      1  0.5799450000000  0.5464770000000  0.5343220000000 1.0
C      1  0.5072490000000  0.5895200000000  0.4323530000000 1.0
C      1  0.5013040000000  0.4668260000000  0.4481510000000 1.0
C      1  0.5127320000000  0.4291110000000  0.5207910000000 1.0
C      1  0.4750250000000  0.5514190000000  0.5386820000000 1.0
C      1  0.3966250000000  0.5216290000000  0.4512140000000 1.0
C      1  0.5086620000000  0.5152390000000  0.4061970000000 1.0
C      1  0.4767160000000  0.4124010000000  0.5499670000000 1.0
C      1  0.4557310000000  0.4803020000000  0.5941660000000 1.0
C      1  0.5502630000000  0.5630780000000  0.4660510000000 1.0
C      1  0.5128230000000  0.5168040000000  0.5965190000000 1.0
C      1  0.4543490000000  0.5863290000000  0.4858200000000 1.0
C      1  0.4798740000000  0.5498990000000  0.5821290000000 1.0
C      1  0.4994090000000  0.5133410000000  0.4992020000000 1.0
C      1  0.5191420000000  0.6028840000000  0.4558210000000 1.0
C      1  0.5264780000000  0.5837300000000  0.4775850000000 1.0
C      1  0.4797910000000  0.5903130000000  0.4723980000000 1.0
C      1  0.5106390000000  0.4971090000000  0.5535800000000 1.0
C      1  0.4688870000000  0.5171050000000  0.5561710000000 1.0
C      1  0.5194520000000  0.5766980000000  0.5529120000000 1.0
C      1  0.5466270000000  0.4379320000000  0.5701330000000 1.0
C      1  0.4916160000000  0.4162970000000  0.4653530000000 1.0
C      1  0.4843680000000  0.4174810000000  0.5213750000000 1.0
C      1  0.5276730000000  0.4750540000000  0.5411870000000 1.0
C      1  0.4833730000000  0.4941470000000  0.5436150000000 1.0
C      1  0.4936340000000  0.4732940000000  0.5942320000000 1.0
C      1  0.4228290000000  0.4599740000000  0.5493460000000 1.0
C      1  0.4413900000000  0.4288380000000  0.5179940000000 1.0
C      1  0.6100760000000  0.4960430000000  0.5266690000000 1.0
C      1  0.5433270000000  0.5352400000000  0.5046490000000 1.0
C      1  0.5468390000000  0.4390800000000  0.4439680000000 1.0
C      1  0.4970700000000  0.5576770000000  0.5145590000000 1.0
C      1  0.5172980000000  0.4886660000000  0.5830600000000 1.0
C      1  0.5070540000000  0.5839110000000  0.5264450000000 1.0
C      1  0.4524450000000  0.4577480000000  0.4204320000000 1.0
C      1  0.4962930000000  0.5497450000000  0.4588000000000 1.0
C      1  0.4697620000000  0.5085440000000  0.5042430000000 1.0
C      1  0.4697940000000  0.5847160000000  0.5567670000000 1.0
C      1  0.5452080000000  0.4818160000000  0.4225580000000 1.0
C      1  0.4135310000000  0.4741130000000  0.4504650000000 1.0
C      1  0.4843570000000  0.4960790000000  0.4113340000000 1.0
C      1  0.4523370000000  0.5320890000000  0.5122600000000 1.0
C      1  0.5428670000000  0.5565010000000  0.4359150000000 1.0
C      1  0.5721510000000  0.4786180000000  0.4376860000000 1.0
C      1  0.5904720000000  0.4991300000000  0.5472530000000 1.0
C      1  0.5533760000000  0.5847130000000  0.5195880000000 1.0
C      1  0.4823050000000  0.5978130000000  0.4447650000000 1.0
C      1  0.5673490000000  0.4641450000000  0.4673400000000 1.0
C      1  0.5333020000000  0.4921550000000  0.4699970000000 1.0
C      1  0.5396840000000  0.4824150000000  0.5129560000000 1.0
C      1  0.4249710000000  0.5325080000000  0.4981790000000 1.0
C      1  0.5157130000000  0.5336040000000  0.5174260000000 1.0
C      1  0.5769020000000  0.4732060000000  0.5540810000000 1.0
C      1  0.5950700000000  0.5078630000000  0.4692300000000 1.0
C      1  0.5066130000000  0.4538910000000  0.5377630000000 1.0
C      1  0.5806570000000  0.5257930000000  0.4266700000000 1.0
C      1  0.4996730000000  0.5212250000000  0.4695150000000 1.0
C      1  0.4566350000000  0.5832910000000  0.5145280000000 1.0
C      1  0.3990160000000  0.4907750000000  0.4930770000000 1.0
C      1  0.4504420000000  0.5507530000000  0.5777360000000 1.0
C      1  0.4604680000000  0.5148350000000  0.4084560000000 1.0
C      1  0.4215110000000  0.4508640000000  0.5211170000000 1.0
C      1  0.5485540000000  0.5201810000000  0.5571450000000 1.0
C      1  0.4712910000000  0.4032840000000  0.4817860000000 1.0
C      1  0.4705830000000  0.5415510000000  0.4156560000000 1.0
C      1  0.5182720000000  0.4064500000000  0.4691540000000 1.0
C      1  0.4195310000000  0.4540360000000  0.4707210000000 1.0
C      1  0.5284880000000  0.5430210000000  0.5895990000000 1.0
C      1  0.5682930000000  0.5598500000000  0.5593380000000 1.0
C      1  0.5984690000000  0.4760860000000  0.5103200000000 1.0
C      1  0.5582360000000  0.4211860000000  0.5443430000000 1.0
C      1  0.4740960000000  0.5086080000000  0.4591470000000 1.0
C      1  0.4816840000000  0.3933010000000  0.5056700000000 1.0
C      1  0.4362630000000  0.5077510000000  0.4237440000000 1.0
C      1  0.5930670000000  0.5351930000000  0.4773570000000 1.0
C      1  0.5285730000000  0.4406580000000  0.4193190000000 1.0
C      1  0.4230970000000  0.5061970000000  0.5348350000000 1.0
C      1  0.4652300000000  0.4500330000000  0.5133350000000 1.0
C      1  0.4365370000000  0.5677610000000  0.5298440000000 1.0
C      1  0.4805440000000  0.4665780000000  0.5334450000000 1.0
C      1  0.4216690000000  0.5285250000000  0.4401620000000 1.0
C      1  0.4418330000000  0.4433050000000  0.5635500000000 1.0
C      1  0.5484880000000  0.5806210000000  0.5487650000000 1.0
C      1  0.5705840000000  0.4345950000000  0.5220260000000 1.0
C      1  0.5699050000000  0.5181430000000  0.5376240000000 1.0
C      1  0.5654980000000  0.4101920000000  0.4775210000000 1.0
C      1  0.4556470000000  0.4358380000000  0.4402850000000 1.0
C      1  0.4987130000000  0.4467760000000  0.4256910000000 1.0
C      1  0.4371870000000  0.4981000000000  0.5802740000000 1.0
C      1  0.4462900000000  0.4178770000000  0.4866830000000 1.0
C      1  0.4069510000000  0.5128830000000  0.5113840000000 1.0
C      1  0.5204870000000  0.4385850000000  0.4905440000000 1.0
C      1  0.5289260000000  0.5941000000000  0.5063320000000 1.0
C      1  0.4862600000000  0.4906880000000  0.4404170000000 1.0
C      1  0.4944470000000  0.4306750000000  0.5665420000000 1.0
C      1  0.4674180000000  0.5421380000000  0.4455830000000 1.0
C      1  0.5366160000000  0.5173720000000  0.4588730000000 1.0
C      1  0.4336660000000  0.4792970000000  0.4299790000000 1.0
C      1  0.4553000000000  0.4518510000000  0.5884390000000 1.0
C      1  0.5464750000000  0.4688720000000  0.5655160000000 1.0
C      1  0.4429410000000  0.5730560000000  0.5591550000000 1.0
C      1  0.4130460000000  0.4651090000000  0.4970500000000 1.0
C      1  0.5784110000000  0.5589990000000  0.4827670000000 1.0
C      1  0.4606820000000  0.4921570000000  0.4819140000000 1.0
C      1  0.4670780000000  0.4615460000000  0.4846660000000 1.0
C      1  0.4484990000000  0.4195110000000  0.5475790000000 1.0
C      1  0.5295540000000  0.4737980000000  0.4484910000000 1.0
C      1  0.5838000000000  0.4590440000000  0.5291030000000 1.0
C      1  0.4467050000000  0.4420040000000  0.4689100000000 1.0
C      1  0.4014560000000  0.4970550000000  0.4641100000000 1.0
C      1  0.5562310000000  0.5088310000000  0.5123410000000 1.0
C      1  0.4829890000000  0.4254780000000  0.4393640000000 1.0
C      1  0.5302850000000  0.4107430000000  0.5395230000000 1.0
C      1  0.5878220000000  0.5032810000000  0.4415020000000 1.0
C      1  0.5214600000000  0.4188120000000  0.5685600000000 1.0
C      1  0.4997620000000  0.5433680000000  0.4100500000000 1.0
C      1  0.4973200000000  0.4585090000000  0.4778390000000 1.0
C      1  0.5126030000000  0.5595190000000  0.4331330000000 1.0
C      1  0.4846340000000  0.5225250000000  0.5900190000000 1.0
C      1  0.5395640000000  0.5386380000000  0.4764430000000 1.0
C      1  0.5772280000000  0.4195180000000  0.4996500000000 1.0
C      1  0.5541760000000  0.5330070000000  0.4211610000000 1.0
C      1  0.4213050000000  0.4881740000000  0.5571600000000 1.0
C      1  0.4991020000000  0.5697780000000  0.4810800000000 1.0
C      1  0.4784160000000  0.5948350000000  0.5309490000000 1.0
C      1  0.4793200000000  0.4636660000000  0.4062970000000 1.0
C      1  0.4368530000000  0.5263010000000  0.5843790000000 1.0
C      1  0.4168210000000  0.5600640000000  0.4976410000000 1.0
C      1  0.5361850000000  0.5101480000000  0.4150630000000 1.0
C      1  0.5151640000000  0.4872860000000  0.4937280000000 1.0
C      1  0.5439620000000  0.4157210000000  0.4609990000000 1.0
C      1  0.5868930000000  0.4831760000000  0.4838440000000 1.0
C      1  0.4420400000000  0.5276110000000  0.5410180000000 1.0
C      1  0.4839530000000  0.4458320000000  0.5903010000000 1.0
END
