TITL C-950532-2784-25 -3.06635372892191e-06 125000 -1052.73872371533 0 0 168 (C1) n - 1
REM
REM in /home/bkarasulu/work/CARBON/AIRSS/Generating-Clusters/EDIP-Nigel-Params/with-SteepDescent/Only-C1/SD-CG/HFTN-CG
REM
REM
REM
REM
REM
REM ./C.cell (11c1c37f851c82e70ff6c80c92926a4b)
REM
REM compiler GCC version 9.2.1 20190827 (Red Hat 9.2.1-1)
REM options -cpp -mtune=generic -march=x86-64 -g -O0 -fpre-include=/usr/include/finclude/math-vector-fortran.h
REM seed -652200792 -648971130 -860161088 -245360015 -2014357028 -1979998847 1859813052 -1638560725 -1633338383 1427501086 2026414072 -1392851048 -1024320432 -1719168843 2062529872 -1689308277 1515953416 -830005233 -644599927 -2029437228 152210144 1318474006 -1429629689 1854033390 -160485512 -952462339 -1823260094 1659366548 1484438116 112726160 -1313414400 -1280469923 1691026310
REM
CELL 1.54180   50.00000   50.00000   50.00000   90.00000   90.00000   90.00000
LATT -1
SFAC C  
C      1  0.4554830000000  0.4909600000000  0.4402470000000 1.0
C      1  0.4911990000000  0.5560520000000  0.4079730000000 1.0
C      1  0.6023520000000  0.4711700000000  0.4739700000000 1.0
C      1  0.5730360000000  0.4530530000000  0.4347810000000 1.0
C      1  0.5872430000000  0.5257860000000  0.4826900000000 1.0
C      1  0.4508110000000  0.3897230000000  0.4887070000000 1.0
C      1  0.4739820000000  0.4439710000000  0.5637860000000 1.0
C      1  0.5968850000000  0.5002530000000  0.4670090000000 1.0
C      1  0.5798400000000  0.4949990000000  0.5399630000000 1.0
C      1  0.4996810000000  0.4219280000000  0.4258080000000 1.0
C      1  0.5607560000000  0.5596820000000  0.4337480000000 1.0
C      1  0.6134460000000  0.5175450000000  0.5237650000000 1.0
C      1  0.5489740000000  0.5359280000000  0.4511780000000 1.0
C      1  0.5081960000000  0.4955470000000  0.4829800000000 1.0
C      1  0.4995040000000  0.5838000000000  0.4018610000000 1.0
C      1  0.4709840000000  0.4324310000000  0.4259480000000 1.0
C      1  0.4239390000000  0.4245680000000  0.5140040000000 1.0
C      1  0.5615070000000  0.5703590000000  0.5147780000000 1.0
C      1  0.4582450000000  0.4608740000000  0.5826010000000 1.0
C      1  0.4021620000000  0.5011930000000  0.5628460000000 1.0
C      1  0.4097170000000  0.4751490000000  0.4511490000000 1.0
C      1  0.3840030000000  0.4853180000000  0.4546100000000 1.0
C      1  0.5096740000000  0.5049100000000  0.5119960000000 1.0
C      1  0.5881440000000  0.4920660000000  0.5098510000000 1.0
C      1  0.4672300000000  0.5192790000000  0.4490450000000 1.0
C      1  0.4260930000000  0.5696200000000  0.4454920000000 1.0
C      1  0.5585430000000  0.5688500000000  0.4863320000000 1.0
C      1  0.4246920000000  0.5453970000000  0.5490650000000 1.0
C      1  0.4829170000000  0.4241260000000  0.4849430000000 1.0
C      1  0.6015380000000  0.5222720000000  0.5509980000000 1.0
C      1  0.4696670000000  0.4731390000000  0.4823850000000 1.0
C      1  0.5125560000000  0.5865300000000  0.4738840000000 1.0
C      1  0.5441140000000  0.5630370000000  0.4102990000000 1.0
C      1  0.5886020000000  0.5010040000000  0.4387250000000 1.0
C      1  0.5785190000000  0.4794470000000  0.4205200000000 1.0
C      1  0.4394740000000  0.5548100000000  0.5252160000000 1.0
C      1  0.4947240000000  0.5449280000000  0.5469540000000 1.0
C      1  0.4168970000000  0.4470540000000  0.4546330000000 1.0
C      1  0.5239430000000  0.5841060000000  0.4175220000000 1.0
C      1  0.4901120000000  0.4910690000000  0.5387350000000 1.0
C      1  0.5163820000000  0.5572920000000  0.4797610000000 1.0
C      1  0.4080590000000  0.4375120000000  0.4813060000000 1.0
C      1  0.5588370000000  0.4923380000000  0.4887820000000 1.0
C      1  0.4333630000000  0.5338920000000  0.5010630000000 1.0
C      1  0.4506530000000  0.5674120000000  0.4280520000000 1.0
C      1  0.5296270000000  0.5947700000000  0.4475900000000 1.0
C      1  0.4029690000000  0.4873260000000  0.5160620000000 1.0
C      1  0.5105210000000  0.4163010000000  0.5567970000000 1.0
C      1  0.4975460000000  0.5552120000000  0.4379480000000 1.0
C      1  0.5214260000000  0.5425580000000  0.5318740000000 1.0
C      1  0.4794760000000  0.5737190000000  0.5008530000000 1.0
C      1  0.4567290000000  0.4855210000000  0.4101340000000 1.0
C      1  0.4213200000000  0.5877060000000  0.4934460000000 1.0
C      1  0.5008540000000  0.5466780000000  0.5022010000000 1.0
C      1  0.5040170000000  0.5059740000000  0.5884660000000 1.0
C      1  0.4683870000000  0.6033590000000  0.5046820000000 1.0
C      1  0.4737360000000  0.4751470000000  0.6021360000000 1.0
C      1  0.4367010000000  0.5030550000000  0.5048920000000 1.0
C      1  0.5339430000000  0.4802110000000  0.5581090000000 1.0
C      1  0.4516400000000  0.6010110000000  0.5293990000000 1.0
C      1  0.4961780000000  0.4025040000000  0.5345220000000 1.0
C      1  0.5036130000000  0.4635150000000  0.4445050000000 1.0
C      1  0.4507550000000  0.4561860000000  0.4977400000000 1.0
C      1  0.5092030000000  0.4889530000000  0.3976090000000 1.0
C      1  0.5099430000000  0.4920450000000  0.4358080000000 1.0
C      1  0.5107900000000  0.3920520000000  0.5123090000000 1.0
C      1  0.5868670000000  0.4714780000000  0.5813660000000 1.0
C      1  0.4733800000000  0.5689020000000  0.4474200000000 1.0
C      1  0.5401670000000  0.5006560000000  0.5124870000000 1.0
C      1  0.4464800000000  0.5390050000000  0.4720530000000 1.0
C      1  0.4668130000000  0.4069790000000  0.5326210000000 1.0
C      1  0.4527060000000  0.5132220000000  0.5746380000000 1.0
C      1  0.5979930000000  0.5349760000000  0.5076850000000 1.0
C      1  0.4154050000000  0.4553070000000  0.5569200000000 1.0
C      1  0.5495360000000  0.4993880000000  0.5400040000000 1.0
C      1  0.4675030000000  0.4036340000000  0.4712100000000 1.0
C      1  0.4425900000000  0.5436190000000  0.5721580000000 1.0
C      1  0.4215420000000  0.5411670000000  0.4538710000000 1.0
C      1  0.5518400000000  0.5144110000000  0.3971550000000 1.0
C      1  0.4541410000000  0.4144390000000  0.4473620000000 1.0
C      1  0.5631980000000  0.5556920000000  0.5730420000000 1.0
C      1  0.5897120000000  0.4356670000000  0.5048850000000 1.0
C      1  0.4606850000000  0.5662570000000  0.4740610000000 1.0
C      1  0.5439290000000  0.4817550000000  0.5876070000000 1.0
C      1  0.4639880000000  0.5058230000000  0.5462270000000 1.0
C      1  0.5806210000000  0.5510360000000  0.5244420000000 1.0
C      1  0.5492980000000  0.4447240000000  0.5635480000000 1.0
C      1  0.5021510000000  0.5548230000000  0.5754830000000 1.0
C      1  0.5136130000000  0.4090330000000  0.4489930000000 1.0
C      1  0.5076790000000  0.4923300000000  0.5616800000000 1.0
C      1  0.5564240000000  0.5830030000000  0.4516470000000 1.0
C      1  0.4471440000000  0.4427020000000  0.4555460000000 1.0
C      1  0.4043170000000  0.5353230000000  0.4971360000000 1.0
C      1  0.4721050000000  0.4586450000000  0.4067890000000 1.0
C      1  0.3965250000000  0.5340500000000  0.4686410000000 1.0
C      1  0.5393200000000  0.4166820000000  0.5579610000000 1.0
C      1  0.4452640000000  0.4031520000000  0.5124750000000 1.0
C      1  0.4439700000000  0.4909620000000  0.5314090000000 1.0
C      1  0.3985420000000  0.4772080000000  0.5449790000000 1.0
C      1  0.4989240000000  0.4676880000000  0.4903880000000 1.0
C      1  0.4976990000000  0.4460100000000  0.5138230000000 1.0
C      1  0.5654780000000  0.5435720000000  0.4746880000000 1.0
C      1  0.5184340000000  0.5333460000000  0.5890650000000 1.0
C      1  0.5267510000000  0.4123360000000  0.4982510000000 1.0
C      1  0.5004570000000  0.4616840000000  0.3990360000000 1.0
C      1  0.3930500000000  0.5167620000000  0.5170670000000 1.0
C      1  0.5868080000000  0.5485440000000  0.5528960000000 1.0
C      1  0.4680610000000  0.4666610000000  0.4533580000000 1.0
C      1  0.4368140000000  0.5843110000000  0.4704330000000 1.0
C      1  0.4552000000000  0.4238970000000  0.5529150000000 1.0
C      1  0.5150780000000  0.4463560000000  0.4211660000000 1.0
C      1  0.4797640000000  0.5248020000000  0.4975760000000 1.0
C      1  0.5551600000000  0.5049690000000  0.4560860000000 1.0
C      1  0.5000040000000  0.4614850000000  0.6020600000000 1.0
C      1  0.4269370000000  0.4897470000000  0.4345950000000 1.0
C      1  0.5464100000000  0.4569850000000  0.5158000000000 1.0
C      1  0.5496170000000  0.4619990000000  0.4853500000000 1.0
C      1  0.3817120000000  0.5113770000000  0.4611560000000 1.0
C      1  0.4208820000000  0.4595440000000  0.4962650000000 1.0
C      1  0.5183170000000  0.4540890000000  0.4710240000000 1.0
C      1  0.4697290000000  0.5847500000000  0.5495200000000 1.0
C      1  0.5462820000000  0.5304690000000  0.5774970000000 1.0
C      1  0.4707990000000  0.5600870000000  0.5316330000000 1.0
C      1  0.4300010000000  0.4677260000000  0.5799280000000 1.0
C      1  0.5476230000000  0.4376310000000  0.4294760000000 1.0
C      1  0.5603010000000  0.5062170000000  0.5900340000000 1.0
C      1  0.4997140000000  0.5946180000000  0.5499350000000 1.0
C      1  0.5555400000000  0.4113040000000  0.4732980000000 1.0
C      1  0.4980530000000  0.4336110000000  0.5769010000000 1.0
C      1  0.4596360000000  0.5681120000000  0.5751170000000 1.0
C      1  0.5411360000000  0.5254850000000  0.5490500000000 1.0
C      1  0.5447830000000  0.5771480000000  0.5605210000000 1.0
C      1  0.4037910000000  0.5243360000000  0.5445680000000 1.0
C      1  0.4257890000000  0.4969550000000  0.5809840000000 1.0
C      1  0.5872390000000  0.4696400000000  0.5517920000000 1.0
C      1  0.5777150000000  0.4286420000000  0.4787290000000 1.0
C      1  0.4662710000000  0.5120260000000  0.3992150000000 1.0
C      1  0.6024230000000  0.4646970000000  0.5032820000000 1.0
C      1  0.4532680000000  0.4627180000000  0.5265160000000 1.0
C      1  0.5366440000000  0.5703770000000  0.5319360000000 1.0
C      1  0.5518540000000  0.4890230000000  0.4098410000000 1.0
C      1  0.4798150000000  0.5612410000000  0.5928320000000 1.0
C      1  0.4902400000000  0.6215560000000  0.5027990000000 1.0
C      1  0.5782540000000  0.4243370000000  0.5312160000000 1.0
C      1  0.5166010000000  0.5398620000000  0.4560730000000 1.0
C      1  0.5873370000000  0.4990420000000  0.5895170000000 1.0
C      1  0.5168450000000  0.5810710000000  0.5714910000000 1.0
C      1  0.4295540000000  0.5830010000000  0.5198990000000 1.0
C      1  0.5807390000000  0.4532500000000  0.4633830000000 1.0
C      1  0.4936770000000  0.5112030000000  0.3889140000000 1.0
C      1  0.5670570000000  0.4508320000000  0.5400950000000 1.0
C      1  0.5103300000000  0.4245390000000  0.4752960000000 1.0
C      1  0.5271960000000  0.4343470000000  0.5202810000000 1.0
C      1  0.5430820000000  0.4135380000000  0.4467840000000 1.0
C      1  0.5074030000000  0.5367110000000  0.3926990000000 1.0
C      1  0.5142600000000  0.5884300000000  0.5244390000000 1.0
C      1  0.5353850000000  0.5370660000000  0.3994970000000 1.0
C      1  0.5530190000000  0.4086980000000  0.5335680000000 1.0
C      1  0.4998160000000  0.5124910000000  0.4576750000000 1.0
C      1  0.4348680000000  0.4410470000000  0.5385620000000 1.0
C      1  0.5618260000000  0.4561190000000  0.5895910000000 1.0
C      1  0.4631040000000  0.5350560000000  0.4201740000000 1.0
C      1  0.5120920000000  0.6035040000000  0.4991740000000 1.0
C      1  0.5186870000000  0.4839480000000  0.6040340000000 1.0
C      1  0.4742930000000  0.5050230000000  0.5959520000000 1.0
C      1  0.4623970000000  0.5017690000000  0.4893590000000 1.0
C      1  0.4817790000000  0.4605110000000  0.5364840000000 1.0
C      1  0.5386990000000  0.4898340000000  0.4368930000000 1.0
END
