TITL C-950521-2237-253 8.80621434835647e-08 125000 -697.956145738691 0 0 114 (C1) n - 1
REM
REM in /home/bkarasulu/work/CARBON/AIRSS/Generating-Clusters/EDIP-Nigel-Params/with-SteepDescent/Only-C1/SD-CG/HFTN-CG
REM
REM
REM
REM
REM
REM ./C.cell (11c1c37f851c82e70ff6c80c92926a4b)
REM
REM compiler GCC version 9.2.1 20190827 (Red Hat 9.2.1-1)
REM options -cpp -mtune=generic -march=x86-64 -g -O0 -fpre-include=/usr/include/finclude/math-vector-fortran.h
REM seed 1224656783 1664685772 433747882 -167119921 1637527796 1333394900 -1929621810 -937761617 -1742179119 -1161174465 677388548 -1023128543 1241006828 730676300 -894944974 34888863 -1835826254 -1032860323 1138873960 115824801 495677450 -176114586 -1760307931 881242115 635478034 1762740618 664468023 -433773217 1166894900 -169718941 -1646718508 -1372177341 -1818742577
REM
CELL 1.54180   50.00000   50.00000   50.00000   90.00000   90.00000   90.00000
LATT -1
SFAC C  
C      1  0.4196630000000  0.4569510000000  0.5282460000000 1.0
C      1  0.5611480000000  0.5254170000000  0.5652190000000 1.0
C      1  0.4645900000000  0.5162590000000  0.4894000000000 1.0
C      1  0.5195790000000  0.4215640000000  0.4777330000000 1.0
C      1  0.4872690000000  0.4378130000000  0.5716790000000 1.0
C      1  0.4152430000000  0.4830530000000  0.4770870000000 1.0
C      1  0.4901100000000  0.5172030000000  0.5990250000000 1.0
C      1  0.5166110000000  0.4273850000000  0.5663540000000 1.0
C      1  0.5107800000000  0.4524540000000  0.4753470000000 1.0
C      1  0.4813530000000  0.4765280000000  0.5661360000000 1.0
C      1  0.4156570000000  0.5001340000000  0.5003300000000 1.0
C      1  0.5326980000000  0.5267740000000  0.5198300000000 1.0
C      1  0.4279430000000  0.5429480000000  0.4730930000000 1.0
C      1  0.4469540000000  0.5647850000000  0.4829580000000 1.0
C      1  0.5061450000000  0.5653930000000  0.5431430000000 1.0
C      1  0.5116070000000  0.5893390000000  0.4531830000000 1.0
C      1  0.5543890000000  0.4779750000000  0.5699780000000 1.0
C      1  0.5124540000000  0.5292670000000  0.5439740000000 1.0
C      1  0.5255360000000  0.4804090000000  0.5655440000000 1.0
C      1  0.4959390000000  0.4943930000000  0.4844500000000 1.0
C      1  0.5102960000000  0.4801850000000  0.4070180000000 1.0
C      1  0.5659180000000  0.4842520000000  0.4332570000000 1.0
C      1  0.4614360000000  0.4797270000000  0.5214090000000 1.0
C      1  0.4530220000000  0.4646950000000  0.5657570000000 1.0
C      1  0.4820980000000  0.5773980000000  0.4923570000000 1.0
C      1  0.5207690000000  0.5456240000000  0.4988810000000 1.0
C      1  0.4189100000000  0.4963430000000  0.4513220000000 1.0
C      1  0.5810680000000  0.4518720000000  0.4645710000000 1.0
C      1  0.4851080000000  0.4896560000000  0.5357010000000 1.0
C      1  0.4477950000000  0.4217840000000  0.5070300000000 1.0
C      1  0.5328810000000  0.5726180000000  0.4934960000000 1.0
C      1  0.4565640000000  0.5380340000000  0.5580740000000 1.0
C      1  0.4594850000000  0.4200310000000  0.4594420000000 1.0
C      1  0.5424440000000  0.4940920000000  0.4826380000000 1.0
C      1  0.5636010000000  0.4230590000000  0.4975930000000 1.0
C      1  0.4698320000000  0.5555280000000  0.4312310000000 1.0
C      1  0.5742320000000  0.4634410000000  0.5206490000000 1.0
C      1  0.5043980000000  0.4070710000000  0.4585070000000 1.0
C      1  0.4413250000000  0.5658930000000  0.5116240000000 1.0
C      1  0.4560490000000  0.5097850000000  0.4114800000000 1.0
C      1  0.5692710000000  0.4997870000000  0.5556680000000 1.0
C      1  0.4381660000000  0.5296160000000  0.4236910000000 1.0
C      1  0.4355920000000  0.5214740000000  0.4518620000000 1.0
C      1  0.5113090000000  0.5714570000000  0.4322220000000 1.0
C      1  0.4629020000000  0.4335180000000  0.5292040000000 1.0
C      1  0.5624750000000  0.4337040000000  0.4503100000000 1.0
C      1  0.4832330000000  0.5222720000000  0.4161460000000 1.0
C      1  0.5409620000000  0.5831270000000  0.5218340000000 1.0
C      1  0.4592470000000  0.5790490000000  0.5304360000000 1.0
C      1  0.4486050000000  0.4581030000000  0.5371830000000 1.0
C      1  0.4698190000000  0.4838220000000  0.4505560000000 1.0
C      1  0.5556980000000  0.5138400000000  0.4293220000000 1.0
C      1  0.4765860000000  0.4186280000000  0.5499560000000 1.0
C      1  0.5196770000000  0.5036080000000  0.4648470000000 1.0
C      1  0.4906650000000  0.5695080000000  0.5683360000000 1.0
C      1  0.4888410000000  0.4393080000000  0.4254450000000 1.0
C      1  0.4642760000000  0.5657150000000  0.5570760000000 1.0
C      1  0.5486130000000  0.4615390000000  0.4454900000000 1.0
C      1  0.5863930000000  0.5065800000000  0.5027760000000 1.0
C      1  0.4814620000000  0.5324790000000  0.4456980000000 1.0
C      1  0.5170490000000  0.5255480000000  0.5927090000000 1.0
C      1  0.5532740000000  0.5611790000000  0.5378550000000 1.0
C      1  0.4332360000000  0.4604160000000  0.4808430000000 1.0
C      1  0.5745350000000  0.5305230000000  0.4493770000000 1.0
C      1  0.4766850000000  0.5973840000000  0.5146930000000 1.0
C      1  0.5054780000000  0.4091000000000  0.5436460000000 1.0
C      1  0.4245280000000  0.4414890000000  0.5017020000000 1.0
C      1  0.5335530000000  0.4978730000000  0.5112730000000 1.0
C      1  0.4995070000000  0.6091440000000  0.5262560000000 1.0
C      1  0.5465360000000  0.5496690000000  0.5641830000000 1.0
C      1  0.5477970000000  0.4232640000000  0.5226140000000 1.0
C      1  0.4249190000000  0.5020000000000  0.5499420000000 1.0
C      1  0.5089290000000  0.5067050000000  0.4153650000000 1.0
C      1  0.4831740000000  0.5198220000000  0.5371820000000 1.0
C      1  0.4324290000000  0.5296950000000  0.5454220000000 1.0
C      1  0.5748390000000  0.4926320000000  0.4795800000000 1.0
C      1  0.4831790000000  0.4185160000000  0.4445710000000 1.0
C      1  0.5491560000000  0.4168230000000  0.4723310000000 1.0
C      1  0.4657600000000  0.4729760000000  0.4926390000000 1.0
C      1  0.4638130000000  0.5132420000000  0.4599070000000 1.0
C      1  0.4847780000000  0.4487260000000  0.4936240000000 1.0
C      1  0.5623770000000  0.4510130000000  0.5646510000000 1.0
C      1  0.5182640000000  0.4195400000000  0.5162250000000 1.0
C      1  0.4130400000000  0.4868460000000  0.5267760000000 1.0
C      1  0.5121420000000  0.5079820000000  0.5680910000000 1.0
C      1  0.4385720000000  0.4890340000000  0.5725870000000 1.0
C      1  0.4253600000000  0.5435600000000  0.5205940000000 1.0
C      1  0.4980220000000  0.4680210000000  0.4504020000000 1.0
C      1  0.4734150000000  0.4989950000000  0.5847170000000 1.0
C      1  0.5152170000000  0.4546570000000  0.5510180000000 1.0
C      1  0.4945410000000  0.5541820000000  0.5096960000000 1.0
C      1  0.5404540000000  0.4651380000000  0.4754430000000 1.0
C      1  0.5720360000000  0.4506690000000  0.4932030000000 1.0
C      1  0.4254210000000  0.4783730000000  0.4305550000000 1.0
C      1  0.5185250000000  0.5924320000000  0.5379260000000 1.0
C      1  0.4875170000000  0.5723200000000  0.4175520000000 1.0
C      1  0.4529230000000  0.4832810000000  0.4255100000000 1.0
C      1  0.5683310000000  0.5410230000000  0.5245530000000 1.0
C      1  0.5747020000000  0.4921150000000  0.5265250000000 1.0
C      1  0.5038750000000  0.4470810000000  0.5206670000000 1.0
C      1  0.5797200000000  0.5350450000000  0.4993590000000 1.0
C      1  0.4684630000000  0.4235150000000  0.4861320000000 1.0
C      1  0.5222670000000  0.5515960000000  0.5806070000000 1.0
C      1  0.5842270000000  0.5010850000000  0.4528900000000 1.0
C      1  0.5092890000000  0.5873610000000  0.4805440000000 1.0
C      1  0.5070600000000  0.4843140000000  0.5120830000000 1.0
C      1  0.5104070000000  0.4585870000000  0.4242470000000 1.0
C      1  0.5566350000000  0.4479760000000  0.5372770000000 1.0
C      1  0.5262660000000  0.5173840000000  0.4375020000000 1.0
C      1  0.4156430000000  0.5293580000000  0.4970850000000 1.0
C      1  0.5553420000000  0.5689910000000  0.4752340000000 1.0
C      1  0.4813170000000  0.5281510000000  0.5093550000000 1.0
C      1  0.5225890000000  0.5462640000000  0.4378900000000 1.0
C      1  0.5661960000000  0.5431160000000  0.4745860000000 1.0
END
