TITL C-950524-1808-723 8.49006357509417e-07 125000 -120.577733475268 0 0 21 (C1) n - 1
REM
REM in /home/bkarasulu/work/CARBON/AIRSS/Generating-Clusters/EDIP-Nigel-Params/with-SteepDescent/Only-C1/SD-CG/HFTN-CG
REM
REM
REM
REM
REM
REM ./C.cell (11c1c37f851c82e70ff6c80c92926a4b)
REM
REM compiler GCC version 9.2.1 20190827 (Red Hat 9.2.1-1)
REM options -cpp -mtune=generic -march=x86-64 -g -O0 -fpre-include=/usr/include/finclude/math-vector-fortran.h
REM seed -1763779742 892607924 -2102434926 -651890792 -834212757 112108037 -790545742 -714629520 -1490998036 -640192201 -1087675893 758367207 -294213382 323452917 -932242607 451372725 -304404863 1028252947 -276295884 -591684037 1476867341 -2082135608 -1319720614 1622331396 -1632278336 472001181 -2138531416 1939199452 -297189756 495783833 -2144092899 335360980 568403338
REM
CELL 1.54180   50.00000   50.00000   50.00000   90.00000   90.00000   90.00000
LATT -1
SFAC C  
C      1  0.4854420000000  0.4642750000000  0.4754930000000 1.0
C      1  0.5531780000000  0.4886990000000  0.4942070000000 1.0
C      1  0.4870080000000  0.4461230000000  0.5151290000000 1.0
C      1  0.5538000000000  0.5287820000000  0.5200720000000 1.0
C      1  0.5005390000000  0.4873540000000  0.5213540000000 1.0
C      1  0.5498120000000  0.5013960000000  0.5186370000000 1.0
C      1  0.4635010000000  0.5328230000000  0.4508690000000 1.0
C      1  0.5353920000000  0.4721840000000  0.4827430000000 1.0
C      1  0.4530820000000  0.5489550000000  0.4708180000000 1.0
C      1  0.4788600000000  0.5501990000000  0.4811040000000 1.0
C      1  0.4772800000000  0.4923470000000  0.4778460000000 1.0
C      1  0.4808510000000  0.4868450000000  0.5428210000000 1.0
C      1  0.5267160000000  0.4929810000000  0.5314610000000 1.0
C      1  0.4697220000000  0.4464630000000  0.4920410000000 1.0
C      1  0.4695060000000  0.5064340000000  0.4552890000000 1.0
C      1  0.4894970000000  0.5343580000000  0.5024400000000 1.0
C      1  0.5084510000000  0.5469710000000  0.5180820000000 1.0
C      1  0.4919610000000  0.5056960000000  0.4988490000000 1.0
C      1  0.5114390000000  0.4599580000000  0.4893780000000 1.0
C      1  0.4791770000000  0.4596500000000  0.5387180000000 1.0
C      1  0.5347840000000  0.5475060000000  0.5226480000000 1.0
END
