TITL C-950529-3362-629 -5.92535237515184e-07 125000 -311.323745384319 0 0 51 (C1) n - 1
REM
REM in /home/bkarasulu/work/CARBON/AIRSS/Generating-Clusters/EDIP-Nigel-Params/with-SteepDescent/Only-C1/SD-CG/HFTN-CG
REM
REM
REM
REM
REM
REM ./C.cell (11c1c37f851c82e70ff6c80c92926a4b)
REM
REM compiler GCC version 9.2.1 20190827 (Red Hat 9.2.1-1)
REM options -cpp -mtune=generic -march=x86-64 -g -O0 -fpre-include=/usr/include/finclude/math-vector-fortran.h
REM seed 284405907 483976641 1187726845 -801266577 1030293788 1659330493 1418539928 -1685551525 116487374 -818811154 1791061391 -523861526 -842562519 -1559333725 -781925307 2115036421 639398285 99161846 815322321 1623380664 845651240 1998165298 1395514588 -1649645594 -1979821858 1145624938 509243722 1432936383 -1376446990 1592026364 -478241847 -2023065024 1308029497
REM
CELL 1.54180   50.00000   50.00000   50.00000   90.00000   90.00000   90.00000
LATT -1
SFAC C  
C      1  0.4468990000000  0.5091580000000  0.5406440000000 1.0
C      1  0.5225120000000  0.5155740000000  0.5621030000000 1.0
C      1  0.5393540000000  0.5535240000000  0.4737660000000 1.0
C      1  0.4916270000000  0.5561020000000  0.4726300000000 1.0
C      1  0.4845270000000  0.5108860000000  0.4919670000000 1.0
C      1  0.4557690000000  0.4828760000000  0.5461450000000 1.0
C      1  0.5500930000000  0.5027290000000  0.4501910000000 1.0
C      1  0.4746920000000  0.4536170000000  0.5119170000000 1.0
C      1  0.4950200000000  0.5013140000000  0.5377500000000 1.0
C      1  0.5385200000000  0.4899890000000  0.5572890000000 1.0
C      1  0.4480320000000  0.5337490000000  0.4705820000000 1.0
C      1  0.5478040000000  0.5383330000000  0.4960780000000 1.0
C      1  0.4980830000000  0.4610610000000  0.5536360000000 1.0
C      1  0.5636710000000  0.4924170000000  0.5120690000000 1.0
C      1  0.4946470000000  0.5670970000000  0.4980450000000 1.0
C      1  0.4306500000000  0.4890450000000  0.4702990000000 1.0
C      1  0.4242060000000  0.4913480000000  0.4995260000000 1.0
C      1  0.5568860000000  0.4559260000000  0.4781090000000 1.0
C      1  0.5163210000000  0.5554690000000  0.4570350000000 1.0
C      1  0.4931180000000  0.4343290000000  0.5026210000000 1.0
C      1  0.4386510000000  0.5135310000000  0.5124840000000 1.0
C      1  0.5000020000000  0.5478660000000  0.5172500000000 1.0
C      1  0.5115300000000  0.4980180000000  0.4910080000000 1.0
C      1  0.5120910000000  0.5339010000000  0.4378730000000 1.0
C      1  0.5278840000000  0.4801940000000  0.4464590000000 1.0
C      1  0.4344510000000  0.5136200000000  0.4569200000000 1.0
C      1  0.5089320000000  0.4656960000000  0.4860220000000 1.0
C      1  0.4497240000000  0.4551960000000  0.4974040000000 1.0
C      1  0.5269230000000  0.5138170000000  0.4662930000000 1.0
C      1  0.5730860000000  0.5052280000000  0.4657740000000 1.0
C      1  0.4647790000000  0.5284720000000  0.5531310000000 1.0
C      1  0.5312810000000  0.4590710000000  0.4670390000000 1.0
C      1  0.5357100000000  0.5357300000000  0.5455460000000 1.0
C      1  0.4897560000000  0.5165520000000  0.5646980000000 1.0
C      1  0.5235390000000  0.4683790000000  0.5445470000000 1.0
C      1  0.5634740000000  0.5133280000000  0.4911650000000 1.0
C      1  0.5545120000000  0.4659020000000  0.5042890000000 1.0
C      1  0.4892920000000  0.5168000000000  0.4439720000000 1.0
C      1  0.4776190000000  0.5293350000000  0.4694220000000 1.0
C      1  0.5191750000000  0.4340390000000  0.5109750000000 1.0
C      1  0.5224330000000  0.5056470000000  0.5200390000000 1.0
C      1  0.4394280000000  0.5374740000000  0.4974120000000 1.0
C      1  0.5272600000000  0.5354540000000  0.5185470000000 1.0
C      1  0.4802010000000  0.4696870000000  0.4612700000000 1.0
C      1  0.4740580000000  0.4626730000000  0.5394960000000 1.0
C      1  0.4525230000000  0.4683120000000  0.4712130000000 1.0
C      1  0.4276550000000  0.4659570000000  0.5119790000000 1.0
C      1  0.5589140000000  0.4984020000000  0.5393610000000 1.0
C      1  0.5340830000000  0.4549600000000  0.5212250000000 1.0
C      1  0.4973400000000  0.4879720000000  0.4461900000000 1.0
C      1  0.4812640000000  0.5242420000000  0.5185930000000 1.0
END
