TITL C-950522-5749-123 -2.42869441794589e-06 125000 -291.898901129772 0 0 49 (C1) n - 1
REM
REM in /home/bkarasulu/work/CARBON/AIRSS/Generating-Clusters/EDIP-Nigel-Params/with-SteepDescent/Only-C1/SD-CG/HFTN-CG
REM
REM
REM
REM
REM
REM ./C.cell (11c1c37f851c82e70ff6c80c92926a4b)
REM
REM compiler GCC version 9.2.1 20190827 (Red Hat 9.2.1-1)
REM options -cpp -mtune=generic -march=x86-64 -g -O0 -fpre-include=/usr/include/finclude/math-vector-fortran.h
REM seed 204205159 -551619842 1924205669 -19554845 1811948483 -1698613929 -2097288181 -2139111646 -62228310 1391399939 130641569 1424970181 -1376611190 -1930581008 -917870072 -855176848 -299942535 205233869 -1405196340 1720844775 -1370800377 712144603 -1157649521 189478914 -1035738065 -1324011329 -1217125622 -1903626715 -1201659125 -1126459256 585456399 96051656 -822227136
REM
CELL 1.54180   50.00000   50.00000   50.00000   90.00000   90.00000   90.00000
LATT -1
SFAC C  
C      1  0.5307760000000  0.4464490000000  0.4717410000000 1.0
C      1  0.4671910000000  0.4668840000000  0.5265150000000 1.0
C      1  0.4650400000000  0.4629690000000  0.4768310000000 1.0
C      1  0.4322550000000  0.5036000000000  0.5301990000000 1.0
C      1  0.4659020000000  0.5095080000000  0.4986930000000 1.0
C      1  0.4872200000000  0.5104930000000  0.5312950000000 1.0
C      1  0.5139330000000  0.4556810000000  0.5172240000000 1.0
C      1  0.5129390000000  0.4357360000000  0.4945250000000 1.0
C      1  0.4652770000000  0.5072620000000  0.5630650000000 1.0
C      1  0.5010850000000  0.4640810000000  0.5632610000000 1.0
C      1  0.5143640000000  0.5028180000000  0.5237300000000 1.0
C      1  0.4826050000000  0.5300290000000  0.5529050000000 1.0
C      1  0.5212680000000  0.4663960000000  0.4538980000000 1.0
C      1  0.4707630000000  0.5551040000000  0.4949010000000 1.0
C      1  0.5070110000000  0.4811400000000  0.5043650000000 1.0
C      1  0.4743120000000  0.5544020000000  0.5392830000000 1.0
C      1  0.5193280000000  0.4800110000000  0.5747280000000 1.0
C      1  0.5396500000000  0.4989660000000  0.5402180000000 1.0
C      1  0.5604980000000  0.5133480000000  0.5239520000000 1.0
C      1  0.5588670000000  0.5202060000000  0.4752580000000 1.0
C      1  0.4511800000000  0.4445490000000  0.5168630000000 1.0
C      1  0.4758960000000  0.4975710000000  0.4465950000000 1.0
C      1  0.4963590000000  0.5349980000000  0.4353760000000 1.0
C      1  0.4403320000000  0.5198600000000  0.5090990000000 1.0
C      1  0.5208000000000  0.5427980000000  0.4529460000000 1.0
C      1  0.4925380000000  0.4545440000000  0.5384850000000 1.0
C      1  0.4401290000000  0.4710570000000  0.4643070000000 1.0
C      1  0.5552440000000  0.5475230000000  0.4875850000000 1.0
C      1  0.5331980000000  0.5153120000000  0.4597310000000 1.0
C      1  0.5215160000000  0.5255240000000  0.5070630000000 1.0
C      1  0.5190020000000  0.5568120000000  0.5091130000000 1.0
C      1  0.5688810000000  0.4741400000000  0.4920360000000 1.0
C      1  0.4719980000000  0.5266420000000  0.4526130000000 1.0
C      1  0.4478660000000  0.5479500000000  0.5122680000000 1.0
C      1  0.4612120000000  0.4376030000000  0.4912720000000 1.0
C      1  0.4800800000000  0.5293550000000  0.4809660000000 1.0
C      1  0.5389670000000  0.4972900000000  0.5682530000000 1.0
C      1  0.5629360000000  0.5009510000000  0.4970550000000 1.0
C      1  0.5547410000000  0.5425800000000  0.5177170000000 1.0
C      1  0.4763460000000  0.4803830000000  0.5002210000000 1.0
C      1  0.5248080000000  0.4917990000000  0.4416220000000 1.0
C      1  0.5289050000000  0.5612550000000  0.4780760000000 1.0
C      1  0.5097450000000  0.5186500000000  0.4814780000000 1.0
C      1  0.4892770000000  0.5644430000000  0.5153840000000 1.0
C      1  0.5561330000000  0.4531320000000  0.4814820000000 1.0
C      1  0.4865500000000  0.4262210000000  0.4898220000000 1.0
C      1  0.4514450000000  0.4885390000000  0.5444580000000 1.0
C      1  0.4536210000000  0.4808170000000  0.4426570000000 1.0
C      1  0.5000150000000  0.5026190000000  0.4288680000000 1.0
END
