TITL C-951347-9520-224 -9.47476939870502e-05 125000 -608.911483178088 0 0 99 (C1) n - 1
REM
REM in /home/bkarasulu/work/CARBON/AIRSS/Generating-Clusters/EDIP-Nigel-Params/with-SteepDescent/Only-C1/SD-CG/HFTN-CG
REM
REM
REM
REM
REM
REM ./C.cell (11c1c37f851c82e70ff6c80c92926a4b)
REM
REM compiler GCC version 9.2.1 20190827 (Red Hat 9.2.1-1)
REM options -cpp -mtune=generic -march=x86-64 -g -O0 -fpre-include=/usr/include/finclude/math-vector-fortran.h
REM seed 1307810043 393623245 741263379 -261265147 -736418887 -1680315435 -2139630267 -466491534 1127378195 734146767 1495993061 -1892555810 -1126607413 -2029886021 -1612185975 -150022442 1719415668 -1285213704 981078793 1354494130 -1450709053 2094280063 1655220006 862762909 -616279049 -631970574 1813724401 -1324520380 1573420877 1760698109 2030415333 1990568794 1070428284
REM
CELL 1.54180   50.00000   50.00000   50.00000   90.00000   90.00000   90.00000
LATT -1
SFAC C  
C      1  0.4531180000000  0.4984120000000  0.5649270000000 1.0
C      1  0.5305910000000  0.4649460000000  0.5492060000000 1.0
C      1  0.5207270000000  0.5658050000000  0.5370220000000 1.0
C      1  0.4961270000000  0.5682590000000  0.4629360000000 1.0
C      1  0.4912560000000  0.4307390000000  0.5249630000000 1.0
C      1  0.4651420000000  0.4171050000000  0.5186930000000 1.0
C      1  0.5085830000000  0.5459900000000  0.5152070000000 1.0
C      1  0.4612350000000  0.4184540000000  0.4334160000000 1.0
C      1  0.4858540000000  0.4200390000000  0.4472100000000 1.0
C      1  0.4410470000000  0.5600910000000  0.4884940000000 1.0
C      1  0.4791520000000  0.5870320000000  0.5405780000000 1.0
C      1  0.5213700000000  0.5244380000000  0.5536550000000 1.0
C      1  0.5418550000000  0.4968210000000  0.5820520000000 1.0
C      1  0.5836700000000  0.5430460000000  0.5077540000000 1.0
C      1  0.5285360000000  0.5414390000000  0.4343480000000 1.0
C      1  0.5176780000000  0.5534780000000  0.5642300000000 1.0
C      1  0.4476160000000  0.4652340000000  0.4607030000000 1.0
C      1  0.5423710000000  0.5764960000000  0.4441360000000 1.0
C      1  0.4759970000000  0.5030350000000  0.5156370000000 1.0
C      1  0.4836300000000  0.4979890000000  0.4682820000000 1.0
C      1  0.4599440000000  0.4896930000000  0.4216430000000 1.0
C      1  0.5492350000000  0.5689780000000  0.5285310000000 1.0
C      1  0.5527830000000  0.4777150000000  0.5631820000000 1.0
C      1  0.4416460000000  0.4343850000000  0.5198920000000 1.0
C      1  0.5244380000000  0.4982230000000  0.5073210000000 1.0
C      1  0.4777560000000  0.5446550000000  0.4569370000000 1.0
C      1  0.4325770000000  0.5456430000000  0.5105850000000 1.0
C      1  0.5295620000000  0.4482150000000  0.4463990000000 1.0
C      1  0.5119060000000  0.4935790000000  0.5838410000000 1.0
C      1  0.5474060000000  0.4416820000000  0.5218520000000 1.0
C      1  0.4942450000000  0.5146330000000  0.5949490000000 1.0
C      1  0.4717210000000  0.5365030000000  0.4278320000000 1.0
C      1  0.4495120000000  0.4928700000000  0.5035370000000 1.0
C      1  0.4143550000000  0.5076250000000  0.4807010000000 1.0
C      1  0.4781540000000  0.5306410000000  0.5270070000000 1.0
C      1  0.5538750000000  0.4257410000000  0.5569540000000 1.0
C      1  0.4613370000000  0.4429340000000  0.4182470000000 1.0
C      1  0.5292750000000  0.4944830000000  0.4761340000000 1.0
C      1  0.5488550000000  0.5778800000000  0.5002100000000 1.0
C      1  0.5061960000000  0.5911880000000  0.5315980000000 1.0
C      1  0.5063990000000  0.5011310000000  0.4136010000000 1.0
C      1  0.5046640000000  0.4807680000000  0.5559410000000 1.0
C      1  0.4551110000000  0.4919480000000  0.4727490000000 1.0
C      1  0.5683710000000  0.4765260000000  0.4438040000000 1.0
C      1  0.4386930000000  0.5158420000000  0.4611950000000 1.0
C      1  0.4489680000000  0.5652100000000  0.5518660000000 1.0
C      1  0.4872580000000  0.4174270000000  0.4758000000000 1.0
C      1  0.5618210000000  0.4887260000000  0.4693770000000 1.0
C      1  0.4899470000000  0.5477170000000  0.5750240000000 1.0
C      1  0.5803340000000  0.4858780000000  0.5142280000000 1.0
C      1  0.5138180000000  0.5939730000000  0.5029460000000 1.0
C      1  0.5644290000000  0.5214240000000  0.5446430000000 1.0
C      1  0.4638250000000  0.4095640000000  0.4904710000000 1.0
C      1  0.4898440000000  0.4538950000000  0.4156280000000 1.0
C      1  0.4487870000000  0.5411030000000  0.5352200000000 1.0
C      1  0.4560010000000  0.4695380000000  0.5565990000000 1.0
C      1  0.5324610000000  0.5235630000000  0.5222100000000 1.0
C      1  0.5054540000000  0.4365780000000  0.4332050000000 1.0
C      1  0.5128120000000  0.5670610000000  0.4899440000000 1.0
C      1  0.5529650000000  0.4489700000000  0.4945010000000 1.0
C      1  0.5480490000000  0.5216750000000  0.5685970000000 1.0
C      1  0.5231890000000  0.5219010000000  0.4598200000000 1.0
C      1  0.5269940000000  0.4378840000000  0.5608900000000 1.0
C      1  0.5296210000000  0.4984020000000  0.4298130000000 1.0
C      1  0.4171640000000  0.5054020000000  0.5306350000000 1.0
C      1  0.4321530000000  0.4311950000000  0.4923970000000 1.0
C      1  0.4437260000000  0.4621200000000  0.5302560000000 1.0
C      1  0.5686970000000  0.5466530000000  0.5320410000000 1.0
C      1  0.4732290000000  0.5719480000000  0.5650730000000 1.0
C      1  0.4357780000000  0.5172320000000  0.5499700000000 1.0
C      1  0.5319650000000  0.4420070000000  0.4758910000000 1.0
C      1  0.4147930000000  0.4782840000000  0.4920040000000 1.0
C      1  0.5139210000000  0.5703470000000  0.4395000000000 1.0
C      1  0.5002060000000  0.4849040000000  0.5205870000000 1.0
C      1  0.4515850000000  0.5416620000000  0.4707280000000 1.0
C      1  0.5763710000000  0.5145580000000  0.4726890000000 1.0
C      1  0.4185840000000  0.4769840000000  0.5226340000000 1.0
C      1  0.5566520000000  0.5507320000000  0.4424790000000 1.0
C      1  0.4894440000000  0.4816980000000  0.4278570000000 1.0
C      1  0.5625990000000  0.5399900000000  0.4684470000000 1.0
C      1  0.4252960000000  0.4545850000000  0.4761330000000 1.0
C      1  0.4951750000000  0.4569730000000  0.5084390000000 1.0
C      1  0.4674670000000  0.5102880000000  0.5867870000000 1.0
C      1  0.4886470000000  0.5216480000000  0.5537630000000 1.0
C      1  0.5707690000000  0.4711750000000  0.4909790000000 1.0
C      1  0.5853290000000  0.5135500000000  0.5004450000000 1.0
C      1  0.4456320000000  0.4654700000000  0.4311890000000 1.0
C      1  0.4967660000000  0.4337200000000  0.5551410000000 1.0
C      1  0.4933880000000  0.5259120000000  0.4129710000000 1.0
C      1  0.5721630000000  0.4418690000000  0.5386640000000 1.0
C      1  0.4492680000000  0.5162610000000  0.4308410000000 1.0
C      1  0.5082020000000  0.4313460000000  0.4918270000000 1.0
C      1  0.5431480000000  0.4721440000000  0.4327470000000 1.0
C      1  0.4838600000000  0.4599730000000  0.5633350000000 1.0
C      1  0.5043470000000  0.4797880000000  0.4636320000000 1.0
C      1  0.4163610000000  0.5219970000000  0.5065460000000 1.0
C      1  0.4947000000000  0.5239690000000  0.4677510000000 1.0
C      1  0.5817900000000  0.4702340000000  0.5395820000000 1.0
C      1  0.5706790000000  0.5605590000000  0.4871620000000 1.0
END
