TITL C-950530-3293-364 -2.70571612982446e-05 125000 -113.552625224016 0 0 21 (C1) n - 1
REM
REM in /home/bkarasulu/work/CARBON/AIRSS/Generating-Clusters/EDIP-Nigel-Params/with-SteepDescent/Only-C1/SD-CG/HFTN-CG
REM
REM
REM
REM
REM
REM ./C.cell (11c1c37f851c82e70ff6c80c92926a4b)
REM
REM compiler GCC version 9.2.1 20190827 (Red Hat 9.2.1-1)
REM options -cpp -mtune=generic -march=x86-64 -g -O0 -fpre-include=/usr/include/finclude/math-vector-fortran.h
REM seed 46520872 -812917549 -2077461810 1464838280 159996554 -1704450303 -445978786 669925115 -738034198 1277933869 -1012569250 -1219578066 984965452 -36843847 -1655090076 -1823275292 2009502056 439036217 -1912662624 224786928 -1859253249 291099025 -577150662 754965990 1320261579 -1446282231 -1109170422 755966785 -1558117863 -998891367 -398146420 1006318093 -1210579920
REM
CELL 1.54180   50.00000   50.00000   50.00000   90.00000   90.00000   90.00000
LATT -1
SFAC C  
C      1  0.5047340000000  0.5490820000000  0.5432350000000 1.0
C      1  0.4312030000000  0.5492370000000  0.4580080000000 1.0
C      1  0.5198680000000  0.4460670000000  0.5085320000000 1.0
C      1  0.5159910000000  0.5027750000000  0.5161370000000 1.0
C      1  0.4505680000000  0.5333050000000  0.4630110000000 1.0
C      1  0.5293700000000  0.4855660000000  0.4397610000000 1.0
C      1  0.4946700000000  0.4585940000000  0.5005050000000 1.0
C      1  0.4711930000000  0.5172380000000  0.4668560000000 1.0
C      1  0.5104500000000  0.5271230000000  0.5277770000000 1.0
C      1  0.4890870000000  0.5703330000000  0.5328850000000 1.0
C      1  0.5104540000000  0.4935220000000  0.4550510000000 1.0
C      1  0.5355030000000  0.4646110000000  0.5269110000000 1.0
C      1  0.4932430000000  0.4891980000000  0.5014460000000 1.0
C      1  0.5431980000000  0.4521670000000  0.4907980000000 1.0
C      1  0.4564680000000  0.4703810000000  0.5193830000000 1.0
C      1  0.4707120000000  0.4485300000000  0.5115480000000 1.0
C      1  0.4680730000000  0.4947190000000  0.5153720000000 1.0
C      1  0.4912570000000  0.4998030000000  0.4735650000000 1.0
C      1  0.5560870000000  0.4741470000000  0.5059230000000 1.0
C      1  0.5424240000000  0.4991000000000  0.5065860000000 1.0
C      1  0.5154460000000  0.5745030000000  0.5367080000000 1.0
END
