TITL C-950532-2784-307 -3.09619537248571e-06 125000 -790.326670149837 0 0 127 (C1) n - 1
REM
REM in /home/bkarasulu/work/CARBON/AIRSS/Generating-Clusters/EDIP-Nigel-Params/with-SteepDescent/Only-C1/SD-CG/HFTN-CG
REM
REM
REM
REM
REM
REM ./C.cell (11c1c37f851c82e70ff6c80c92926a4b)
REM
REM compiler GCC version 9.2.1 20190827 (Red Hat 9.2.1-1)
REM options -cpp -mtune=generic -march=x86-64 -g -O0 -fpre-include=/usr/include/finclude/math-vector-fortran.h
REM seed -45668202 828242884 288302206 1185778267 1684628830 400103023 -754768770 1334129742 474065006 -1641277838 1713884289 167623769 123077551 951755256 1822438943 1234045703 -854965713 -315619050 -630373513 1476634759 -1192524610 301081894 -193114898 -498424150 -675031549 1032218330 -2039865670 227862581 -2118470450 -904809705 21086481 -672652097 1616636306
REM
CELL 1.54180   50.00000   50.00000   50.00000   90.00000   90.00000   90.00000
LATT -1
SFAC C  
C      1  0.5180670000000  0.4911140000000  0.4013480000000 1.0
C      1  0.4590560000000  0.4375070000000  0.4094740000000 1.0
C      1  0.5193850000000  0.5523330000000  0.4389860000000 1.0
C      1  0.4888020000000  0.6017740000000  0.5041830000000 1.0
C      1  0.4449750000000  0.4871730000000  0.4128230000000 1.0
C      1  0.4474900000000  0.5290200000000  0.4395380000000 1.0
C      1  0.4931960000000  0.5268570000000  0.4747960000000 1.0
C      1  0.4754230000000  0.5392180000000  0.5328190000000 1.0
C      1  0.4751620000000  0.4908100000000  0.4131500000000 1.0
C      1  0.4532380000000  0.5112370000000  0.5745250000000 1.0
C      1  0.5576690000000  0.4952310000000  0.4848570000000 1.0
C      1  0.5740230000000  0.5235800000000  0.5654270000000 1.0
C      1  0.4057200000000  0.5427820000000  0.5028450000000 1.0
C      1  0.4861640000000  0.4972170000000  0.4882770000000 1.0
C      1  0.5497060000000  0.5244030000000  0.5853730000000 1.0
C      1  0.4832480000000  0.5182610000000  0.4067640000000 1.0
C      1  0.4223310000000  0.5265400000000  0.4838810000000 1.0
C      1  0.5037960000000  0.4665690000000  0.4528390000000 1.0
C      1  0.4583270000000  0.4266430000000  0.4387580000000 1.0
C      1  0.5208930000000  0.4181700000000  0.5537830000000 1.0
C      1  0.5105430000000  0.5185000000000  0.3989990000000 1.0
C      1  0.4676890000000  0.5382850000000  0.5024060000000 1.0
C      1  0.5914910000000  0.5117010000000  0.4932640000000 1.0
C      1  0.5288910000000  0.5025920000000  0.4354640000000 1.0
C      1  0.4374310000000  0.4418600000000  0.4940890000000 1.0
C      1  0.5950830000000  0.4600830000000  0.4721190000000 1.0
C      1  0.5664600000000  0.5131090000000  0.5373860000000 1.0
C      1  0.5576090000000  0.5125750000000  0.4377330000000 1.0
C      1  0.5934850000000  0.5408320000000  0.5023050000000 1.0
C      1  0.5534890000000  0.4588110000000  0.4453850000000 1.0
C      1  0.5300060000000  0.4989320000000  0.5872520000000 1.0
C      1  0.4854620000000  0.4107410000000  0.5285710000000 1.0
C      1  0.5387280000000  0.4160550000000  0.5311680000000 1.0
C      1  0.5311510000000  0.4778070000000  0.4543540000000 1.0
C      1  0.4861430000000  0.4839900000000  0.4384910000000 1.0
C      1  0.5379640000000  0.5055650000000  0.5406290000000 1.0
C      1  0.5749520000000  0.5004840000000  0.4596010000000 1.0
C      1  0.5221060000000  0.5292810000000  0.5493250000000 1.0
C      1  0.4359990000000  0.4689260000000  0.5666180000000 1.0
C      1  0.4989740000000  0.4529280000000  0.5031800000000 1.0
C      1  0.5673990000000  0.5362070000000  0.4265490000000 1.0
C      1  0.4965820000000  0.5716310000000  0.4369140000000 1.0
C      1  0.4202610000000  0.5563200000000  0.5421650000000 1.0
C      1  0.5011240000000  0.5084640000000  0.5891360000000 1.0
C      1  0.5456630000000  0.4652650000000  0.4885660000000 1.0
C      1  0.4988500000000  0.4115490000000  0.5030820000000 1.0
C      1  0.5102770000000  0.5843290000000  0.4989430000000 1.0
C      1  0.4527450000000  0.5659860000000  0.5021830000000 1.0
C      1  0.4268260000000  0.4971730000000  0.5674260000000 1.0
C      1  0.4144850000000  0.4759660000000  0.5220440000000 1.0
C      1  0.5978590000000  0.5444000000000  0.5303440000000 1.0
C      1  0.5139210000000  0.5562930000000  0.5074330000000 1.0
C      1  0.4808970000000  0.4196000000000  0.4812140000000 1.0
C      1  0.5765130000000  0.4264760000000  0.4963650000000 1.0
C      1  0.5782510000000  0.4684020000000  0.5178990000000 1.0
C      1  0.5055450000000  0.5256990000000  0.4437590000000 1.0
C      1  0.5502430000000  0.4343030000000  0.4858200000000 1.0
C      1  0.4968230000000  0.5010500000000  0.5159460000000 1.0
C      1  0.5201230000000  0.5383090000000  0.4852250000000 1.0
C      1  0.5043100000000  0.4386320000000  0.4414180000000 1.0
C      1  0.4434370000000  0.4333600000000  0.5371000000000 1.0
C      1  0.5026810000000  0.5384470000000  0.5909170000000 1.0
C      1  0.4231060000000  0.4534090000000  0.4715480000000 1.0
C      1  0.5767250000000  0.5514300000000  0.4467690000000 1.0
C      1  0.5343360000000  0.5700850000000  0.5618780000000 1.0
C      1  0.4701710000000  0.5867130000000  0.5183040000000 1.0
C      1  0.4261200000000  0.4550590000000  0.5425290000000 1.0
C      1  0.4850400000000  0.4183170000000  0.4516760000000 1.0
C      1  0.5351340000000  0.4843700000000  0.5615840000000 1.0
C      1  0.5827670000000  0.5506140000000  0.5540710000000 1.0
C      1  0.4075230000000  0.5023980000000  0.4727440000000 1.0
C      1  0.5619410000000  0.5607540000000  0.4682590000000 1.0
C      1  0.5699250000000  0.4529850000000  0.5414280000000 1.0
C      1  0.4783250000000  0.5655280000000  0.4591940000000 1.0
C      1  0.5321940000000  0.5597720000000  0.4653150000000 1.0
C      1  0.4836450000000  0.4479770000000  0.3992880000000 1.0
C      1  0.5493240000000  0.4306720000000  0.4560400000000 1.0
C      1  0.4648300000000  0.4671930000000  0.5730270000000 1.0
C      1  0.4729390000000  0.5355110000000  0.4271400000000 1.0
C      1  0.4867640000000  0.4829000000000  0.5378240000000 1.0
C      1  0.5396920000000  0.4408190000000  0.5778560000000 1.0
C      1  0.4571590000000  0.4919680000000  0.4891930000000 1.0
C      1  0.4659380000000  0.5110190000000  0.5458160000000 1.0
C      1  0.5800540000000  0.4719500000000  0.4519540000000 1.0
C      1  0.5026370000000  0.5953830000000  0.4525350000000 1.0
C      1  0.5646810000000  0.4256970000000  0.5371070000000 1.0
C      1  0.4523510000000  0.5662020000000  0.4717260000000 1.0
C      1  0.4794570000000  0.4415440000000  0.5683070000000 1.0
C      1  0.5846460000000  0.4968580000000  0.5191370000000 1.0
C      1  0.4750700000000  0.4598810000000  0.5222550000000 1.0
C      1  0.4681530000000  0.4240290000000  0.5470010000000 1.0
C      1  0.4454130000000  0.5499330000000  0.5546160000000 1.0
C      1  0.5104100000000  0.5831490000000  0.5501540000000 1.0
C      1  0.4236630000000  0.5651980000000  0.5132090000000 1.0
C      1  0.5259810000000  0.4663730000000  0.5121000000000 1.0
C      1  0.4944980000000  0.4699230000000  0.4797680000000 1.0
C      1  0.5126120000000  0.4687030000000  0.5499500000000 1.0
C      1  0.5271270000000  0.4228850000000  0.5048730000000 1.0
C      1  0.5602280000000  0.5688360000000  0.5455140000000 1.0
C      1  0.5240540000000  0.4197520000000  0.4481380000000 1.0
C      1  0.5281190000000  0.5428440000000  0.5745010000000 1.0
C      1  0.5898600000000  0.4510520000000  0.4977390000000 1.0
C      1  0.4090390000000  0.4998060000000  0.4449120000000 1.0
C      1  0.4320690000000  0.5064240000000  0.4306800000000 1.0
C      1  0.5250110000000  0.4971850000000  0.5151540000000 1.0
C      1  0.4026540000000  0.5314810000000  0.5324750000000 1.0
C      1  0.4654750000000  0.5664360000000  0.5658380000000 1.0
C      1  0.4172580000000  0.5037170000000  0.5384190000000 1.0
C      1  0.4805600000000  0.5547640000000  0.5861140000000 1.0
C      1  0.4927030000000  0.4744350000000  0.3953140000000 1.0
C      1  0.5214680000000  0.5868060000000  0.4724470000000 1.0
C      1  0.4808910000000  0.5810880000000  0.5459360000000 1.0
C      1  0.5053840000000  0.5481590000000  0.5341560000000 1.0
C      1  0.4465930000000  0.5166150000000  0.5000690000000 1.0
C      1  0.5718960000000  0.5592630000000  0.4957860000000 1.0
C      1  0.5556400000000  0.4625850000000  0.5654260000000 1.0
C      1  0.4541600000000  0.4204410000000  0.4879130000000 1.0
C      1  0.4430830000000  0.5089830000000  0.5276360000000 1.0
C      1  0.4357970000000  0.5437620000000  0.4620000000000 1.0
C      1  0.4367300000000  0.4591760000000  0.4183850000000 1.0
C      1  0.4116840000000  0.4772370000000  0.4876540000000 1.0
C      1  0.5365110000000  0.5142080000000  0.4934660000000 1.0
C      1  0.5628090000000  0.5751810000000  0.5177150000000 1.0
C      1  0.4411490000000  0.4509040000000  0.4476890000000 1.0
C      1  0.4745410000000  0.4929910000000  0.5856110000000 1.0
C      1  0.4492080000000  0.4677250000000  0.5073120000000 1.0
C      1  0.5099300000000  0.4435880000000  0.5665950000000 1.0
END
