TITL C-950530-3293-49 -1.23851390852208e-07 125000 -171.217600174462 0 0 29 (C1) n - 1
REM
REM in /home/bkarasulu/work/CARBON/AIRSS/Generating-Clusters/EDIP-Nigel-Params/with-SteepDescent/Only-C1/SD-CG/HFTN-CG
REM
REM
REM
REM
REM
REM ./C.cell (11c1c37f851c82e70ff6c80c92926a4b)
REM
REM compiler GCC version 9.2.1 20190827 (Red Hat 9.2.1-1)
REM options -cpp -mtune=generic -march=x86-64 -g -O0 -fpre-include=/usr/include/finclude/math-vector-fortran.h
REM seed 518735020 7759098 495918707 345264119 269096657 -480511005 1764212596 1166357505 -303597519 -1949569219 1372526859 630282797 463758134 -83117163 -984002352 -935126211 1238954805 1627357590 -1094223515 2111252163 -68565701 -1989773651 -1598580884 -2036964184 1710757902 612762731 1761791718 241531957 278962499 1763219792 1942132049 -1586330702 -1479488545
REM
CELL 1.54180   50.00000   50.00000   50.00000   90.00000   90.00000   90.00000
LATT -1
SFAC C  
C      1  0.5208320000000  0.5037600000000  0.5527570000000 1.0
C      1  0.5021660000000  0.4714760000000  0.4580920000000 1.0
C      1  0.5083840000000  0.5277550000000  0.5553150000000 1.0
C      1  0.4946860000000  0.4987300000000  0.4683330000000 1.0
C      1  0.4913930000000  0.4288540000000  0.5310430000000 1.0
C      1  0.4579370000000  0.5513640000000  0.5186270000000 1.0
C      1  0.4317950000000  0.5117300000000  0.5086360000000 1.0
C      1  0.5573020000000  0.5077360000000  0.4618610000000 1.0
C      1  0.5140940000000  0.5445150000000  0.4830530000000 1.0
C      1  0.5372400000000  0.4960580000000  0.4795720000000 1.0
C      1  0.4503500000000  0.5245250000000  0.5248370000000 1.0
C      1  0.5193570000000  0.4626260000000  0.5242280000000 1.0
C      1  0.4526390000000  0.4962760000000  0.4989660000000 1.0
C      1  0.5098700000000  0.5240090000000  0.4600660000000 1.0
C      1  0.4873150000000  0.5630060000000  0.5220280000000 1.0
C      1  0.5342690000000  0.5068860000000  0.5076030000000 1.0
C      1  0.4656930000000  0.5557110000000  0.4908290000000 1.0
C      1  0.5069450000000  0.5421160000000  0.5313370000000 1.0
C      1  0.5356570000000  0.5179290000000  0.4477430000000 1.0
C      1  0.4848490000000  0.4491350000000  0.4632490000000 1.0
C      1  0.4932210000000  0.5653730000000  0.4885550000000 1.0
C      1  0.4805230000000  0.4238600000000  0.5067770000000 1.0
C      1  0.5173530000000  0.5299380000000  0.5080070000000 1.0
C      1  0.5087780000000  0.4454180000000  0.5436560000000 1.0
C      1  0.5272350000000  0.4687400000000  0.4733550000000 1.0
C      1  0.4942950000000  0.4391190000000  0.4877840000000 1.0
C      1  0.5180080000000  0.4530520000000  0.4965100000000 1.0
C      1  0.4682080000000  0.5010720000000  0.4768400000000 1.0
C      1  0.5296070000000  0.4892320000000  0.5303430000000 1.0
END
