TITL C-950532-2784-442 -2.16144443569023e-06 125000 -971.676074362854 0 0 157 (C1) n - 1
REM
REM in /home/bkarasulu/work/CARBON/AIRSS/Generating-Clusters/EDIP-Nigel-Params/with-SteepDescent/Only-C1/SD-CG/HFTN-CG
REM
REM
REM
REM
REM
REM ./C.cell (11c1c37f851c82e70ff6c80c92926a4b)
REM
REM compiler GCC version 9.2.1 20190827 (Red Hat 9.2.1-1)
REM options -cpp -mtune=generic -march=x86-64 -g -O0 -fpre-include=/usr/include/finclude/math-vector-fortran.h
REM seed 140810061 1515727914 1911815714 -1299318714 1509736742 318521217 114867447 1375496614 -1021187343 440815375 -585904643 1739072273 858983174 -1893094495 908330721 -568449266 25035907 1523110746 -822287022 1975181984 834599496 -1151648717 -570206706 -864532688 963979497 -844341337 -587928380 1228466540 610137459 -1641837173 -1943228963 -862745068 757602476
REM
CELL 1.54180   50.00000   50.00000   50.00000   90.00000   90.00000   90.00000
LATT -1
SFAC C  
C      1  0.5439320000000  0.4993830000000  0.4906090000000 1.0
C      1  0.4577470000000  0.4277070000000  0.4249660000000 1.0
C      1  0.5117400000000  0.5319490000000  0.5488050000000 1.0
C      1  0.4945950000000  0.4980960000000  0.5840810000000 1.0
C      1  0.5395370000000  0.4876960000000  0.4627650000000 1.0
C      1  0.5626130000000  0.5211610000000  0.4834620000000 1.0
C      1  0.4852350000000  0.5146400000000  0.5107720000000 1.0
C      1  0.5392630000000  0.5251840000000  0.5914040000000 1.0
C      1  0.5367070000000  0.4421520000000  0.5845050000000 1.0
C      1  0.5865940000000  0.5230650000000  0.4532040000000 1.0
C      1  0.5071500000000  0.4137030000000  0.4579460000000 1.0
C      1  0.5160610000000  0.4535780000000  0.6021320000000 1.0
C      1  0.4670880000000  0.5554950000000  0.5896170000000 1.0
C      1  0.5225290000000  0.4636800000000  0.4677970000000 1.0
C      1  0.5540150000000  0.5039930000000  0.4144880000000 1.0
C      1  0.5385450000000  0.4865710000000  0.5185120000000 1.0
C      1  0.4655700000000  0.5861590000000  0.4421090000000 1.0
C      1  0.3969470000000  0.4887520000000  0.4779010000000 1.0
C      1  0.5664340000000  0.4977030000000  0.5496730000000 1.0
C      1  0.5180880000000  0.5413700000000  0.4994720000000 1.0
C      1  0.5158400000000  0.4387950000000  0.5032470000000 1.0
C      1  0.6004010000000  0.5329190000000  0.5446200000000 1.0
C      1  0.4475860000000  0.5724250000000  0.5041910000000 1.0
C      1  0.5629680000000  0.4837150000000  0.5856200000000 1.0
C      1  0.4890530000000  0.5278120000000  0.3920170000000 1.0
C      1  0.5538790000000  0.5787680000000  0.4669170000000 1.0
C      1  0.5469300000000  0.4544270000000  0.4087840000000 1.0
C      1  0.4402930000000  0.4292940000000  0.4746100000000 1.0
C      1  0.4414530000000  0.5156190000000  0.4671450000000 1.0
C      1  0.5253010000000  0.5370970000000  0.4659420000000 1.0
C      1  0.5529550000000  0.5501980000000  0.4587010000000 1.0
C      1  0.4335200000000  0.5368360000000  0.5545360000000 1.0
C      1  0.5089110000000  0.4825450000000  0.5359430000000 1.0
C      1  0.4917010000000  0.4404660000000  0.5928470000000 1.0
C      1  0.5060660000000  0.5043810000000  0.5572500000000 1.0
C      1  0.5887890000000  0.4935140000000  0.4612650000000 1.0
C      1  0.5160160000000  0.4834010000000  0.5997380000000 1.0
C      1  0.5679370000000  0.5785290000000  0.5136050000000 1.0
C      1  0.4582030000000  0.4578060000000  0.4195020000000 1.0
C      1  0.5189450000000  0.5329390000000  0.3938040000000 1.0
C      1  0.5225200000000  0.4381900000000  0.4456780000000 1.0
C      1  0.5766630000000  0.5777160000000  0.4849970000000 1.0
C      1  0.4540950000000  0.4922800000000  0.5510150000000 1.0
C      1  0.4545360000000  0.4892520000000  0.4652220000000 1.0
C      1  0.5813870000000  0.4948480000000  0.5137970000000 1.0
C      1  0.5019970000000  0.4524620000000  0.5485670000000 1.0
C      1  0.5331490000000  0.5067560000000  0.3933240000000 1.0
C      1  0.5154370000000  0.5626020000000  0.5605720000000 1.0
C      1  0.4156870000000  0.4228670000000  0.4887020000000 1.0
C      1  0.4794520000000  0.4527850000000  0.4656920000000 1.0
C      1  0.4381040000000  0.4193080000000  0.5584710000000 1.0
C      1  0.4509610000000  0.5606790000000  0.5666650000000 1.0
C      1  0.5239430000000  0.4094520000000  0.4938600000000 1.0
C      1  0.5442180000000  0.4576870000000  0.5055240000000 1.0
C      1  0.5529950000000  0.4406530000000  0.4775590000000 1.0
C      1  0.5298830000000  0.5909150000000  0.4759660000000 1.0
C      1  0.4873480000000  0.5841920000000  0.4239490000000 1.0
C      1  0.5174780000000  0.4284170000000  0.5658380000000 1.0
C      1  0.4384630000000  0.4646550000000  0.4766040000000 1.0
C      1  0.4391960000000  0.4200320000000  0.5306000000000 1.0
C      1  0.5065150000000  0.6181520000000  0.4968430000000 1.0
C      1  0.4638270000000  0.4154550000000  0.4876150000000 1.0
C      1  0.5021150000000  0.5550170000000  0.4568960000000 1.0
C      1  0.4838480000000  0.4967900000000  0.4686030000000 1.0
C      1  0.4861880000000  0.4854800000000  0.5143910000000 1.0
C      1  0.5394480000000  0.5833410000000  0.5215520000000 1.0
C      1  0.4927430000000  0.6154410000000  0.4723120000000 1.0
C      1  0.4630070000000  0.5374370000000  0.4692360000000 1.0
C      1  0.4049080000000  0.5101140000000  0.5207310000000 1.0
C      1  0.5259690000000  0.5420250000000  0.4215460000000 1.0
C      1  0.4450660000000  0.4755910000000  0.6030600000000 1.0
C      1  0.4664720000000  0.5314290000000  0.5225990000000 1.0
C      1  0.5087360000000  0.5665380000000  0.4308470000000 1.0
C      1  0.4571900000000  0.5213460000000  0.5472770000000 1.0
C      1  0.5632710000000  0.4774110000000  0.4201470000000 1.0
C      1  0.5421420000000  0.4975340000000  0.5997340000000 1.0
C      1  0.4340090000000  0.4731520000000  0.5063350000000 1.0
C      1  0.4483140000000  0.5039470000000  0.6059410000000 1.0
C      1  0.5113850000000  0.4866370000000  0.3940590000000 1.0
C      1  0.5542450000000  0.4122760000000  0.4887460000000 1.0
C      1  0.4721730000000  0.5465900000000  0.4063270000000 1.0
C      1  0.5165980000000  0.6009890000000  0.5169560000000 1.0
C      1  0.4343320000000  0.5216320000000  0.4288100000000 1.0
C      1  0.4459720000000  0.5470300000000  0.4188390000000 1.0
C      1  0.5267840000000  0.5238310000000  0.5236610000000 1.0
C      1  0.4048200000000  0.4570830000000  0.5259430000000 1.0
C      1  0.5181910000000  0.4593040000000  0.4027740000000 1.0
C      1  0.4517510000000  0.5935060000000  0.4868030000000 1.0
C      1  0.4888030000000  0.4278030000000  0.4775000000000 1.0
C      1  0.4224600000000  0.5550020000000  0.4667050000000 1.0
C      1  0.4617500000000  0.4068090000000  0.5161140000000 1.0
C      1  0.5739810000000  0.4485200000000  0.4591580000000 1.0
C      1  0.5787590000000  0.5375480000000  0.5028210000000 1.0
C      1  0.4160110000000  0.4973200000000  0.4973740000000 1.0
C      1  0.5562150000000  0.5254150000000  0.5321630000000 1.0
C      1  0.5601100000000  0.5508350000000  0.5506910000000 1.0
C      1  0.4321240000000  0.4713070000000  0.4270760000000 1.0
C      1  0.4945470000000  0.4385360000000  0.5244080000000 1.0
C      1  0.4957230000000  0.4716680000000  0.4816140000000 1.0
C      1  0.4860450000000  0.4195980000000  0.4263730000000 1.0
C      1  0.4744760000000  0.5140910000000  0.6125780000000 1.0
C      1  0.4184370000000  0.4331490000000  0.5150620000000 1.0
C      1  0.4302770000000  0.4644730000000  0.5804500000000 1.0
C      1  0.5915700000000  0.5523590000000  0.4780030000000 1.0
C      1  0.5842450000000  0.5169970000000  0.5661370000000 1.0
C      1  0.5691760000000  0.4486040000000  0.5510600000000 1.0
C      1  0.4829270000000  0.4655090000000  0.4370890000000 1.0
C      1  0.5203290000000  0.5667850000000  0.5891150000000 1.0
C      1  0.5333810000000  0.4116920000000  0.5448990000000 1.0
C      1  0.5713240000000  0.4214790000000  0.5123190000000 1.0
C      1  0.5638020000000  0.5371420000000  0.5787450000000 1.0
C      1  0.4680820000000  0.6018610000000  0.4662260000000 1.0
C      1  0.5476220000000  0.4318830000000  0.4279200000000 1.0
C      1  0.4709990000000  0.4813080000000  0.5754060000000 1.0
C      1  0.5009950000000  0.5671100000000  0.5066380000000 1.0
C      1  0.5541690000000  0.4609890000000  0.5714460000000 1.0
C      1  0.4409310000000  0.4216950000000  0.4466930000000 1.0
C      1  0.4854200000000  0.4997480000000  0.3975480000000 1.0
C      1  0.4068850000000  0.4846020000000  0.5388240000000 1.0
C      1  0.5031520000000  0.5784300000000  0.4778890000000 1.0
C      1  0.5874830000000  0.4639630000000  0.5352610000000 1.0
C      1  0.4593660000000  0.4879560000000  0.3961620000000 1.0
C      1  0.5236310000000  0.5112620000000  0.4452310000000 1.0
C      1  0.4275200000000  0.5525480000000  0.4977570000000 1.0
C      1  0.4935640000000  0.5799560000000  0.5546720000000 1.0
C      1  0.4256650000000  0.4890820000000  0.5619530000000 1.0
C      1  0.4357220000000  0.4957700000000  0.4122510000000 1.0
C      1  0.4876220000000  0.5224600000000  0.4837830000000 1.0
C      1  0.4858640000000  0.5371440000000  0.6003320000000 1.0
C      1  0.4074230000000  0.4632760000000  0.4378650000000 1.0
C      1  0.5864250000000  0.5608290000000  0.5397280000000 1.0
C      1  0.4805410000000  0.5340140000000  0.4418000000000 1.0
C      1  0.4204100000000  0.5170480000000  0.5739340000000 1.0
C      1  0.4781810000000  0.4526610000000  0.5698000000000 1.0
C      1  0.4587670000000  0.4779390000000  0.5246260000000 1.0
C      1  0.4480480000000  0.4438830000000  0.5670760000000 1.0
C      1  0.4704850000000  0.5612290000000  0.5194940000000 1.0
C      1  0.5978280000000  0.5201130000000  0.5177200000000 1.0
C      1  0.5672540000000  0.4762440000000  0.4500430000000 1.0
C      1  0.5154970000000  0.3993080000000  0.5231180000000 1.0
C      1  0.4264520000000  0.5206320000000  0.6008830000000 1.0
C      1  0.4680820000000  0.5738670000000  0.5463460000000 1.0
C      1  0.5710040000000  0.5255240000000  0.4265310000000 1.0
C      1  0.5921840000000  0.4827210000000  0.4885790000000 1.0
C      1  0.4878400000000  0.4106480000000  0.5311000000000 1.0
C      1  0.4466090000000  0.5629550000000  0.4444050000000 1.0
C      1  0.5823190000000  0.4512450000000  0.5085280000000 1.0
C      1  0.5397020000000  0.5716950000000  0.5474730000000 1.0
C      1  0.4103280000000  0.4674490000000  0.4653590000000 1.0
C      1  0.4151970000000  0.5283990000000  0.4530610000000 1.0
C      1  0.5558110000000  0.4280770000000  0.5356670000000 1.0
C      1  0.4180210000000  0.5372700000000  0.5248600000000 1.0
C      1  0.5736450000000  0.4295400000000  0.4387690000000 1.0
C      1  0.5543420000000  0.5485080000000  0.4285890000000 1.0
C      1  0.5021540000000  0.4455690000000  0.4250100000000 1.0
C      1  0.4939970000000  0.5027620000000  0.4406580000000 1.0
C      1  0.5156220000000  0.5418370000000  0.5998470000000 1.0
END
