TITL C-951333-8791-540 -7.54648067962182e-08 125000 -203.193382519711 0 0 34 (C1) n - 1
REM
REM in /home/bkarasulu/work/CARBON/AIRSS/Generating-Clusters/EDIP-Nigel-Params/with-SteepDescent/Only-C1/SD-CG/HFTN-CG
REM
REM
REM
REM
REM
REM ./C.cell (11c1c37f851c82e70ff6c80c92926a4b)
REM
REM compiler GCC version 9.2.1 20190827 (Red Hat 9.2.1-1)
REM options -cpp -mtune=generic -march=x86-64 -g -O0 -fpre-include=/usr/include/finclude/math-vector-fortran.h
REM seed -1926432555 989877959 -1936884610 -641825562 -263479752 107784130 849953089 1856103352 501555599 -1524211135 1652075795 -589680129 255103962 118038413 -1953638342 -932312779 -934135177 1877976082 -45027638 1069179886 389848484 -1472409419 -1268888880 851816711 1085319278 -749954243 -514914912 785388421 1743467689 174563602 -580034002 188054539 -947371369
REM
CELL 1.54180   50.00000   50.00000   50.00000   90.00000   90.00000   90.00000
LATT -1
SFAC C  
C      1  0.5264370000000  0.4536860000000  0.5352320000000 1.0
C      1  0.4536430000000  0.5499920000000  0.5045180000000 1.0
C      1  0.5254130000000  0.5232330000000  0.5424950000000 1.0
C      1  0.5341720000000  0.5667140000000  0.5090380000000 1.0
C      1  0.5363630000000  0.5108000000000  0.4325990000000 1.0
C      1  0.5445810000000  0.5432060000000  0.5454220000000 1.0
C      1  0.5386150000000  0.4750130000000  0.5466510000000 1.0
C      1  0.4889580000000  0.5136190000000  0.4521820000000 1.0
C      1  0.4472290000000  0.4976540000000  0.4738630000000 1.0
C      1  0.4640890000000  0.5188290000000  0.4658780000000 1.0
C      1  0.5334300000000  0.4973500000000  0.5306970000000 1.0
C      1  0.4960180000000  0.4477270000000  0.4985260000000 1.0
C      1  0.4966250000000  0.4878200000000  0.4415230000000 1.0
C      1  0.5097900000000  0.5534630000000  0.5056130000000 1.0
C      1  0.4549170000000  0.5378280000000  0.5295870000000 1.0
C      1  0.4584800000000  0.4790040000000  0.4923780000000 1.0
C      1  0.4676670000000  0.4930670000000  0.5171050000000 1.0
C      1  0.4967400000000  0.5522570000000  0.4786840000000 1.0
C      1  0.5085220000000  0.5339990000000  0.4581270000000 1.0
C      1  0.4789160000000  0.4610450000000  0.4808460000000 1.0
C      1  0.4793230000000  0.5419090000000  0.5427930000000 1.0
C      1  0.5223510000000  0.4877310000000  0.4306040000000 1.0
C      1  0.5332360000000  0.5349180000000  0.4446950000000 1.0
C      1  0.5034540000000  0.4122540000000  0.5295050000000 1.0
C      1  0.4484510000000  0.5106680000000  0.5280760000000 1.0
C      1  0.5168430000000  0.4906330000000  0.5087740000000 1.0
C      1  0.5201270000000  0.3904870000000  0.5368370000000 1.0
C      1  0.4681910000000  0.5435560000000  0.4812910000000 1.0
C      1  0.4938530000000  0.5061550000000  0.5126680000000 1.0
C      1  0.5012420000000  0.5320140000000  0.5263130000000 1.0
C      1  0.5511970000000  0.5641540000000  0.5297780000000 1.0
C      1  0.5030490000000  0.3871700000000  0.5162310000000 1.0
C      1  0.5128890000000  0.4367200000000  0.5177460000000 1.0
C      1  0.4851890000000  0.4653270000000  0.4537270000000 1.0
END
