TITL C-951342-2639-453 -1.87201778203716e-07 125000 -900.397600805393 0 0 142 (C1) n - 1
REM
REM in /home/bkarasulu/work/CARBON/AIRSS/Generating-Clusters/EDIP-Nigel-Params/with-SteepDescent/Only-C1/SD-CG/HFTN-CG
REM
REM
REM
REM
REM
REM ./C.cell (11c1c37f851c82e70ff6c80c92926a4b)
REM
REM compiler GCC version 9.2.1 20190827 (Red Hat 9.2.1-1)
REM options -cpp -mtune=generic -march=x86-64 -g -O0 -fpre-include=/usr/include/finclude/math-vector-fortran.h
REM seed 1246668604 30662162 824645117 1450051464 590839465 8060360 397881621 -2059212251 -264999486 -678867181 1835981484 379355869 1608762095 -41983434 1781803047 2013384312 -1480874565 1939219718 -531131735 -467452958 1836678928 -1810839137 1657640793 -1009687412 1446163972 -1928527045 1052603905 -103333798 -880298290 -88100121 1636439238 -158757134 -462503586
REM
CELL 1.54180   50.00000   50.00000   50.00000   90.00000   90.00000   90.00000
LATT -1
SFAC C  
C      1  0.5153250000000  0.4960290000000  0.5178810000000 1.0
C      1  0.4563380000000  0.4997600000000  0.5894090000000 1.0
C      1  0.4592610000000  0.5821170000000  0.5410010000000 1.0
C      1  0.5972710000000  0.5131840000000  0.4980140000000 1.0
C      1  0.5105460000000  0.5137640000000  0.4945390000000 1.0
C      1  0.5231280000000  0.4612920000000  0.5974650000000 1.0
C      1  0.5195120000000  0.4678920000000  0.5119500000000 1.0
C      1  0.4983010000000  0.4087860000000  0.4728970000000 1.0
C      1  0.3946290000000  0.4516200000000  0.4994620000000 1.0
C      1  0.5021100000000  0.4430380000000  0.5889460000000 1.0
C      1  0.5478740000000  0.4667410000000  0.5229530000000 1.0
C      1  0.4931420000000  0.4749400000000  0.5517540000000 1.0
C      1  0.5518880000000  0.4368560000000  0.5337050000000 1.0
C      1  0.4212590000000  0.5517800000000  0.5306880000000 1.0
C      1  0.5221470000000  0.5308580000000  0.4167790000000 1.0
C      1  0.4981740000000  0.4544540000000  0.5289930000000 1.0
C      1  0.5824250000000  0.4909420000000  0.4830940000000 1.0
C      1  0.4436710000000  0.5673710000000  0.5194290000000 1.0
C      1  0.5221530000000  0.5701120000000  0.4468730000000 1.0
C      1  0.4527180000000  0.4241620000000  0.4748930000000 1.0
C      1  0.5628040000000  0.4655990000000  0.4165590000000 1.0
C      1  0.4247840000000  0.4958070000000  0.5526270000000 1.0
C      1  0.4375550000000  0.5483720000000  0.4607010000000 1.0
C      1  0.5467930000000  0.4669410000000  0.4716130000000 1.0
C      1  0.4968180000000  0.5210880000000  0.5555810000000 1.0
C      1  0.4788710000000  0.4573710000000  0.5734290000000 1.0
C      1  0.4814120000000  0.4356460000000  0.4330100000000 1.0
C      1  0.5389710000000  0.4791880000000  0.4027720000000 1.0
C      1  0.4890080000000  0.4050970000000  0.5009130000000 1.0
C      1  0.5065780000000  0.5425730000000  0.5365080000000 1.0
C      1  0.5141810000000  0.4880920000000  0.5978330000000 1.0
C      1  0.4977800000000  0.4264010000000  0.5441300000000 1.0
C      1  0.5800220000000  0.4863130000000  0.4315740000000 1.0
C      1  0.5692250000000  0.4741580000000  0.5830360000000 1.0
C      1  0.6028910000000  0.5599160000000  0.5062360000000 1.0
C      1  0.4683710000000  0.4999140000000  0.5142090000000 1.0
C      1  0.5625000000000  0.5377570000000  0.4452550000000 1.0
C      1  0.4765770000000  0.4209420000000  0.4578040000000 1.0
C      1  0.5371510000000  0.4173000000000  0.5152250000000 1.0
C      1  0.4599170000000  0.4742370000000  0.5016580000000 1.0
C      1  0.5306400000000  0.5794070000000  0.4720200000000 1.0
C      1  0.5419800000000  0.5086680000000  0.4106910000000 1.0
C      1  0.5856850000000  0.4444680000000  0.5023310000000 1.0
C      1  0.4628960000000  0.4559630000000  0.4230470000000 1.0
C      1  0.4189510000000  0.5257190000000  0.4365490000000 1.0
C      1  0.4349200000000  0.4640520000000  0.4278640000000 1.0
C      1  0.4498460000000  0.5221400000000  0.4712180000000 1.0
C      1  0.5095360000000  0.5924820000000  0.5368990000000 1.0
C      1  0.4385920000000  0.5136840000000  0.5725630000000 1.0
C      1  0.4758510000000  0.5212500000000  0.4567450000000 1.0
C      1  0.4404110000000  0.4945910000000  0.4596500000000 1.0
C      1  0.5970620000000  0.5410210000000  0.4857890000000 1.0
C      1  0.4588600000000  0.4725060000000  0.4707070000000 1.0
C      1  0.5687620000000  0.5451450000000  0.4751600000000 1.0
C      1  0.5092150000000  0.4094820000000  0.5219950000000 1.0
C      1  0.5395770000000  0.5023090000000  0.5362690000000 1.0
C      1  0.5432870000000  0.4348040000000  0.5628130000000 1.0
C      1  0.4750060000000  0.4508670000000  0.5104950000000 1.0
C      1  0.5762910000000  0.4461050000000  0.4572790000000 1.0
C      1  0.4338570000000  0.4682050000000  0.5598950000000 1.0
C      1  0.4246720000000  0.5246130000000  0.5187000000000 1.0
C      1  0.4992520000000  0.5381060000000  0.5887690000000 1.0
C      1  0.4602850000000  0.5696400000000  0.4546130000000 1.0
C      1  0.4092110000000  0.4307590000000  0.5109130000000 1.0
C      1  0.5277530000000  0.5343940000000  0.5938070000000 1.0
C      1  0.5531990000000  0.5792330000000  0.5111290000000 1.0
C      1  0.5447990000000  0.5311070000000  0.5189010000000 1.0
C      1  0.5565920000000  0.4438090000000  0.4358110000000 1.0
C      1  0.5314060000000  0.4289260000000  0.4399110000000 1.0
C      1  0.4175740000000  0.5536460000000  0.5580630000000 1.0
C      1  0.5564890000000  0.5723590000000  0.4828410000000 1.0
C      1  0.4899080000000  0.5032980000000  0.4759040000000 1.0
C      1  0.5591840000000  0.5565450000000  0.5302390000000 1.0
C      1  0.4836250000000  0.5659370000000  0.4160480000000 1.0
C      1  0.4817670000000  0.5955470000000  0.5259440000000 1.0
C      1  0.5127010000000  0.4860770000000  0.4419840000000 1.0
C      1  0.5262210000000  0.4150670000000  0.4656400000000 1.0
C      1  0.4327430000000  0.4934990000000  0.4215260000000 1.0
C      1  0.5369950000000  0.5492800000000  0.4339260000000 1.0
C      1  0.5283640000000  0.5962570000000  0.5138360000000 1.0
C      1  0.4933150000000  0.5378330000000  0.4084720000000 1.0
C      1  0.4175570000000  0.5591140000000  0.4794460000000 1.0
C      1  0.5630800000000  0.5015520000000  0.5933040000000 1.0
C      1  0.4576080000000  0.4997900000000  0.4068740000000 1.0
C      1  0.5733120000000  0.4280360000000  0.4814470000000 1.0
C      1  0.5817220000000  0.4351850000000  0.5300250000000 1.0
C      1  0.4930290000000  0.5620350000000  0.5739950000000 1.0
C      1  0.4311830000000  0.4671030000000  0.5071420000000 1.0
C      1  0.4956320000000  0.5759580000000  0.4396830000000 1.0
C      1  0.3937320000000  0.5016210000000  0.5103880000000 1.0
C      1  0.4623380000000  0.4231290000000  0.5037300000000 1.0
C      1  0.4728480000000  0.4755140000000  0.4039730000000 1.0
C      1  0.4585170000000  0.5901330000000  0.4780320000000 1.0
C      1  0.5670730000000  0.4687450000000  0.4982160000000 1.0
C      1  0.5923630000000  0.5200070000000  0.5275470000000 1.0
C      1  0.5937810000000  0.4539710000000  0.5466480000000 1.0
C      1  0.4028240000000  0.5322600000000  0.4873740000000 1.0
C      1  0.5388560000000  0.4939590000000  0.4559380000000 1.0
C      1  0.4057430000000  0.4787600000000  0.4947310000000 1.0
C      1  0.5449910000000  0.5619810000000  0.5566590000000 1.0
C      1  0.5812450000000  0.5052300000000  0.5503910000000 1.0
C      1  0.4452070000000  0.4452630000000  0.5429150000000 1.0
C      1  0.4001640000000  0.4993790000000  0.5386680000000 1.0
C      1  0.5586670000000  0.5076300000000  0.4358550000000 1.0
C      1  0.4694940000000  0.5233530000000  0.4220530000000 1.0
C      1  0.5147930000000  0.4687970000000  0.4176140000000 1.0
C      1  0.4548230000000  0.5670030000000  0.4240380000000 1.0
C      1  0.5890040000000  0.4749390000000  0.4578680000000 1.0
C      1  0.4341590000000  0.5809460000000  0.4940610000000 1.0
C      1  0.4783720000000  0.4998250000000  0.5420220000000 1.0
C      1  0.5156870000000  0.4261020000000  0.5680240000000 1.0
C      1  0.5869080000000  0.4777140000000  0.5598480000000 1.0
C      1  0.4349850000000  0.4259210000000  0.5223950000000 1.0
C      1  0.4859150000000  0.5566390000000  0.4961740000000 1.0
C      1  0.4654140000000  0.5618150000000  0.5625960000000 1.0
C      1  0.5460020000000  0.4177200000000  0.4873180000000 1.0
C      1  0.4372420000000  0.4493640000000  0.4726870000000 1.0
C      1  0.4965750000000  0.4759090000000  0.4648040000000 1.0
C      1  0.5100150000000  0.5424060000000  0.5064440000000 1.0
C      1  0.5183540000000  0.4989780000000  0.5615450000000 1.0
C      1  0.4536980000000  0.4727340000000  0.5817300000000 1.0
C      1  0.4106140000000  0.4871780000000  0.4657380000000 1.0
C      1  0.5093390000000  0.4392750000000  0.4237390000000 1.0
C      1  0.5146670000000  0.5669800000000  0.5522350000000 1.0
C      1  0.5469410000000  0.5382160000000  0.5722280000000 1.0
C      1  0.5708750000000  0.5212780000000  0.5728150000000 1.0
C      1  0.4411470000000  0.5437590000000  0.5695640000000 1.0
C      1  0.4684640000000  0.4339770000000  0.5569580000000 1.0
C      1  0.5891750000000  0.5493750000000  0.5287820000000 1.0
C      1  0.5549200000000  0.5244800000000  0.4913090000000 1.0
C      1  0.5332320000000  0.5141480000000  0.4767560000000 1.0
C      1  0.4997030000000  0.4780000000000  0.3955910000000 1.0
C      1  0.4844890000000  0.5867560000000  0.4961270000000 1.0
C      1  0.4518700000000  0.5220330000000  0.5034510000000 1.0
C      1  0.5131690000000  0.5964150000000  0.4882170000000 1.0
C      1  0.5347190000000  0.5074180000000  0.6019060000000 1.0
C      1  0.4196750000000  0.4531740000000  0.4494570000000 1.0
C      1  0.4439900000000  0.5401930000000  0.4182690000000 1.0
C      1  0.4018470000000  0.5160110000000  0.4617020000000 1.0
C      1  0.4636380000000  0.5470290000000  0.5111000000000 1.0
C      1  0.5450910000000  0.4583890000000  0.5789860000000 1.0
C      1  0.5181640000000  0.4621870000000  0.4825150000000 1.0
END
