TITL C-951334-9093-684 -0.119185476373704 125000 -57.5293730527972 0 0 11 (C1) n - 1
REM
REM in /home/bkarasulu/work/CARBON/AIRSS/Generating-Clusters/EDIP-Nigel-Params/with-SteepDescent/Only-C1/SD-CG/HFTN-CG
REM
REM
REM
REM
REM
REM ./C.cell (11c1c37f851c82e70ff6c80c92926a4b)
REM
REM compiler GCC version 9.2.1 20190827 (Red Hat 9.2.1-1)
REM options -cpp -mtune=generic -march=x86-64 -g -O0 -fpre-include=/usr/include/finclude/math-vector-fortran.h
REM seed 192470711 103411251 1403712813 1887949072 1736173333 -1220504737 13650042 -1460387554 -2119394561 -1913544742 -1143349417 -184038412 -922428757 614739314 -1534590358 -71172102 -302954084 1719966956 -286639737 -1933935094 -182346365 1482758582 1145849891 1615049640 -1107295546 148691764 840127000 141323276 1892282408 1990363890 -508953152 -2047712251 1420077130
REM
CELL 1.54180   50.00000   50.00000   50.00000   90.00000   90.00000   90.00000
LATT -1
SFAC C  
C      1  0.5040110000000  0.4919920000000  0.4966630000000 1.0
C      1  0.4871820000000  0.4472700000000  0.5046730000000 1.0
C      1  0.5041480000000  0.5159550000000  0.4855220000000 1.0
C      1  0.4949770000000  0.4545700000000  0.5313410000000 1.0
C      1  0.5051490000000  0.5644760000000  0.4626690000000 1.0
C      1  0.4830090000000  0.5767860000000  0.4499400000000 1.0
C      1  0.5056720000000  0.4352000000000  0.5478270000000 1.0
C      1  0.4921070000000  0.5874450000000  0.4729690000000 1.0
C      1  0.5082750000000  0.4666580000000  0.5067200000000 1.0
C      1  0.5024280000000  0.5401450000000  0.4750050000000 1.0
C      1  0.5130440000000  0.4195030000000  0.5666690000000 1.0
END
