TITL C-951338-5626-289 -1.00701601310402e-06 125000 -465.997349888832 0 0 76 (C1) n - 1
REM
REM in /home/bkarasulu/work/CARBON/AIRSS/Generating-Clusters/EDIP-Nigel-Params/with-SteepDescent/Only-C1/SD-CG/HFTN-CG
REM
REM
REM
REM
REM
REM ./C.cell (11c1c37f851c82e70ff6c80c92926a4b)
REM
REM compiler GCC version 9.2.1 20190827 (Red Hat 9.2.1-1)
REM options -cpp -mtune=generic -march=x86-64 -g -O0 -fpre-include=/usr/include/finclude/math-vector-fortran.h
REM seed 1617144605 1248093766 14304537 -817485154 -1988844979 1940687830 1702742163 -1105675937 1204630983 -769878747 -1586020152 -401091287 785164319 -1882142828 -33073620 -1169672715 -402090431 -1817484749 -834468931 1918033168 1368677017 761938371 -1843205564 -2105986318 623731512 2050503144 2082286156 -146980675 -1894945403 1751553004 2007531357 548195718 64584946
REM
CELL 1.54180   50.00000   50.00000   50.00000   90.00000   90.00000   90.00000
LATT -1
SFAC C  
C      1  0.5328950000000  0.4970470000000  0.4287020000000 1.0
C      1  0.4661930000000  0.5133130000000  0.5721040000000 1.0
C      1  0.5353940000000  0.5235060000000  0.5775070000000 1.0
C      1  0.4844660000000  0.5488940000000  0.5329040000000 1.0
C      1  0.4423330000000  0.5032120000000  0.4666980000000 1.0
C      1  0.5238080000000  0.5254760000000  0.4276540000000 1.0
C      1  0.5756680000000  0.5215590000000  0.5269410000000 1.0
C      1  0.4726900000000  0.4590450000000  0.4561020000000 1.0
C      1  0.4505490000000  0.5522070000000  0.4826220000000 1.0
C      1  0.4269740000000  0.4971470000000  0.5273610000000 1.0
C      1  0.5270830000000  0.5435460000000  0.5583370000000 1.0
C      1  0.5632730000000  0.4726460000000  0.5401820000000 1.0
C      1  0.4424380000000  0.5264730000000  0.5632010000000 1.0
C      1  0.5473970000000  0.4325460000000  0.5112380000000 1.0
C      1  0.4947550000000  0.4427180000000  0.5578950000000 1.0
C      1  0.5366180000000  0.5607030000000  0.4777100000000 1.0
C      1  0.5055040000000  0.4925200000000  0.5438440000000 1.0
C      1  0.4435880000000  0.4621440000000  0.5264360000000 1.0
C      1  0.5534160000000  0.4710880000000  0.4658860000000 1.0
C      1  0.5396620000000  0.5659520000000  0.4505000000000 1.0
C      1  0.5467530000000  0.5408180000000  0.4395190000000 1.0
C      1  0.5102690000000  0.4485360000000  0.4843790000000 1.0
C      1  0.5390680000000  0.4460900000000  0.4580290000000 1.0
C      1  0.5091290000000  0.5537560000000  0.5162080000000 1.0
C      1  0.4653370000000  0.5702060000000  0.5290190000000 1.0
C      1  0.4313530000000  0.4780670000000  0.4775210000000 1.0
C      1  0.4962150000000  0.5864910000000  0.4807310000000 1.0
C      1  0.5061800000000  0.4757720000000  0.5192790000000 1.0
C      1  0.4739620000000  0.5582090000000  0.4651210000000 1.0
C      1  0.4868040000000  0.4944380000000  0.4336270000000 1.0
C      1  0.5594920000000  0.4589580000000  0.5146770000000 1.0
C      1  0.5242890000000  0.5180300000000  0.4945530000000 1.0
C      1  0.4881180000000  0.4376900000000  0.4443640000000 1.0
C      1  0.5134330000000  0.4508960000000  0.4403710000000 1.0
C      1  0.5015610000000  0.4436580000000  0.5287220000000 1.0
C      1  0.4969180000000  0.4218520000000  0.4879910000000 1.0
C      1  0.4767440000000  0.4981410000000  0.5479510000000 1.0
C      1  0.4620620000000  0.4710310000000  0.5481410000000 1.0
C      1  0.5330250000000  0.4395960000000  0.5598460000000 1.0
C      1  0.4395350000000  0.5258030000000  0.4838560000000 1.0
C      1  0.4508960000000  0.5334640000000  0.4306780000000 1.0
C      1  0.5654360000000  0.4739200000000  0.4914450000000 1.0
C      1  0.4754620000000  0.5438000000000  0.4387240000000 1.0
C      1  0.5142560000000  0.4919940000000  0.4683500000000 1.0
C      1  0.4604600000000  0.4879110000000  0.4250490000000 1.0
C      1  0.4815270000000  0.4830870000000  0.5011570000000 1.0
C      1  0.5234270000000  0.4887780000000  0.5670010000000 1.0
C      1  0.5349590000000  0.4252990000000  0.4839820000000 1.0
C      1  0.4703960000000  0.4518410000000  0.5665620000000 1.0
C      1  0.4194870000000  0.4821000000000  0.5040920000000 1.0
C      1  0.5486210000000  0.5350460000000  0.4861540000000 1.0
C      1  0.4881550000000  0.5300460000000  0.5828910000000 1.0
C      1  0.5293690000000  0.4865450000000  0.4989400000000 1.0
C      1  0.4492480000000  0.4533050000000  0.4753220000000 1.0
C      1  0.5532700000000  0.4949810000000  0.4495720000000 1.0
C      1  0.4771250000000  0.5869170000000  0.4609750000000 1.0
C      1  0.5747180000000  0.4980060000000  0.5394590000000 1.0
C      1  0.4810730000000  0.4293130000000  0.5110220000000 1.0
C      1  0.5609290000000  0.5224360000000  0.4590960000000 1.0
C      1  0.4698230000000  0.5212000000000  0.5259340000000 1.0
C      1  0.5278940000000  0.4273700000000  0.5328770000000 1.0
C      1  0.4977900000000  0.5478350000000  0.5608830000000 1.0
C      1  0.4509260000000  0.5664340000000  0.5065000000000 1.0
C      1  0.5106110000000  0.5634310000000  0.4889840000000 1.0
C      1  0.4960640000000  0.5223160000000  0.4423200000000 1.0
C      1  0.4734760000000  0.5116770000000  0.4962690000000 1.0
C      1  0.4973310000000  0.5229560000000  0.4778680000000 1.0
C      1  0.5326230000000  0.5433690000000  0.5296680000000 1.0
C      1  0.5102660000000  0.4776460000000  0.4274210000000 1.0
C      1  0.4446420000000  0.5072480000000  0.4380820000000 1.0
C      1  0.4409520000000  0.5214170000000  0.5351940000000 1.0
C      1  0.5576980000000  0.5388690000000  0.5151620000000 1.0
C      1  0.5120080000000  0.5152660000000  0.5921700000000 1.0
C      1  0.4923140000000  0.4715330000000  0.4759170000000 1.0
C      1  0.5445380000000  0.4665110000000  0.5622810000000 1.0
C      1  0.4572800000000  0.4463540000000  0.5042700000000 1.0
END
