TITL C-950534-5965-25 8.62194275461806e-07 125000 -1159.65933074153 0 0 186 (C1) n - 1
REM
REM in /home/bkarasulu/work/CARBON/AIRSS/Generating-Clusters/EDIP-Nigel-Params/with-SteepDescent/Only-C1/SD-CG/HFTN-CG
REM
REM
REM
REM
REM
REM ./C.cell (11c1c37f851c82e70ff6c80c92926a4b)
REM
REM compiler GCC version 9.2.1 20190827 (Red Hat 9.2.1-1)
REM options -cpp -mtune=generic -march=x86-64 -g -O0 -fpre-include=/usr/include/finclude/math-vector-fortran.h
REM seed 1399925914 -1579885804 -1624676371 -104860751 15466606 1245159736 -10535222 -170893853 -424498180 -1245532757 -1676938143 -594743278 -1109702013 -1990198237 1310795512 -2032104989 -1546107344 -152540306 -2064615552 -1844009651 -1899089478 -300537395 -1410792506 -434886619 -1075237139 1671648835 1072748850 -70249095 1065478923 1319747919 49467751 2074846406 -1314368149
REM
CELL 1.54180   50.00000   50.00000   50.00000   90.00000   90.00000   90.00000
LATT -1
SFAC C  
C      1  0.4383700000000  0.5933310000000  0.4638310000000 1.0
C      1  0.3897880000000  0.5112770000000  0.4263730000000 1.0
C      1  0.4423480000000  0.5305840000000  0.4752150000000 1.0
C      1  0.4845220000000  0.4271990000000  0.4187830000000 1.0
C      1  0.4782570000000  0.4473070000000  0.6012440000000 1.0
C      1  0.5352290000000  0.4622170000000  0.5528770000000 1.0
C      1  0.5862610000000  0.5088090000000  0.4396690000000 1.0
C      1  0.4796470000000  0.5627810000000  0.5051770000000 1.0
C      1  0.5208060000000  0.5046250000000  0.4996740000000 1.0
C      1  0.4432490000000  0.4544990000000  0.5672190000000 1.0
C      1  0.5233250000000  0.4774880000000  0.5981330000000 1.0
C      1  0.4535680000000  0.5865680000000  0.4882260000000 1.0
C      1  0.5435610000000  0.4332190000000  0.5209250000000 1.0
C      1  0.4132360000000  0.4410090000000  0.4908280000000 1.0
C      1  0.4411340000000  0.5956050000000  0.5337410000000 1.0
C      1  0.4504980000000  0.4038780000000  0.5107660000000 1.0
C      1  0.5860870000000  0.4792790000000  0.4376080000000 1.0
C      1  0.5225320000000  0.4124490000000  0.4638830000000 1.0
C      1  0.4413090000000  0.5149260000000  0.5862290000000 1.0
C      1  0.5792280000000  0.4261940000000  0.4493540000000 1.0
C      1  0.5364250000000  0.5681040000000  0.5046820000000 1.0
C      1  0.5221080000000  0.4510640000000  0.4663590000000 1.0
C      1  0.5429410000000  0.4579090000000  0.6080480000000 1.0
C      1  0.4540870000000  0.5753280000000  0.4215590000000 1.0
C      1  0.5362380000000  0.6133660000000  0.4900440000000 1.0
C      1  0.5840170000000  0.4350670000000  0.4970230000000 1.0
C      1  0.5125040000000  0.5243640000000  0.4148460000000 1.0
C      1  0.4362800000000  0.4893220000000  0.6018620000000 1.0
C      1  0.4020430000000  0.5597260000000  0.4845570000000 1.0
C      1  0.5807780000000  0.5079210000000  0.5792970000000 1.0
C      1  0.5795830000000  0.4799850000000  0.5657630000000 1.0
C      1  0.4623750000000  0.5853880000000  0.5484160000000 1.0
C      1  0.4371220000000  0.4684620000000  0.5408300000000 1.0
C      1  0.4703580000000  0.4631140000000  0.5774550000000 1.0
C      1  0.5123240000000  0.4215730000000  0.4153270000000 1.0
C      1  0.3943570000000  0.5180580000000  0.5277900000000 1.0
C      1  0.5521850000000  0.6085060000000  0.4675270000000 1.0
C      1  0.5359440000000  0.4302070000000  0.6028870000000 1.0
C      1  0.4064730000000  0.5128010000000  0.5010750000000 1.0
C      1  0.4888380000000  0.5837510000000  0.4624010000000 1.0
C      1  0.6158620000000  0.4842630000000  0.5047990000000 1.0
C      1  0.4136610000000  0.4360360000000  0.5200600000000 1.0
C      1  0.5163740000000  0.5823360000000  0.5544580000000 1.0
C      1  0.4143430000000  0.4690600000000  0.4862860000000 1.0
C      1  0.4727950000000  0.3975830000000  0.4698190000000 1.0
C      1  0.6116010000000  0.5387180000000  0.4732280000000 1.0
C      1  0.5423190000000  0.5970300000000  0.5140680000000 1.0
C      1  0.5195620000000  0.4647020000000  0.4101100000000 1.0
C      1  0.4560760000000  0.5094840000000  0.3929180000000 1.0
C      1  0.3950390000000  0.5480410000000  0.5324010000000 1.0
C      1  0.5960850000000  0.5274250000000  0.5634550000000 1.0
C      1  0.5036080000000  0.4726040000000  0.3884160000000 1.0
C      1  0.4739220000000  0.5352710000000  0.4390320000000 1.0
C      1  0.4744920000000  0.5292250000000  0.3855480000000 1.0
C      1  0.5041490000000  0.5665150000000  0.4859380000000 1.0
C      1  0.5323200000000  0.5060550000000  0.6006920000000 1.0
C      1  0.4487630000000  0.4809910000000  0.4984030000000 1.0
C      1  0.5067660000000  0.6105320000000  0.4914710000000 1.0
C      1  0.5443070000000  0.5227350000000  0.4555840000000 1.0
C      1  0.4000550000000  0.4764940000000  0.4377040000000 1.0
C      1  0.4797720000000  0.4036480000000  0.5141150000000 1.0
C      1  0.6232990000000  0.5441570000000  0.5244880000000 1.0
C      1  0.5363640000000  0.5783850000000  0.5745800000000 1.0
C      1  0.5217770000000  0.6042870000000  0.5349000000000 1.0
C      1  0.3903710000000  0.5057500000000  0.4766220000000 1.0
C      1  0.5656760000000  0.4763260000000  0.5187900000000 1.0
C      1  0.4758800000000  0.5300240000000  0.5070870000000 1.0
C      1  0.6068930000000  0.5462760000000  0.5012690000000 1.0
C      1  0.5912090000000  0.4412540000000  0.4695530000000 1.0
C      1  0.5388140000000  0.5505620000000  0.5327010000000 1.0
C      1  0.5175620000000  0.4751080000000  0.5089010000000 1.0
C      1  0.5700740000000  0.5941000000000  0.4534840000000 1.0
C      1  0.5590760000000  0.4359190000000  0.4325050000000 1.0
C      1  0.5452090000000  0.5675590000000  0.4172380000000 1.0
C      1  0.4275230000000  0.4365860000000  0.4450550000000 1.0
C      1  0.5943750000000  0.5201300000000  0.5345170000000 1.0
C      1  0.4528870000000  0.5972370000000  0.4397330000000 1.0
C      1  0.5311900000000  0.4961880000000  0.4650590000000 1.0
C      1  0.6025130000000  0.4717160000000  0.5480750000000 1.0
C      1  0.4892980000000  0.6122640000000  0.4692390000000 1.0
C      1  0.5268620000000  0.5666970000000  0.4385980000000 1.0
C      1  0.5620000000000  0.5593660000000  0.4875580000000 1.0
C      1  0.4319880000000  0.5190220000000  0.4045530000000 1.0
C      1  0.5303290000000  0.3997050000000  0.5638320000000 1.0
C      1  0.4472720000000  0.4811340000000  0.4376660000000 1.0
C      1  0.4859560000000  0.3976830000000  0.5427520000000 1.0
C      1  0.5131610000000  0.4763600000000  0.5692380000000 1.0
C      1  0.4322220000000  0.5135430000000  0.4521340000000 1.0
C      1  0.5072020000000  0.5222310000000  0.5985300000000 1.0
C      1  0.5656210000000  0.4114030000000  0.4979540000000 1.0
C      1  0.4383950000000  0.4234110000000  0.5287190000000 1.0
C      1  0.4464610000000  0.4045770000000  0.4815860000000 1.0
C      1  0.4387060000000  0.5779680000000  0.5119540000000 1.0
C      1  0.5859690000000  0.5650700000000  0.5048230000000 1.0
C      1  0.4392990000000  0.4982780000000  0.5421650000000 1.0
C      1  0.4856310000000  0.5807920000000  0.5305710000000 1.0
C      1  0.5620350000000  0.4654710000000  0.4282850000000 1.0
C      1  0.5564190000000  0.4820670000000  0.5461890000000 1.0
C      1  0.4012500000000  0.4805800000000  0.5661450000000 1.0
C      1  0.4371760000000  0.5478180000000  0.5191750000000 1.0
C      1  0.5180800000000  0.4180830000000  0.5842290000000 1.0
C      1  0.5512190000000  0.5649880000000  0.5555690000000 1.0
C      1  0.4978440000000  0.5322050000000  0.5699550000000 1.0
C      1  0.4208580000000  0.5379160000000  0.4940800000000 1.0
C      1  0.3945110000000  0.4781010000000  0.4678010000000 1.0
C      1  0.4868870000000  0.5032560000000  0.5642200000000 1.0
C      1  0.4548830000000  0.5629650000000  0.5639180000000 1.0
C      1  0.5438880000000  0.4801010000000  0.4112230000000 1.0
C      1  0.5008460000000  0.5194870000000  0.5215410000000 1.0
C      1  0.5007030000000  0.5786530000000  0.4353910000000 1.0
C      1  0.4940950000000  0.3829610000000  0.4972230000000 1.0
C      1  0.5518420000000  0.5167240000000  0.5782600000000 1.0
C      1  0.4997550000000  0.4560080000000  0.4901610000000 1.0
C      1  0.5136150000000  0.4370890000000  0.5311150000000 1.0
C      1  0.4569350000000  0.4627860000000  0.5203200000000 1.0
C      1  0.4814010000000  0.5598520000000  0.4213290000000 1.0
C      1  0.4614720000000  0.5318520000000  0.6006450000000 1.0
C      1  0.6074230000000  0.5585750000000  0.5440950000000 1.0
C      1  0.5978370000000  0.4688570000000  0.4622670000000 1.0
C      1  0.4600780000000  0.5548890000000  0.4663680000000 1.0
C      1  0.5380770000000  0.4032510000000  0.4901390000000 1.0
C      1  0.4906050000000  0.5076650000000  0.4283280000000 1.0
C      1  0.4489220000000  0.5102110000000  0.5137870000000 1.0
C      1  0.5567910000000  0.5251460000000  0.5291130000000 1.0
C      1  0.4250950000000  0.4616690000000  0.4315730000000 1.0
C      1  0.4625730000000  0.4610160000000  0.4551660000000 1.0
C      1  0.4468940000000  0.4257460000000  0.5571420000000 1.0
C      1  0.5149680000000  0.3941660000000  0.5397030000000 1.0
C      1  0.4812040000000  0.5113690000000  0.6113090000000 1.0
C      1  0.4705650000000  0.4416500000000  0.3997850000000 1.0
C      1  0.5414200000000  0.5099960000000  0.4108830000000 1.0
C      1  0.5199870000000  0.5392350000000  0.4461790000000 1.0
C      1  0.4106960000000  0.5056850000000  0.5512270000000 1.0
C      1  0.4020080000000  0.5185850000000  0.4518380000000 1.0
C      1  0.5450240000000  0.4620560000000  0.5048250000000 1.0
C      1  0.4917280000000  0.4193540000000  0.4658460000000 1.0
C      1  0.5078060000000  0.4614820000000  0.4409820000000 1.0
C      1  0.5918690000000  0.5164090000000  0.4689690000000 1.0
C      1  0.5870120000000  0.5742230000000  0.5315890000000 1.0
C      1  0.5719160000000  0.4579500000000  0.5840490000000 1.0
C      1  0.5496350000000  0.5141950000000  0.5028810000000 1.0
C      1  0.4943690000000  0.5437840000000  0.3984390000000 1.0
C      1  0.4852840000000  0.5220310000000  0.4800600000000 1.0
C      1  0.4922120000000  0.4563840000000  0.5573300000000 1.0
C      1  0.6008650000000  0.4902730000000  0.4813560000000 1.0
C      1  0.4850630000000  0.4687400000000  0.5301440000000 1.0
C      1  0.5327700000000  0.4212960000000  0.4354550000000 1.0
C      1  0.4306710000000  0.4274910000000  0.4717940000000 1.0
C      1  0.6045880000000  0.5601420000000  0.4563800000000 1.0
C      1  0.4322910000000  0.5582160000000  0.4319300000000 1.0
C      1  0.4215310000000  0.4684820000000  0.5849550000000 1.0
C      1  0.4727620000000  0.4728040000000  0.4799340000000 1.0
C      1  0.4097210000000  0.5011530000000  0.4091050000000 1.0
C      1  0.5446640000000  0.4688310000000  0.4740540000000 1.0
C      1  0.5770710000000  0.5663950000000  0.4518780000000 1.0
C      1  0.4776200000000  0.4683030000000  0.3963470000000 1.0
C      1  0.4742190000000  0.5492080000000  0.5802000000000 1.0
C      1  0.4742990000000  0.4164290000000  0.5621000000000 1.0
C      1  0.4942550000000  0.4314040000000  0.5083460000000 1.0
C      1  0.4178330000000  0.5273100000000  0.5704400000000 1.0
C      1  0.5044370000000  0.4907950000000  0.4499420000000 1.0
C      1  0.4241110000000  0.5676590000000  0.4603760000000 1.0
C      1  0.4570810000000  0.5033070000000  0.5649500000000 1.0
C      1  0.5614660000000  0.5229000000000  0.4304830000000 1.0
C      1  0.5448970000000  0.5082390000000  0.5501840000000 1.0
C      1  0.5039940000000  0.5411070000000  0.4708800000000 1.0
C      1  0.4873380000000  0.4954990000000  0.4717450000000 1.0
C      1  0.4838720000000  0.4414060000000  0.4449760000000 1.0
C      1  0.5611020000000  0.4260990000000  0.5462880000000 1.0
C      1  0.5510170000000  0.4425640000000  0.5686970000000 1.0
C      1  0.4658850000000  0.4831420000000  0.6097430000000 1.0
C      1  0.5213820000000  0.3868170000000  0.5093400000000 1.0
C      1  0.4889290000000  0.4235520000000  0.5865390000000 1.0
C      1  0.5578830000000  0.4003800000000  0.5574550000000 1.0
C      1  0.4085880000000  0.4611710000000  0.5343990000000 1.0
C      1  0.4907430000000  0.4971430000000  0.5366590000000 1.0
C      1  0.5669890000000  0.5526500000000  0.4269870000000 1.0
C      1  0.4672140000000  0.4905820000000  0.4131960000000 1.0
C      1  0.4969080000000  0.6075640000000  0.5190570000000 1.0
C      1  0.4218690000000  0.5499880000000  0.5494720000000 1.0
C      1  0.5620310000000  0.5288990000000  0.4800630000000 1.0
C      1  0.3894980000000  0.5652030000000  0.5098960000000 1.0
C      1  0.6117900000000  0.4946560000000  0.5316150000000 1.0
C      1  0.4428680000000  0.5306470000000  0.4299200000000 1.0
C      1  0.5902170000000  0.4593970000000  0.5184530000000 1.0
C      1  0.5110820000000  0.5405350000000  0.5411840000000 1.0
END
