TITL C-951348-1603-509 1.71472602786343e-06 125000 -530.969401480121 0 0 86 (C1) n - 1
REM
REM in /home/bkarasulu/work/CARBON/AIRSS/Generating-Clusters/EDIP-Nigel-Params/with-SteepDescent/Only-C1/SD-CG/HFTN-CG
REM
REM
REM
REM
REM
REM ./C.cell (11c1c37f851c82e70ff6c80c92926a4b)
REM
REM compiler GCC version 9.2.1 20190827 (Red Hat 9.2.1-1)
REM options -cpp -mtune=generic -march=x86-64 -g -O0 -fpre-include=/usr/include/finclude/math-vector-fortran.h
REM seed 1219179669 101532494 -494696984 -1874170267 1685696767 1136859699 -1603871962 -366614245 66269729 -1325699700 -1671058766 -627471151 1460182060 -1110153737 -1215767908 -1796225990 1726692676 -590261146 -2055228940 -751914145 526305542 -937087334 859502684 1993692864 1022927118 503633925 774534326 1680290375 -717770857 -1181721196 291527841 -1621869549 1251319444
REM
CELL 1.54180   50.00000   50.00000   50.00000   90.00000   90.00000   90.00000
LATT -1
SFAC C  
C      1  0.4112420000000  0.5049460000000  0.5217430000000 1.0
C      1  0.4743720000000  0.5860470000000  0.5028770000000 1.0
C      1  0.4379110000000  0.5564970000000  0.4961950000000 1.0
C      1  0.4259580000000  0.5115920000000  0.5459290000000 1.0
C      1  0.5317790000000  0.5207950000000  0.4988830000000 1.0
C      1  0.5138450000000  0.5102290000000  0.4134910000000 1.0
C      1  0.5444240000000  0.5226090000000  0.4522940000000 1.0
C      1  0.4588050000000  0.4740860000000  0.5596820000000 1.0
C      1  0.5378390000000  0.4915710000000  0.4891290000000 1.0
C      1  0.4854900000000  0.5227210000000  0.4785000000000 1.0
C      1  0.5797650000000  0.5205540000000  0.5192780000000 1.0
C      1  0.4662450000000  0.4474550000000  0.5588610000000 1.0
C      1  0.5152550000000  0.5123950000000  0.5493720000000 1.0
C      1  0.5111640000000  0.4808660000000  0.4735060000000 1.0
C      1  0.4547210000000  0.5116110000000  0.4308600000000 1.0
C      1  0.5453220000000  0.5637360000000  0.4786650000000 1.0
C      1  0.4038670000000  0.4775580000000  0.5195660000000 1.0
C      1  0.4383800000000  0.5221920000000  0.4549330000000 1.0
C      1  0.4500830000000  0.5815110000000  0.4871570000000 1.0
C      1  0.5283630000000  0.4056240000000  0.5221840000000 1.0
C      1  0.5348040000000  0.4392970000000  0.5565880000000 1.0
C      1  0.5084390000000  0.4312060000000  0.5614350000000 1.0
C      1  0.4665530000000  0.4414920000000  0.4918550000000 1.0
C      1  0.4683740000000  0.5731560000000  0.5296280000000 1.0
C      1  0.4960270000000  0.4956290000000  0.5329560000000 1.0
C      1  0.4785010000000  0.4447100000000  0.4638490000000 1.0
C      1  0.5624650000000  0.4991600000000  0.5291140000000 1.0
C      1  0.5236810000000  0.4295910000000  0.4798690000000 1.0
C      1  0.4916530000000  0.5214490000000  0.4006990000000 1.0
C      1  0.4515620000000  0.5500130000000  0.5231760000000 1.0
C      1  0.4637100000000  0.4633900000000  0.4461870000000 1.0
C      1  0.5079470000000  0.4697690000000  0.5213240000000 1.0
C      1  0.5418350000000  0.5534270000000  0.5690780000000 1.0
C      1  0.5432760000000  0.4679250000000  0.5571860000000 1.0
C      1  0.4653110000000  0.5165370000000  0.4981180000000 1.0
C      1  0.4285750000000  0.4721380000000  0.4715010000000 1.0
C      1  0.5151730000000  0.4464220000000  0.4326080000000 1.0
C      1  0.4973750000000  0.5702670000000  0.4905770000000 1.0
C      1  0.5607850000000  0.4982530000000  0.4522290000000 1.0
C      1  0.5133600000000  0.5594160000000  0.5244400000000 1.0
C      1  0.4899710000000  0.4727700000000  0.4957700000000 1.0
C      1  0.4754510000000  0.4902360000000  0.4392170000000 1.0
C      1  0.4476900000000  0.4836320000000  0.5339990000000 1.0
C      1  0.5304000000000  0.5826850000000  0.5171170000000 1.0
C      1  0.5731380000000  0.4967640000000  0.4781980000000 1.0
C      1  0.5262030000000  0.4898170000000  0.5689310000000 1.0
C      1  0.5497920000000  0.5352470000000  0.4795930000000 1.0
C      1  0.5772030000000  0.5444480000000  0.5341670000000 1.0
C      1  0.5264630000000  0.5812660000000  0.4890680000000 1.0
C      1  0.4889310000000  0.4347870000000  0.5160920000000 1.0
C      1  0.4849780000000  0.4316140000000  0.5462680000000 1.0
C      1  0.4784790000000  0.5545340000000  0.4307800000000 1.0
C      1  0.4436500000000  0.5489910000000  0.4672360000000 1.0
C      1  0.4709150000000  0.4935330000000  0.5148370000000 1.0
C      1  0.5289920000000  0.5324990000000  0.5280210000000 1.0
C      1  0.4866780000000  0.5505800000000  0.4689410000000 1.0
C      1  0.4761270000000  0.4945390000000  0.5724810000000 1.0
C      1  0.5796940000000  0.4557660000000  0.5250880000000 1.0
C      1  0.4268910000000  0.5139210000000  0.4996620000000 1.0
C      1  0.5692500000000  0.4753650000000  0.5436110000000 1.0
C      1  0.4275380000000  0.5020410000000  0.4738830000000 1.0
C      1  0.5160570000000  0.5216300000000  0.4410440000000 1.0
C      1  0.4970160000000  0.5033580000000  0.4580570000000 1.0
C      1  0.5122620000000  0.4818300000000  0.4159840000000 1.0
C      1  0.5374840000000  0.4738600000000  0.5138180000000 1.0
C      1  0.4932320000000  0.5665560000000  0.5451470000000 1.0
C      1  0.5480080000000  0.4730750000000  0.4500400000000 1.0
C      1  0.5081170000000  0.4489600000000  0.4615280000000 1.0
C      1  0.5041180000000  0.5497250000000  0.4436700000000 1.0
C      1  0.4481190000000  0.5306140000000  0.5459510000000 1.0
C      1  0.5442770000000  0.4263880000000  0.5323320000000 1.0
C      1  0.5776010000000  0.5236380000000  0.4895670000000 1.0
C      1  0.5337650000000  0.4663760000000  0.4261460000000 1.0
C      1  0.5543060000000  0.4469410000000  0.5129190000000 1.0
C      1  0.5108990000000  0.4184310000000  0.5042220000000 1.0
C      1  0.5609760000000  0.4523960000000  0.4634320000000 1.0
C      1  0.4732810000000  0.5223660000000  0.5600600000000 1.0
C      1  0.4354700000000  0.4616350000000  0.4461440000000 1.0
C      1  0.5520720000000  0.4363490000000  0.4842960000000 1.0
C      1  0.5188510000000  0.5378300000000  0.5746490000000 1.0
C      1  0.4289740000000  0.4643470000000  0.5208520000000 1.0
C      1  0.5012600000000  0.4842020000000  0.5817750000000 1.0
C      1  0.4914430000000  0.5451590000000  0.5661580000000 1.0
C      1  0.5512520000000  0.5429730000000  0.5446920000000 1.0
C      1  0.4390580000000  0.4558300000000  0.4946370000000 1.0
C      1  0.4694360000000  0.5326550000000  0.4144010000000 1.0
END
