TITL C-950534-5965-379 2.5483047993874e-08 125000 -490.435612812223 0 0 79 (C1) n - 1
REM
REM in /home/bkarasulu/work/CARBON/AIRSS/Generating-Clusters/EDIP-Nigel-Params/with-SteepDescent/Only-C1/SD-CG/HFTN-CG
REM
REM
REM
REM
REM
REM ./C.cell (11c1c37f851c82e70ff6c80c92926a4b)
REM
REM compiler GCC version 9.2.1 20190827 (Red Hat 9.2.1-1)
REM options -cpp -mtune=generic -march=x86-64 -g -O0 -fpre-include=/usr/include/finclude/math-vector-fortran.h
REM seed 1087151714 -212868600 -801136726 894736018 1011930893 -1573436324 1741230362 1744801200 1504795597 2077395057 760748537 -1086256674 187953818 -1153191327 1111182378 -571372277 226329835 -668795813 2072955130 -1582004348 -714082387 981764538 1532889848 -2126372742 -1672771718 1201308335 -1355037941 -178192669 2019136877 -313526863 -115243139 1144570139 -1286686470
REM
CELL 1.54180   50.00000   50.00000   50.00000   90.00000   90.00000   90.00000
LATT -1
SFAC C  
C      1  0.4799450000000  0.5078860000000  0.4465910000000 1.0
C      1  0.4254760000000  0.4759100000000  0.4650390000000 1.0
C      1  0.5504070000000  0.5182990000000  0.5642570000000 1.0
C      1  0.5169670000000  0.4246890000000  0.5371420000000 1.0
C      1  0.5524280000000  0.5335400000000  0.4705920000000 1.0
C      1  0.5164290000000  0.4424760000000  0.4608590000000 1.0
C      1  0.5135740000000  0.4850830000000  0.5786190000000 1.0
C      1  0.5354070000000  0.5590380000000  0.5101880000000 1.0
C      1  0.5031390000000  0.5350640000000  0.5677180000000 1.0
C      1  0.5211350000000  0.5102480000000  0.5658240000000 1.0
C      1  0.4583880000000  0.5475530000000  0.5439080000000 1.0
C      1  0.5471520000000  0.5459620000000  0.5536320000000 1.0
C      1  0.5341400000000  0.4668450000000  0.5750110000000 1.0
C      1  0.5556020000000  0.5065370000000  0.4837600000000 1.0
C      1  0.4696100000000  0.5719440000000  0.5360850000000 1.0
C      1  0.4673090000000  0.5011020000000  0.5672400000000 1.0
C      1  0.4358580000000  0.4536320000000  0.4784670000000 1.0
C      1  0.4467120000000  0.5683180000000  0.4735920000000 1.0
C      1  0.5007620000000  0.4602030000000  0.5159300000000 1.0
C      1  0.5518580000000  0.4581680000000  0.5551160000000 1.0
C      1  0.5642780000000  0.4366150000000  0.5134020000000 1.0
C      1  0.4574060000000  0.4458060000000  0.5504760000000 1.0
C      1  0.4696340000000  0.4196390000000  0.5120100000000 1.0
C      1  0.4516930000000  0.5183970000000  0.4489430000000 1.0
C      1  0.4427070000000  0.4951980000000  0.5559810000000 1.0
C      1  0.4804820000000  0.4506920000000  0.5653890000000 1.0
C      1  0.4364390000000  0.5461270000000  0.4911280000000 1.0
C      1  0.4440900000000  0.5408840000000  0.4320100000000 1.0
C      1  0.4516090000000  0.4338770000000  0.4671590000000 1.0
C      1  0.4747450000000  0.5730360000000  0.4732430000000 1.0
C      1  0.4724310000000  0.5204590000000  0.4929240000000 1.0
C      1  0.4503420000000  0.4392690000000  0.5239890000000 1.0
C      1  0.4924100000000  0.5160580000000  0.4725260000000 1.0
C      1  0.5459460000000  0.5344030000000  0.4414190000000 1.0
C      1  0.4994360000000  0.4305640000000  0.5125490000000 1.0
C      1  0.5377400000000  0.5611600000000  0.4358310000000 1.0
C      1  0.5017270000000  0.4328820000000  0.5596750000000 1.0
C      1  0.5531520000000  0.4715170000000  0.4564700000000 1.0
C      1  0.4372040000000  0.5634470000000  0.4474150000000 1.0
C      1  0.5252060000000  0.5164180000000  0.5166260000000 1.0
C      1  0.5295540000000  0.4942330000000  0.4977510000000 1.0
C      1  0.5588100000000  0.4314660000000  0.4863440000000 1.0
C      1  0.4839960000000  0.4782510000000  0.5010190000000 1.0
C      1  0.4927150000000  0.5686600000000  0.4277310000000 1.0
C      1  0.5244110000000  0.5687600000000  0.4599890000000 1.0
C      1  0.5031310000000  0.4896620000000  0.4799270000000 1.0
C      1  0.5271140000000  0.5129800000000  0.4327330000000 1.0
C      1  0.5325860000000  0.5519730000000  0.4821970000000 1.0
C      1  0.5127640000000  0.5656600000000  0.5282060000000 1.0
C      1  0.4453000000000  0.5200440000000  0.4787100000000 1.0
C      1  0.4602680000000  0.5430280000000  0.4089970000000 1.0
C      1  0.4962440000000  0.5741020000000  0.4548130000000 1.0
C      1  0.4266660000000  0.4966630000000  0.4846700000000 1.0
C      1  0.5034380000000  0.5122320000000  0.5355220000000 1.0
C      1  0.5281130000000  0.4682040000000  0.5143130000000 1.0
C      1  0.5298200000000  0.4856120000000  0.4447390000000 1.0
C      1  0.5738310000000  0.4868150000000  0.4714930000000 1.0
C      1  0.5193630000000  0.5575260000000  0.5556670000000 1.0
C      1  0.4306770000000  0.4858660000000  0.5112720000000 1.0
C      1  0.4740060000000  0.5297180000000  0.5622090000000 1.0
C      1  0.5707180000000  0.4769420000000  0.5412490000000 1.0
C      1  0.4398960000000  0.5342150000000  0.5254000000000 1.0
C      1  0.5000930000000  0.4228370000000  0.4746850000000 1.0
C      1  0.4827670000000  0.4783170000000  0.4485010000000 1.0
C      1  0.5487850000000  0.5349750000000  0.5241820000000 1.0
C      1  0.4913450000000  0.5835290000000  0.5247110000000 1.0
C      1  0.5451070000000  0.4447900000000  0.4658360000000 1.0
C      1  0.4869650000000  0.4789170000000  0.5693340000000 1.0
C      1  0.5805720000000  0.4614820000000  0.5166970000000 1.0
C      1  0.5875400000000  0.4727300000000  0.4917280000000 1.0
C      1  0.5021480000000  0.5212110000000  0.4188180000000 1.0
C      1  0.4435080000000  0.4606240000000  0.5049600000000 1.0
C      1  0.5082020000000  0.4658870000000  0.4444920000000 1.0
C      1  0.4461640000000  0.5043750000000  0.5283970000000 1.0
C      1  0.5403380000000  0.4448240000000  0.5305960000000 1.0
C      1  0.4713660000000  0.4191730000000  0.4810320000000 1.0
C      1  0.4763760000000  0.5028680000000  0.5170980000000 1.0
C      1  0.5663350000000  0.5058750000000  0.5432720000000 1.0
C      1  0.4879920000000  0.5460300000000  0.4119710000000 1.0
END
