TITL C-950522-5749-561 -1.76982308395895e-06 125000 -1079.54105950491 0 0 172 (C1) n - 1
REM
REM in /home/bkarasulu/work/CARBON/AIRSS/Generating-Clusters/EDIP-Nigel-Params/with-SteepDescent/Only-C1/SD-CG/HFTN-CG
REM
REM
REM
REM
REM
REM ./C.cell (11c1c37f851c82e70ff6c80c92926a4b)
REM
REM compiler GCC version 9.2.1 20190827 (Red Hat 9.2.1-1)
REM options -cpp -mtune=generic -march=x86-64 -g -O0 -fpre-include=/usr/include/finclude/math-vector-fortran.h
REM seed -1853425270 -786263398 1849244707 52707223 -1963795258 -109088022 2052345764 -764176988 1674440033 -1500034742 -289121748 -59429243 1928610893 774919308 1789939076 -7269726 -1568633031 -340061587 -989468305 -785546684 1386424864 -874763464 513694447 -1210635607 1852258191 -109955074 -675229571 -1195043928 2070354450 1958357768 826615526 1772809469 140889976
REM
CELL 1.54180   50.00000   50.00000   50.00000   90.00000   90.00000   90.00000
LATT -1
SFAC C  
C      1  0.4678640000000  0.5495180000000  0.4661420000000 1.0
C      1  0.4664270000000  0.5793290000000  0.5632070000000 1.0
C      1  0.5473350000000  0.5523340000000  0.5387810000000 1.0
C      1  0.5348260000000  0.3887220000000  0.5143570000000 1.0
C      1  0.4623830000000  0.6109930000000  0.4383260000000 1.0
C      1  0.5029630000000  0.5123200000000  0.5305400000000 1.0
C      1  0.4244430000000  0.4758000000000  0.4919740000000 1.0
C      1  0.4306340000000  0.4924280000000  0.5161360000000 1.0
C      1  0.4265240000000  0.4684190000000  0.5463730000000 1.0
C      1  0.4175860000000  0.4658830000000  0.4329930000000 1.0
C      1  0.5371650000000  0.5652070000000  0.5878640000000 1.0
C      1  0.4691730000000  0.5882040000000  0.5350260000000 1.0
C      1  0.4510620000000  0.4093670000000  0.4875210000000 1.0
C      1  0.4422480000000  0.5893190000000  0.5242610000000 1.0
C      1  0.4780080000000  0.5987200000000  0.4825510000000 1.0
C      1  0.5452870000000  0.4555730000000  0.4726900000000 1.0
C      1  0.5606960000000  0.5871050000000  0.5150010000000 1.0
C      1  0.5195310000000  0.5615350000000  0.5338030000000 1.0
C      1  0.5173290000000  0.5355530000000  0.4577310000000 1.0
C      1  0.4454500000000  0.5201100000000  0.5105480000000 1.0
C      1  0.4224920000000  0.4174820000000  0.4938480000000 1.0
C      1  0.4464720000000  0.5387260000000  0.5364540000000 1.0
C      1  0.5053670000000  0.4501320000000  0.5883510000000 1.0
C      1  0.6126070000000  0.4771930000000  0.4921700000000 1.0
C      1  0.5969910000000  0.4799630000000  0.4662900000000 1.0
C      1  0.6045300000000  0.5109240000000  0.5281480000000 1.0
C      1  0.5503380000000  0.3954490000000  0.4900770000000 1.0
C      1  0.4462130000000  0.4299750000000  0.4460780000000 1.0
C      1  0.5859690000000  0.4928880000000  0.5434550000000 1.0
C      1  0.5832560000000  0.5467030000000  0.5709180000000 1.0
C      1  0.4431550000000  0.5065270000000  0.4533350000000 1.0
C      1  0.4626920000000  0.4507250000000  0.4625520000000 1.0
C      1  0.4627390000000  0.5225510000000  0.4078890000000 1.0
C      1  0.4447690000000  0.5022060000000  0.4224860000000 1.0
C      1  0.4645370000000  0.4494540000000  0.4004060000000 1.0
C      1  0.4670320000000  0.4361370000000  0.5502310000000 1.0
C      1  0.5846040000000  0.4548690000000  0.4520750000000 1.0
C      1  0.5351170000000  0.5039660000000  0.4558030000000 1.0
C      1  0.5561680000000  0.5038730000000  0.4770160000000 1.0
C      1  0.5727550000000  0.4654700000000  0.4279040000000 1.0
C      1  0.5219560000000  0.5895820000000  0.5468640000000 1.0
C      1  0.4723180000000  0.5137900000000  0.4922250000000 1.0
C      1  0.4413610000000  0.4967010000000  0.5800850000000 1.0
C      1  0.5410570000000  0.5306950000000  0.4045100000000 1.0
C      1  0.5095370000000  0.4257560000000  0.4106160000000 1.0
C      1  0.4548430000000  0.4034750000000  0.4591940000000 1.0
C      1  0.5586190000000  0.5286940000000  0.5237570000000 1.0
C      1  0.4867860000000  0.4746190000000  0.5906780000000 1.0
C      1  0.5590570000000  0.5632920000000  0.5655700000000 1.0
C      1  0.3998050000000  0.4612610000000  0.5015110000000 1.0
C      1  0.5461640000000  0.5908010000000  0.4904390000000 1.0
C      1  0.5345070000000  0.4783400000000  0.4063660000000 1.0
C      1  0.4832440000000  0.5959530000000  0.4266990000000 1.0
C      1  0.4931270000000  0.4507890000000  0.5025560000000 1.0
C      1  0.5625710000000  0.4525340000000  0.5406030000000 1.0
C      1  0.4032300000000  0.5057660000000  0.5200530000000 1.0
C      1  0.5865230000000  0.4660360000000  0.5312170000000 1.0
C      1  0.4402870000000  0.4737370000000  0.4153860000000 1.0
C      1  0.4472330000000  0.5676580000000  0.4547250000000 1.0
C      1  0.5302850000000  0.4145680000000  0.5610300000000 1.0
C      1  0.5373830000000  0.4932780000000  0.6148010000000 1.0
C      1  0.5341430000000  0.3986390000000  0.4650740000000 1.0
C      1  0.4298550000000  0.5556690000000  0.4221140000000 1.0
C      1  0.5757050000000  0.5206650000000  0.5809260000000 1.0
C      1  0.5493730000000  0.5291880000000  0.4933930000000 1.0
C      1  0.3836540000000  0.4875790000000  0.5051640000000 1.0
C      1  0.4600760000000  0.4275950000000  0.4185110000000 1.0
C      1  0.4844620000000  0.4015130000000  0.4514650000000 1.0
C      1  0.5447910000000  0.4865990000000  0.5886930000000 1.0
C      1  0.5885930000000  0.5346260000000  0.5210060000000 1.0
C      1  0.4661170000000  0.5061460000000  0.5589670000000 1.0
C      1  0.5595700000000  0.4274930000000  0.5234130000000 1.0
C      1  0.6190670000000  0.4991980000000  0.5077160000000 1.0
C      1  0.5168180000000  0.5840380000000  0.5758890000000 1.0
C      1  0.5134090000000  0.5355880000000  0.4009710000000 1.0
C      1  0.5268880000000  0.5665530000000  0.4521320000000 1.0
C      1  0.4950970000000  0.4938900000000  0.3850210000000 1.0
C      1  0.4196280000000  0.5296470000000  0.4946780000000 1.0
C      1  0.5558780000000  0.5017590000000  0.5420160000000 1.0
C      1  0.5132040000000  0.4855990000000  0.4665060000000 1.0
C      1  0.4671970000000  0.4860640000000  0.4917810000000 1.0
C      1  0.5231270000000  0.5270850000000  0.5707380000000 1.0
C      1  0.4220140000000  0.5519440000000  0.5746420000000 1.0
C      1  0.5056660000000  0.5611400000000  0.4098230000000 1.0
C      1  0.5678920000000  0.5483390000000  0.4754960000000 1.0
C      1  0.5044930000000  0.4746300000000  0.4040520000000 1.0
C      1  0.4190280000000  0.5515650000000  0.4491140000000 1.0
C      1  0.5393860000000  0.4744820000000  0.5375280000000 1.0
C      1  0.4948060000000  0.4480420000000  0.3943040000000 1.0
C      1  0.4701250000000  0.4350320000000  0.4876670000000 1.0
C      1  0.5512920000000  0.5726470000000  0.4683040000000 1.0
C      1  0.4742310000000  0.4711620000000  0.5165630000000 1.0
C      1  0.5961640000000  0.5594510000000  0.5373880000000 1.0
C      1  0.4983420000000  0.4415690000000  0.5468990000000 1.0
C      1  0.5010530000000  0.3867800000000  0.4971890000000 1.0
C      1  0.5166170000000  0.5118230000000  0.6119580000000 1.0
C      1  0.4905680000000  0.5010470000000  0.6033990000000 1.0
C      1  0.5097410000000  0.4698930000000  0.5533460000000 1.0
C      1  0.4823850000000  0.5774200000000  0.5039890000000 1.0
C      1  0.4932880000000  0.3907530000000  0.5452390000000 1.0
C      1  0.4902330000000  0.5486950000000  0.5967890000000 1.0
C      1  0.4582470000000  0.4712570000000  0.5846210000000 1.0
C      1  0.5898300000000  0.4937440000000  0.5735780000000 1.0
C      1  0.5046990000000  0.4031750000000  0.5677310000000 1.0
C      1  0.5047220000000  0.5357030000000  0.5478530000000 1.0
C      1  0.5676290000000  0.5913520000000  0.5619330000000 1.0
C      1  0.4928130000000  0.5085570000000  0.4443920000000 1.0
C      1  0.5502980000000  0.4543860000000  0.4126100000000 1.0
C      1  0.3938380000000  0.5070100000000  0.4578690000000 1.0
C      1  0.5707860000000  0.4723390000000  0.5858640000000 1.0
C      1  0.4562500000000  0.5966240000000  0.4617160000000 1.0
C      1  0.4733370000000  0.5235450000000  0.5934930000000 1.0
C      1  0.4183530000000  0.5240450000000  0.4631620000000 1.0
C      1  0.5621640000000  0.5198730000000  0.4196590000000 1.0
C      1  0.4469310000000  0.4780920000000  0.4717190000000 1.0
C      1  0.5567490000000  0.4762260000000  0.4903130000000 1.0
C      1  0.5015060000000  0.5138120000000  0.5020820000000 1.0
C      1  0.5646590000000  0.4352130000000  0.4664260000000 1.0
C      1  0.5108530000000  0.5978340000000  0.4350030000000 1.0
C      1  0.4898340000000  0.4536260000000  0.4463950000000 1.0
C      1  0.4283950000000  0.5287260000000  0.5593290000000 1.0
C      1  0.5505330000000  0.5988780000000  0.5404360000000 1.0
C      1  0.4785920000000  0.5702890000000  0.4138840000000 1.0
C      1  0.4040230000000  0.5117150000000  0.5502050000000 1.0
C      1  0.4749740000000  0.5367130000000  0.5573830000000 1.0
C      1  0.5916530000000  0.5546970000000  0.4937350000000 1.0
C      1  0.4082380000000  0.4376970000000  0.4761670000000 1.0
C      1  0.3789160000000  0.4996530000000  0.4803490000000 1.0
C      1  0.4414250000000  0.5706070000000  0.5725220000000 1.0
C      1  0.4186840000000  0.4405980000000  0.4482350000000 1.0
C      1  0.5491270000000  0.4952310000000  0.4287980000000 1.0
C      1  0.5859910000000  0.4658460000000  0.5011370000000 1.0
C      1  0.4267450000000  0.4279400000000  0.5213070000000 1.0
C      1  0.4909920000000  0.5166780000000  0.4007440000000 1.0
C      1  0.4878130000000  0.4240320000000  0.4310640000000 1.0
C      1  0.5191000000000  0.5366690000000  0.4892880000000 1.0
C      1  0.5886600000000  0.5781940000000  0.5140030000000 1.0
C      1  0.4879250000000  0.4887890000000  0.5407960000000 1.0
C      1  0.5181870000000  0.4573230000000  0.4601910000000 1.0
C      1  0.5644650000000  0.4474620000000  0.5701580000000 1.0
C      1  0.4142790000000  0.5572840000000  0.5031100000000 1.0
C      1  0.5203980000000  0.6018780000000  0.4941050000000 1.0
C      1  0.4383390000000  0.5754130000000  0.4961900000000 1.0
C      1  0.5392840000000  0.4357100000000  0.5785190000000 1.0
C      1  0.4573470000000  0.5500350000000  0.4156850000000 1.0
C      1  0.5485010000000  0.5102830000000  0.5704870000000 1.0
C      1  0.4145100000000  0.4879580000000  0.5652390000000 1.0
C      1  0.4900280000000  0.5719450000000  0.5789420000000 1.0
C      1  0.5480990000000  0.4182860000000  0.4471250000000 1.0
C      1  0.5439870000000  0.4068300000000  0.5357470000000 1.0
C      1  0.5107910000000  0.4850120000000  0.4962690000000 1.0
C      1  0.4893720000000  0.4798030000000  0.4299690000000 1.0
C      1  0.5358220000000  0.4789380000000  0.5093980000000 1.0
C      1  0.4888600000000  0.4246610000000  0.5808020000000 1.0
C      1  0.5818750000000  0.5080800000000  0.4637090000000 1.0
C      1  0.4552540000000  0.4372890000000  0.5216870000000 1.0
C      1  0.5041010000000  0.4304640000000  0.5205290000000 1.0
C      1  0.4087930000000  0.4499740000000  0.5287950000000 1.0
C      1  0.4930930000000  0.4029630000000  0.5197210000000 1.0
C      1  0.5188970000000  0.5396250000000  0.5971560000000 1.0
C      1  0.5770160000000  0.5294340000000  0.4434300000000 1.0
C      1  0.4633690000000  0.5572930000000  0.4939500000000 1.0
C      1  0.5012240000000  0.6141080000000  0.4778040000000 1.0
C      1  0.4502550000000  0.4571970000000  0.5610050000000 1.0
C      1  0.4692350000000  0.5201790000000  0.4620390000000 1.0
C      1  0.5262030000000  0.5766260000000  0.4231750000000 1.0
C      1  0.5668580000000  0.4198240000000  0.4947390000000 1.0
C      1  0.5338730000000  0.4341580000000  0.4257770000000 1.0
C      1  0.4262360000000  0.5633120000000  0.5319440000000 1.0
C      1  0.5054870000000  0.3994890000000  0.4717610000000 1.0
C      1  0.5126040000000  0.5655800000000  0.5040690000000 1.0
C      1  0.3994680000000  0.4857000000000  0.4409110000000 1.0
END
