TITL C-951344-124-34 9.20193065430905e-07 125000 -812.350633974731 0 0 131 (C1) n - 1
REM
REM in /home/bkarasulu/work/CARBON/AIRSS/Generating-Clusters/EDIP-Nigel-Params/with-SteepDescent/Only-C1/SD-CG/HFTN-CG
REM
REM
REM
REM
REM
REM ./C.cell (11c1c37f851c82e70ff6c80c92926a4b)
REM
REM compiler GCC version 9.2.1 20190827 (Red Hat 9.2.1-1)
REM options -cpp -mtune=generic -march=x86-64 -g -O0 -fpre-include=/usr/include/finclude/math-vector-fortran.h
REM seed 1806330053 -2041529796 -1645331842 -1712227429 1777051326 -2008064280 1089577492 -759140768 -1717135903 -455603213 -1549793112 475633049 1883455480 -617423393 -2081264022 74041986 1083922071 -1972662413 2133225244 554385634 781027947 82436737 -1487579635 1980596245 758728055 -941165534 497711771 -798512945 54684817 334306308 1402164601 -1386238480 2035527283
REM
CELL 1.54180   50.00000   50.00000   50.00000   90.00000   90.00000   90.00000
LATT -1
SFAC C  
C      1  0.4184670000000  0.4742250000000  0.4479550000000 1.0
C      1  0.4976070000000  0.4673380000000  0.3951070000000 1.0
C      1  0.4562840000000  0.5306150000000  0.5905430000000 1.0
C      1  0.4867330000000  0.5144430000000  0.4050330000000 1.0
C      1  0.5078480000000  0.5833660000000  0.5511690000000 1.0
C      1  0.5287410000000  0.5499570000000  0.5175450000000 1.0
C      1  0.4778190000000  0.5320650000000  0.4544270000000 1.0
C      1  0.5513620000000  0.5590520000000  0.4440970000000 1.0
C      1  0.5172410000000  0.5919960000000  0.4578530000000 1.0
C      1  0.4466230000000  0.4902090000000  0.4107790000000 1.0
C      1  0.5145510000000  0.5546930000000  0.4915700000000 1.0
C      1  0.4099630000000  0.4593090000000  0.4723120000000 1.0
C      1  0.4687900000000  0.5746690000000  0.5251260000000 1.0
C      1  0.5724910000000  0.4409060000000  0.4426700000000 1.0
C      1  0.5233340000000  0.5646960000000  0.4494950000000 1.0
C      1  0.5054630000000  0.5370170000000  0.4104940000000 1.0
C      1  0.5963130000000  0.4717190000000  0.4735980000000 1.0
C      1  0.5327600000000  0.5246570000000  0.4117100000000 1.0
C      1  0.5085100000000  0.5156140000000  0.5561620000000 1.0
C      1  0.5687410000000  0.5594670000000  0.4663130000000 1.0
C      1  0.5526910000000  0.5390710000000  0.4249540000000 1.0
C      1  0.4209180000000  0.5142600000000  0.5434150000000 1.0
C      1  0.4654680000000  0.4536810000000  0.4386940000000 1.0
C      1  0.4654110000000  0.4504500000000  0.4680550000000 1.0
C      1  0.5062930000000  0.5987210000000  0.5237180000000 1.0
C      1  0.4962950000000  0.4762730000000  0.5990210000000 1.0
C      1  0.5050400000000  0.4242540000000  0.4563090000000 1.0
C      1  0.5554470000000  0.4078180000000  0.5042230000000 1.0
C      1  0.5725260000000  0.4900550000000  0.5630950000000 1.0
C      1  0.5088800000000  0.5461510000000  0.5408330000000 1.0
C      1  0.4514170000000  0.4999500000000  0.4754470000000 1.0
C      1  0.4877370000000  0.5893290000000  0.4590070000000 1.0
C      1  0.5257680000000  0.5307790000000  0.4773850000000 1.0
C      1  0.5733490000000  0.5527660000000  0.5171760000000 1.0
C      1  0.5372500000000  0.5776950000000  0.5536060000000 1.0
C      1  0.4409740000000  0.4848050000000  0.5830080000000 1.0
C      1  0.4721700000000  0.4514400000000  0.5669240000000 1.0
C      1  0.5136890000000  0.5012320000000  0.6026810000000 1.0
C      1  0.4412770000000  0.5633960000000  0.4688290000000 1.0
C      1  0.4533790000000  0.4539310000000  0.5113750000000 1.0
C      1  0.4192130000000  0.5662880000000  0.5218300000000 1.0
C      1  0.5625580000000  0.4688190000000  0.4444710000000 1.0
C      1  0.4852210000000  0.4078910000000  0.4718870000000 1.0
C      1  0.5130420000000  0.4918040000000  0.5348240000000 1.0
C      1  0.4415700000000  0.5798510000000  0.5264100000000 1.0
C      1  0.4942310000000  0.4586230000000  0.4819230000000 1.0
C      1  0.4985490000000  0.5515560000000  0.4359550000000 1.0
C      1  0.5076070000000  0.4455760000000  0.4094390000000 1.0
C      1  0.5001150000000  0.4436160000000  0.5633240000000 1.0
C      1  0.5371670000000  0.4181860000000  0.5220020000000 1.0
C      1  0.4958100000000  0.4456930000000  0.4361250000000 1.0
C      1  0.4484880000000  0.5622890000000  0.4396270000000 1.0
C      1  0.5286370000000  0.4965450000000  0.4178890000000 1.0
C      1  0.4721730000000  0.4129140000000  0.5419810000000 1.0
C      1  0.4165180000000  0.5441970000000  0.5053900000000 1.0
C      1  0.4423070000000  0.4700170000000  0.4299490000000 1.0
C      1  0.4663440000000  0.4934330000000  0.5423380000000 1.0
C      1  0.5271420000000  0.4995290000000  0.5766860000000 1.0
C      1  0.5802140000000  0.4588670000000  0.5141420000000 1.0
C      1  0.5581140000000  0.5345540000000  0.5633130000000 1.0
C      1  0.4969730000000  0.4833920000000  0.4467220000000 1.0
C      1  0.4174970000000  0.5503620000000  0.4777050000000 1.0
C      1  0.5767300000000  0.5326550000000  0.5401580000000 1.0
C      1  0.5490430000000  0.4279190000000  0.4336660000000 1.0
C      1  0.4640620000000  0.5541930000000  0.5732470000000 1.0
C      1  0.4101230000000  0.5010870000000  0.4462150000000 1.0
C      1  0.4832850000000  0.5904150000000  0.5072190000000 1.0
C      1  0.4328340000000  0.5151460000000  0.4560250000000 1.0
C      1  0.4045540000000  0.4701470000000  0.4992710000000 1.0
C      1  0.4524680000000  0.5186960000000  0.4998130000000 1.0
C      1  0.5418690000000  0.4726490000000  0.4678900000000 1.0
C      1  0.5995330000000  0.4953970000000  0.4910500000000 1.0
C      1  0.4694380000000  0.4754150000000  0.5825360000000 1.0
C      1  0.4003630000000  0.4977300000000  0.5028540000000 1.0
C      1  0.5169550000000  0.4613590000000  0.5419690000000 1.0
C      1  0.5049710000000  0.5281540000000  0.6025030000000 1.0
C      1  0.5323860000000  0.5978980000000  0.5093510000000 1.0
C      1  0.5789490000000  0.5444760000000  0.4878410000000 1.0
C      1  0.5124680000000  0.5491820000000  0.5849330000000 1.0
C      1  0.4436410000000  0.5041040000000  0.5269630000000 1.0
C      1  0.5876230000000  0.4849550000000  0.4485600000000 1.0
C      1  0.4713410000000  0.4058340000000  0.5139380000000 1.0
C      1  0.5548870000000  0.4636320000000  0.5282590000000 1.0
C      1  0.4817880000000  0.5462240000000  0.5272980000000 1.0
C      1  0.5389240000000  0.5549930000000  0.5717110000000 1.0
C      1  0.5358490000000  0.4217660000000  0.4601360000000 1.0
C      1  0.4660570000000  0.5490880000000  0.4787600000000 1.0
C      1  0.4817690000000  0.4651350000000  0.5078670000000 1.0
C      1  0.4788720000000  0.5029560000000  0.4622110000000 1.0
C      1  0.5296230000000  0.6005790000000  0.4814910000000 1.0
C      1  0.4918650000000  0.5673900000000  0.5753970000000 1.0
C      1  0.4121360000000  0.4555070000000  0.5224200000000 1.0
C      1  0.5921370000000  0.4856980000000  0.5173830000000 1.0
C      1  0.4768620000000  0.5133250000000  0.5625760000000 1.0
C      1  0.5462060000000  0.5253790000000  0.5098650000000 1.0
C      1  0.4549650000000  0.4382030000000  0.5472860000000 1.0
C      1  0.4899170000000  0.3932740000000  0.4960440000000 1.0
C      1  0.5868350000000  0.5182110000000  0.4780040000000 1.0
C      1  0.5134670000000  0.4524600000000  0.5886440000000 1.0
C      1  0.5004460000000  0.4892620000000  0.4144090000000 1.0
C      1  0.5315400000000  0.4461990000000  0.5164150000000 1.0
C      1  0.5370530000000  0.4467060000000  0.4130610000000 1.0
C      1  0.4991270000000  0.4144220000000  0.5545860000000 1.0
C      1  0.4265640000000  0.4500610000000  0.5462640000000 1.0
C      1  0.5599010000000  0.4244320000000  0.4819130000000 1.0
C      1  0.5815630000000  0.5034650000000  0.5384940000000 1.0
C      1  0.5868460000000  0.5133090000000  0.4504000000000 1.0
C      1  0.5252310000000  0.4513440000000  0.4830640000000 1.0
C      1  0.5139270000000  0.5058180000000  0.4890440000000 1.0
C      1  0.4819070000000  0.5204010000000  0.5067680000000 1.0
C      1  0.5320790000000  0.4981290000000  0.5126470000000 1.0
C      1  0.5227450000000  0.4941260000000  0.4614870000000 1.0
C      1  0.4517800000000  0.5311360000000  0.4374280000000 1.0
C      1  0.4865100000000  0.4915820000000  0.5213130000000 1.0
C      1  0.4596070000000  0.4221650000000  0.4741300000000 1.0
C      1  0.4640720000000  0.5371890000000  0.5481910000000 1.0
C      1  0.4038290000000  0.5209530000000  0.5187640000000 1.0
C      1  0.5555710000000  0.5093460000000  0.5777880000000 1.0
C      1  0.4519940000000  0.4236680000000  0.5020610000000 1.0
C      1  0.5396540000000  0.4575420000000  0.5790310000000 1.0
C      1  0.4765690000000  0.5741410000000  0.4349200000000 1.0
C      1  0.4244370000000  0.4682330000000  0.5673880000000 1.0
C      1  0.5463530000000  0.5744640000000  0.5245550000000 1.0
C      1  0.4884940000000  0.5708860000000  0.4845190000000 1.0
C      1  0.4361770000000  0.5130470000000  0.5785570000000 1.0
C      1  0.5760660000000  0.4511270000000  0.4860070000000 1.0
C      1  0.5485220000000  0.4747420000000  0.4179560000000 1.0
C      1  0.5203620000000  0.4045830000000  0.5392770000000 1.0
C      1  0.4578650000000  0.5161360000000  0.4114790000000 1.0
C      1  0.5579950000000  0.4648090000000  0.5584750000000 1.0
C      1  0.4453050000000  0.4692730000000  0.4826110000000 1.0
END
