TITL C-951347-9520-276 -3.39681113014881e-06 125000 -1142.54375837396 0 0 185 (C1) n - 1
REM
REM in /home/bkarasulu/work/CARBON/AIRSS/Generating-Clusters/EDIP-Nigel-Params/with-SteepDescent/Only-C1/SD-CG/HFTN-CG
REM
REM
REM
REM
REM
REM ./C.cell (11c1c37f851c82e70ff6c80c92926a4b)
REM
REM compiler GCC version 9.2.1 20190827 (Red Hat 9.2.1-1)
REM options -cpp -mtune=generic -march=x86-64 -g -O0 -fpre-include=/usr/include/finclude/math-vector-fortran.h
REM seed -1596988289 247363569 -1722508640 -197942237 -1607673558 90763078 385539414 2040197816 355909737 545052787 -787413834 -1629803511 1445919984 -803185504 1876077095 -1564056421 -1324665186 1529350633 -744382686 1492469905 -542336847 -613457183 -1764434525 509455818 1866953201 1073137355 332730076 -193186379 1082773934 -138493750 -312461854 958592672 -492572710
REM
CELL 1.54180   50.00000   50.00000   50.00000   90.00000   90.00000   90.00000
LATT -1
SFAC C  
C      1  0.4927940000000  0.4187880000000  0.5018340000000 1.0
C      1  0.5027340000000  0.6030170000000  0.5596690000000 1.0
C      1  0.4377930000000  0.4900780000000  0.5358460000000 1.0
C      1  0.4524740000000  0.3984010000000  0.4771500000000 1.0
C      1  0.4837430000000  0.4896680000000  0.3805110000000 1.0
C      1  0.5072050000000  0.5310250000000  0.6115000000000 1.0
C      1  0.4548550000000  0.5370480000000  0.4163620000000 1.0
C      1  0.5580130000000  0.4906900000000  0.4547770000000 1.0
C      1  0.5382380000000  0.3925780000000  0.5382320000000 1.0
C      1  0.5311900000000  0.4774960000000  0.3734720000000 1.0
C      1  0.4212070000000  0.5199830000000  0.5016970000000 1.0
C      1  0.4596780000000  0.4590130000000  0.5781500000000 1.0
C      1  0.4800560000000  0.4081450000000  0.4775700000000 1.0
C      1  0.4561980000000  0.4930200000000  0.3854540000000 1.0
C      1  0.4442740000000  0.4745310000000  0.4065670000000 1.0
C      1  0.4564550000000  0.6113790000000  0.4807390000000 1.0
C      1  0.4603090000000  0.5856980000000  0.4674040000000 1.0
C      1  0.5232810000000  0.4879410000000  0.4830770000000 1.0
C      1  0.5417860000000  0.5698030000000  0.4314710000000 1.0
C      1  0.5731700000000  0.5879330000000  0.5500240000000 1.0
C      1  0.4803700000000  0.6173470000000  0.5501670000000 1.0
C      1  0.6050730000000  0.5539840000000  0.5423350000000 1.0
C      1  0.4004840000000  0.5203220000000  0.4555260000000 1.0
C      1  0.4074700000000  0.4844300000000  0.5348730000000 1.0
C      1  0.5293400000000  0.3882420000000  0.4866320000000 1.0
C      1  0.6021320000000  0.5339870000000  0.5230550000000 1.0
C      1  0.5893290000000  0.4488390000000  0.5544400000000 1.0
C      1  0.5697930000000  0.4759820000000  0.5925640000000 1.0
C      1  0.4693700000000  0.5357210000000  0.5194290000000 1.0
C      1  0.3922990000000  0.5245620000000  0.5040420000000 1.0
C      1  0.5029400000000  0.5252200000000  0.4753650000000 1.0
C      1  0.5067800000000  0.5159650000000  0.5291710000000 1.0
C      1  0.4707490000000  0.5577120000000  0.4007970000000 1.0
C      1  0.5345090000000  0.4403630000000  0.5344310000000 1.0
C      1  0.5476570000000  0.4595030000000  0.5798410000000 1.0
C      1  0.4650050000000  0.5191910000000  0.4958990000000 1.0
C      1  0.4243470000000  0.4283730000000  0.5369480000000 1.0
C      1  0.5378950000000  0.5290610000000  0.4566300000000 1.0
C      1  0.5543570000000  0.4182110000000  0.5333720000000 1.0
C      1  0.4427920000000  0.5629950000000  0.4841080000000 1.0
C      1  0.5683160000000  0.5441750000000  0.5698700000000 1.0
C      1  0.4935370000000  0.4918900000000  0.5155450000000 1.0
C      1  0.4481410000000  0.4587830000000  0.4534730000000 1.0
C      1  0.4389290000000  0.5138990000000  0.4012870000000 1.0
C      1  0.5864180000000  0.5889260000000  0.5060840000000 1.0
C      1  0.4220380000000  0.5369730000000  0.5750030000000 1.0
C      1  0.5521860000000  0.4949160000000  0.5421450000000 1.0
C      1  0.4032510000000  0.4661370000000  0.5111860000000 1.0
C      1  0.4282460000000  0.4973410000000  0.4831920000000 1.0
C      1  0.4756440000000  0.6049890000000  0.5246890000000 1.0
C      1  0.5697630000000  0.5432590000000  0.4250620000000 1.0
C      1  0.4357200000000  0.5200960000000  0.5287740000000 1.0
C      1  0.4154420000000  0.4309750000000  0.4646730000000 1.0
C      1  0.4968660000000  0.5925850000000  0.4301190000000 1.0
C      1  0.4819120000000  0.4415030000000  0.5644370000000 1.0
C      1  0.4060710000000  0.4697770000000  0.5614660000000 1.0
C      1  0.5139990000000  0.4280250000000  0.6006840000000 1.0
C      1  0.5343330000000  0.5281070000000  0.6005160000000 1.0
C      1  0.5205540000000  0.3821630000000  0.5157830000000 1.0
C      1  0.4773540000000  0.4403520000000  0.5172440000000 1.0
C      1  0.5852210000000  0.5644400000000  0.5586570000000 1.0
C      1  0.5052980000000  0.4789580000000  0.5607060000000 1.0
C      1  0.5346450000000  0.5589250000000  0.5128670000000 1.0
C      1  0.4849380000000  0.4529360000000  0.4235560000000 1.0
C      1  0.4880820000000  0.4197680000000  0.5859400000000 1.0
C      1  0.5268430000000  0.5646520000000  0.5674400000000 1.0
C      1  0.3855940000000  0.5080670000000  0.4783430000000 1.0
C      1  0.5220850000000  0.5515300000000  0.4452300000000 1.0
C      1  0.5690340000000  0.5675500000000  0.4664990000000 1.0
C      1  0.5222880000000  0.5868170000000  0.4182850000000 1.0
C      1  0.5191600000000  0.4309960000000  0.4937010000000 1.0
C      1  0.3923680000000  0.5125500000000  0.5339490000000 1.0
C      1  0.4534300000000  0.4458640000000  0.5006520000000 1.0
C      1  0.4130270000000  0.5640710000000  0.4773210000000 1.0
C      1  0.5166800000000  0.4377310000000  0.5580210000000 1.0
C      1  0.4597210000000  0.5683900000000  0.5750220000000 1.0
C      1  0.4952060000000  0.5494810000000  0.3902880000000 1.0
C      1  0.3986180000000  0.4780380000000  0.4836520000000 1.0
C      1  0.3961280000000  0.5560650000000  0.5020930000000 1.0
C      1  0.5221880000000  0.3995350000000  0.5631960000000 1.0
C      1  0.5385970000000  0.5892080000000  0.5146350000000 1.0
C      1  0.4507590000000  0.4263210000000  0.4505550000000 1.0
C      1  0.5436820000000  0.4146320000000  0.4850940000000 1.0
C      1  0.4640410000000  0.4993380000000  0.4437540000000 1.0
C      1  0.5336030000000  0.6014280000000  0.4862460000000 1.0
C      1  0.4377350000000  0.4402760000000  0.5844680000000 1.0
C      1  0.4398610000000  0.4028360000000  0.5301410000000 1.0
C      1  0.5760340000000  0.4359050000000  0.4523740000000 1.0
C      1  0.5125770000000  0.5297890000000  0.3990490000000 1.0
C      1  0.5058760000000  0.4125960000000  0.4420020000000 1.0
C      1  0.4873040000000  0.5146770000000  0.5972920000000 1.0
C      1  0.5103470000000  0.5512390000000  0.4938460000000 1.0
C      1  0.4525930000000  0.5894030000000  0.5243240000000 1.0
C      1  0.5357260000000  0.4488190000000  0.4185670000000 1.0
C      1  0.4928880000000  0.5893660000000  0.4603310000000 1.0
C      1  0.4362300000000  0.5535750000000  0.4353160000000 1.0
C      1  0.4983260000000  0.4641410000000  0.5253780000000 1.0
C      1  0.4134070000000  0.4212820000000  0.4917530000000 1.0
C      1  0.5662340000000  0.4194090000000  0.5052900000000 1.0
C      1  0.5041540000000  0.6101790000000  0.4790490000000 1.0
C      1  0.4474270000000  0.4849500000000  0.5652560000000 1.0
C      1  0.4331020000000  0.3997480000000  0.4993570000000 1.0
C      1  0.5150330000000  0.4900630000000  0.4309120000000 1.0
C      1  0.5422200000000  0.5199140000000  0.4940460000000 1.0
C      1  0.5478880000000  0.4621580000000  0.4592170000000 1.0
C      1  0.5871860000000  0.4402330000000  0.5009770000000 1.0
C      1  0.5659570000000  0.4321910000000  0.5635850000000 1.0
C      1  0.5901310000000  0.5211520000000  0.4737330000000 1.0
C      1  0.4761200000000  0.3975040000000  0.5428460000000 1.0
C      1  0.4525140000000  0.4894550000000  0.4997570000000 1.0
C      1  0.4678480000000  0.4273960000000  0.5419460000000 1.0
C      1  0.5659910000000  0.5041000000000  0.4812510000000 1.0
C      1  0.5664960000000  0.5956060000000  0.5241850000000 1.0
C      1  0.4804320000000  0.5377020000000  0.4587380000000 1.0
C      1  0.5871130000000  0.5672610000000  0.4887940000000 1.0
C      1  0.4214540000000  0.4868170000000  0.5809830000000 1.0
C      1  0.5894960000000  0.4744660000000  0.5692460000000 1.0
C      1  0.4785940000000  0.5530030000000  0.5586460000000 1.0
C      1  0.5252580000000  0.4536200000000  0.5107820000000 1.0
C      1  0.4955870000000  0.5671920000000  0.5358500000000 1.0
C      1  0.5210460000000  0.5506740000000  0.5388040000000 1.0
C      1  0.5513380000000  0.4616740000000  0.4914010000000 1.0
C      1  0.5178420000000  0.4737120000000  0.4561790000000 1.0
C      1  0.5732690000000  0.4824370000000  0.4997950000000 1.0
C      1  0.4120630000000  0.5472760000000  0.4527850000000 1.0
C      1  0.5550930000000  0.4820800000000  0.3878950000000 1.0
C      1  0.5613910000000  0.4655060000000  0.4122430000000 1.0
C      1  0.4942730000000  0.4944760000000  0.4866080000000 1.0
C      1  0.4806720000000  0.4279920000000  0.4378400000000 1.0
C      1  0.5792140000000  0.5186090000000  0.5765700000000 1.0
C      1  0.5603230000000  0.5105400000000  0.3919450000000 1.0
C      1  0.4832970000000  0.5240040000000  0.5694340000000 1.0
C      1  0.6102050000000  0.5014040000000  0.4655470000000 1.0
C      1  0.5898020000000  0.4529170000000  0.4712100000000 1.0
C      1  0.5113900000000  0.5677620000000  0.4681930000000 1.0
C      1  0.4129630000000  0.5130340000000  0.5852110000000 1.0
C      1  0.4925770000000  0.3955000000000  0.5684360000000 1.0
C      1  0.5028700000000  0.3930560000000  0.4645870000000 1.0
C      1  0.4862030000000  0.5581700000000  0.5098210000000 1.0
C      1  0.5362320000000  0.4169620000000  0.5837460000000 1.0
C      1  0.4796870000000  0.6167450000000  0.4970590000000 1.0
C      1  0.4604040000000  0.4665670000000  0.4810240000000 1.0
C      1  0.5062240000000  0.4736300000000  0.3849790000000 1.0
C      1  0.5354300000000  0.4772260000000  0.5589260000000 1.0
C      1  0.4451640000000  0.5489220000000  0.5886020000000 1.0
C      1  0.4632700000000  0.4720560000000  0.4300350000000 1.0
C      1  0.4773810000000  0.5233010000000  0.4338830000000 1.0
C      1  0.5379870000000  0.5270170000000  0.3879460000000 1.0
C      1  0.4547350000000  0.5350630000000  0.4730410000000 1.0
C      1  0.4383010000000  0.5125360000000  0.4576780000000 1.0
C      1  0.4209140000000  0.4437580000000  0.5618950000000 1.0
C      1  0.5101780000000  0.4654750000000  0.4130710000000 1.0
C      1  0.5770810000000  0.4877210000000  0.4321220000000 1.0
C      1  0.5217650000000  0.4565820000000  0.5975980000000 1.0
C      1  0.5973940000000  0.4487440000000  0.5267430000000 1.0
C      1  0.5368720000000  0.5130170000000  0.5234070000000 1.0
C      1  0.4713300000000  0.5817820000000  0.4186380000000 1.0
C      1  0.4987020000000  0.4776180000000  0.5926200000000 1.0
C      1  0.5076490000000  0.5202350000000  0.4269910000000 1.0
C      1  0.5449810000000  0.5505420000000  0.5854390000000 1.0
C      1  0.5020470000000  0.5079490000000  0.5559750000000 1.0
C      1  0.4139500000000  0.5353230000000  0.5446430000000 1.0
C      1  0.4939310000000  0.3949230000000  0.5187620000000 1.0
C      1  0.5532970000000  0.4187630000000  0.4562690000000 1.0
C      1  0.5019270000000  0.5778730000000  0.5783940000000 1.0
C      1  0.5182130000000  0.5985790000000  0.5350640000000 1.0
C      1  0.4494510000000  0.5801440000000  0.4390290000000 1.0
C      1  0.5978340000000  0.5408620000000  0.4951570000000 1.0
C      1  0.4217440000000  0.4734160000000  0.4461590000000 1.0
C      1  0.5495100000000  0.5890710000000  0.4632560000000 1.0
C      1  0.4427510000000  0.5643600000000  0.5154840000000 1.0
C      1  0.4732940000000  0.4670860000000  0.6019390000000 1.0
C      1  0.6000220000000  0.4776120000000  0.4535320000000 1.0
C      1  0.4825960000000  0.5540690000000  0.6018820000000 1.0
C      1  0.6013570000000  0.5062440000000  0.5317730000000 1.0
C      1  0.4143170000000  0.5602790000000  0.5263170000000 1.0
C      1  0.4225750000000  0.4425170000000  0.5107440000000 1.0
C      1  0.5631120000000  0.5048540000000  0.5967760000000 1.0
C      1  0.5669040000000  0.5405010000000  0.4537340000000 1.0
C      1  0.5318160000000  0.4265420000000  0.4384450000000 1.0
C      1  0.4198070000000  0.4863760000000  0.4188840000000 1.0
C      1  0.5991280000000  0.4876510000000  0.5108130000000 1.0
C      1  0.4023610000000  0.4572920000000  0.4602120000000 1.0
C      1  0.5759380000000  0.5158860000000  0.4159060000000 1.0
C      1  0.5813640000000  0.4990720000000  0.5535470000000 1.0
END
