TITL C-951340-9809-674 1.59013283630708e-06 125000 -1137.99791826918 0 0 183 (C1) n - 1
REM
REM in /home/bkarasulu/work/CARBON/AIRSS/Generating-Clusters/EDIP-Nigel-Params/with-SteepDescent/Only-C1/SD-CG/HFTN-CG
REM
REM
REM
REM
REM
REM ./C.cell (11c1c37f851c82e70ff6c80c92926a4b)
REM
REM compiler GCC version 9.2.1 20190827 (Red Hat 9.2.1-1)
REM options -cpp -mtune=generic -march=x86-64 -g -O0 -fpre-include=/usr/include/finclude/math-vector-fortran.h
REM seed 759810534 438205505 -282213382 219421832 1273665473 65669756 1757384116 787092102 1864178889 -1116333770 2071847242 -343326570 480245078 -1553043087 581303655 -1953387045 -1454975859 1907718962 -883776430 1830171392 903884267 1719333897 -1925294776 -590554571 -841120646 901830084 -837933720 1244177950 -643893052 214911297 -2005073066 -526851568 297091027
REM
CELL 1.54180   50.00000   50.00000   50.00000   90.00000   90.00000   90.00000
LATT -1
SFAC C  
C      1  0.5462640000000  0.5049850000000  0.6034530000000 1.0
C      1  0.5410810000000  0.4933030000000  0.4534570000000 1.0
C      1  0.4787750000000  0.4672230000000  0.5812100000000 1.0
C      1  0.4960530000000  0.4380630000000  0.4693480000000 1.0
C      1  0.5406360000000  0.4958970000000  0.5609650000000 1.0
C      1  0.4577600000000  0.5128940000000  0.4699840000000 1.0
C      1  0.4420620000000  0.5611050000000  0.5810970000000 1.0
C      1  0.4428290000000  0.4824170000000  0.5061680000000 1.0
C      1  0.5127150000000  0.4585680000000  0.4824400000000 1.0
C      1  0.5412710000000  0.4706850000000  0.5452270000000 1.0
C      1  0.4726420000000  0.4150160000000  0.5477220000000 1.0
C      1  0.5076460000000  0.4880420000000  0.3917190000000 1.0
C      1  0.4918160000000  0.3921520000000  0.4838680000000 1.0
C      1  0.4719780000000  0.4869270000000  0.4726110000000 1.0
C      1  0.4973670000000  0.5225170000000  0.5793720000000 1.0
C      1  0.4045600000000  0.5248970000000  0.4981540000000 1.0
C      1  0.5570870000000  0.4810990000000  0.5923860000000 1.0
C      1  0.4455090000000  0.5406000000000  0.5993120000000 1.0
C      1  0.4798230000000  0.5237380000000  0.5184500000000 1.0
C      1  0.4217760000000  0.5249080000000  0.5583230000000 1.0
C      1  0.4833370000000  0.6104630000000  0.5171910000000 1.0
C      1  0.4389250000000  0.5580920000000  0.4767600000000 1.0
C      1  0.5830700000000  0.4734810000000  0.4354460000000 1.0
C      1  0.4527970000000  0.4667190000000  0.4822680000000 1.0
C      1  0.5730550000000  0.5502510000000  0.4313630000000 1.0
C      1  0.5290350000000  0.5726370000000  0.5795940000000 1.0
C      1  0.4973890000000  0.4893580000000  0.6141000000000 1.0
C      1  0.5181340000000  0.5463520000000  0.5393320000000 1.0
C      1  0.4133740000000  0.5556010000000  0.4617170000000 1.0
C      1  0.4334290000000  0.4798970000000  0.5514880000000 1.0
C      1  0.5851220000000  0.5023480000000  0.4309720000000 1.0
C      1  0.4514170000000  0.4402790000000  0.5849010000000 1.0
C      1  0.4766960000000  0.5362820000000  0.4694140000000 1.0
C      1  0.4500590000000  0.4557600000000  0.4354680000000 1.0
C      1  0.5379980000000  0.4948860000000  0.4234040000000 1.0
C      1  0.5078140000000  0.4089170000000  0.4666010000000 1.0
C      1  0.4870960000000  0.4406280000000  0.5996950000000 1.0
C      1  0.5775260000000  0.5261730000000  0.4499580000000 1.0
C      1  0.4658390000000  0.5777190000000  0.5125530000000 1.0
C      1  0.5194210000000  0.5084310000000  0.6151360000000 1.0
C      1  0.5510760000000  0.4018040000000  0.4478530000000 1.0
C      1  0.4719330000000  0.4085590000000  0.4346010000000 1.0
C      1  0.5441620000000  0.5705500000000  0.5544230000000 1.0
C      1  0.4809710000000  0.6123180000000  0.4896510000000 1.0
C      1  0.5886970000000  0.5036680000000  0.5660010000000 1.0
C      1  0.5259770000000  0.5914850000000  0.4757180000000 1.0
C      1  0.5248060000000  0.6004110000000  0.4462530000000 1.0
C      1  0.5116560000000  0.5369900000000  0.6115210000000 1.0
C      1  0.5634100000000  0.5078890000000  0.4112990000000 1.0
C      1  0.4628100000000  0.5587650000000  0.4551440000000 1.0
C      1  0.4625300000000  0.5812240000000  0.5427690000000 1.0
C      1  0.4971280000000  0.5466470000000  0.5618530000000 1.0
C      1  0.4068520000000  0.4936330000000  0.4665640000000 1.0
C      1  0.6097870000000  0.5095780000000  0.5462430000000 1.0
C      1  0.5756520000000  0.5292620000000  0.5724460000000 1.0
C      1  0.4252850000000  0.4192380000000  0.5488910000000 1.0
C      1  0.4700820000000  0.4403610000000  0.4878040000000 1.0
C      1  0.5396400000000  0.6104990000000  0.4960780000000 1.0
C      1  0.5349050000000  0.4529860000000  0.4999180000000 1.0
C      1  0.5704020000000  0.5516810000000  0.4886240000000 1.0
C      1  0.5304490000000  0.5420850000000  0.4558990000000 1.0
C      1  0.3899780000000  0.5182250000000  0.5215520000000 1.0
C      1  0.5013890000000  0.4421090000000  0.4123280000000 1.0
C      1  0.5466310000000  0.5645130000000  0.4700140000000 1.0
C      1  0.4750780000000  0.4736910000000  0.4435230000000 1.0
C      1  0.4302230000000  0.5182110000000  0.5885360000000 1.0
C      1  0.5835170000000  0.4431310000000  0.4794110000000 1.0
C      1  0.4024340000000  0.4762870000000  0.4905260000000 1.0
C      1  0.4995060000000  0.5895690000000  0.4346740000000 1.0
C      1  0.4734610000000  0.4392510000000  0.3997380000000 1.0
C      1  0.5211700000000  0.4531800000000  0.5559550000000 1.0
C      1  0.5204020000000  0.4621750000000  0.3993670000000 1.0
C      1  0.4713890000000  0.3989460000000  0.5228520000000 1.0
C      1  0.5157400000000  0.4839060000000  0.4664860000000 1.0
C      1  0.5524910000000  0.5001750000000  0.5107160000000 1.0
C      1  0.5136660000000  0.5182820000000  0.3953530000000 1.0
C      1  0.5901220000000  0.4766430000000  0.5141740000000 1.0
C      1  0.3970510000000  0.5104380000000  0.5478680000000 1.0
C      1  0.4488720000000  0.4197970000000  0.5635890000000 1.0
C      1  0.4032290000000  0.4816690000000  0.5477660000000 1.0
C      1  0.4790190000000  0.5526890000000  0.4079330000000 1.0
C      1  0.4786000000000  0.5847180000000  0.4561410000000 1.0
C      1  0.4811680000000  0.4836630000000  0.3824810000000 1.0
C      1  0.5355300000000  0.5507950000000  0.5987060000000 1.0
C      1  0.5355790000000  0.4337960000000  0.5854450000000 1.0
C      1  0.5192670000000  0.4255160000000  0.5416890000000 1.0
C      1  0.5637160000000  0.4144570000000  0.5193110000000 1.0
C      1  0.5985440000000  0.5320340000000  0.5311300000000 1.0
C      1  0.6090320000000  0.4866560000000  0.4693760000000 1.0
C      1  0.5497280000000  0.5195200000000  0.4632670000000 1.0
C      1  0.5961390000000  0.4488890000000  0.5073520000000 1.0
C      1  0.5564340000000  0.4598160000000  0.4769790000000 1.0
C      1  0.5600420000000  0.5367880000000  0.4071120000000 1.0
C      1  0.6100690000000  0.4989310000000  0.5155290000000 1.0
C      1  0.4322190000000  0.5398610000000  0.4188150000000 1.0
C      1  0.4431610000000  0.5079640000000  0.5474150000000 1.0
C      1  0.4906150000000  0.4911550000000  0.5015720000000 1.0
C      1  0.4388140000000  0.4691260000000  0.5794540000000 1.0
C      1  0.5729530000000  0.5390590000000  0.5443560000000 1.0
C      1  0.5524920000000  0.5942050000000  0.5393270000000 1.0
C      1  0.4804490000000  0.4694900000000  0.5268260000000 1.0
C      1  0.4989170000000  0.4020170000000  0.4385530000000 1.0
C      1  0.4264560000000  0.4555070000000  0.4560020000000 1.0
C      1  0.5453260000000  0.4111590000000  0.5428610000000 1.0
C      1  0.5734520000000  0.5926270000000  0.5184620000000 1.0
C      1  0.5155680000000  0.4161930000000  0.4188460000000 1.0
C      1  0.5324510000000  0.5415560000000  0.3982730000000 1.0
C      1  0.5236300000000  0.5682590000000  0.3965610000000 1.0
C      1  0.4612520000000  0.4652720000000  0.3913710000000 1.0
C      1  0.4716510000000  0.5015840000000  0.6080070000000 1.0
C      1  0.3874730000000  0.4870130000000  0.4462050000000 1.0
C      1  0.4545840000000  0.6052540000000  0.4788660000000 1.0
C      1  0.5716720000000  0.4842810000000  0.4927900000000 1.0
C      1  0.4758710000000  0.5052660000000  0.4175190000000 1.0
C      1  0.5075880000000  0.4239360000000  0.5860710000000 1.0
C      1  0.4424520000000  0.4741520000000  0.4133800000000 1.0
C      1  0.4025060000000  0.4645520000000  0.4407110000000 1.0
C      1  0.5679090000000  0.6103950000000  0.4969270000000 1.0
C      1  0.5799280000000  0.4381980000000  0.5572540000000 1.0
C      1  0.3958530000000  0.4476750000000  0.4874260000000 1.0
C      1  0.4994010000000  0.4132320000000  0.5597260000000 1.0
C      1  0.4725450000000  0.5308830000000  0.6077500000000 1.0
C      1  0.5358650000000  0.4764970000000  0.5180990000000 1.0
C      1  0.3899060000000  0.4686610000000  0.5260000000000 1.0
C      1  0.3939410000000  0.5714600000000  0.5012070000000 1.0
C      1  0.3941540000000  0.5492310000000  0.4835990000000 1.0
C      1  0.5939460000000  0.4559330000000  0.5736990000000 1.0
C      1  0.5018700000000  0.5694020000000  0.4140830000000 1.0
C      1  0.5309980000000  0.6074670000000  0.5246210000000 1.0
C      1  0.5359600000000  0.4510640000000  0.4460740000000 1.0
C      1  0.5092990000000  0.5007240000000  0.5590280000000 1.0
C      1  0.4971700000000  0.4531060000000  0.4414590000000 1.0
C      1  0.5088290000000  0.4273430000000  0.5138840000000 1.0
C      1  0.5026900000000  0.5046990000000  0.4359470000000 1.0
C      1  0.5109350000000  0.5152270000000  0.4884750000000 1.0
C      1  0.4496020000000  0.5126940000000  0.5183600000000 1.0
C      1  0.5040820000000  0.5264390000000  0.4594670000000 1.0
C      1  0.5406830000000  0.4232060000000  0.4327320000000 1.0
C      1  0.5052420000000  0.5927250000000  0.5283020000000 1.0
C      1  0.4832140000000  0.4425570000000  0.5146100000000 1.0
C      1  0.5403670000000  0.5192490000000  0.4925740000000 1.0
C      1  0.4183470000000  0.4322920000000  0.4749170000000 1.0
C      1  0.5568790000000  0.4228030000000  0.5675750000000 1.0
C      1  0.5514040000000  0.5286350000000  0.5883530000000 1.0
C      1  0.4460970000000  0.4934130000000  0.5954630000000 1.0
C      1  0.5496240000000  0.5174890000000  0.5383980000000 1.0
C      1  0.5600720000000  0.5735240000000  0.4448260000000 1.0
C      1  0.6074340000000  0.5095890000000  0.4862030000000 1.0
C      1  0.5903780000000  0.5326180000000  0.4760160000000 1.0
C      1  0.4321900000000  0.4205580000000  0.4981320000000 1.0
C      1  0.3939040000000  0.4412400000000  0.5164190000000 1.0
C      1  0.5574640000000  0.4180090000000  0.4905460000000 1.0
C      1  0.4984050000000  0.3984440000000  0.5105700000000 1.0
C      1  0.4445270000000  0.5032120000000  0.4220220000000 1.0
C      1  0.5080950000000  0.5638700000000  0.5167160000000 1.0
C      1  0.5859960000000  0.4305830000000  0.5290040000000 1.0
C      1  0.4574140000000  0.4288900000000  0.4221140000000 1.0
C      1  0.5385130000000  0.4043040000000  0.4725400000000 1.0
C      1  0.5978920000000  0.4629290000000  0.4584680000000 1.0
C      1  0.4572310000000  0.4047660000000  0.4960190000000 1.0
C      1  0.4958760000000  0.5875880000000  0.4817530000000 1.0
C      1  0.4997140000000  0.4613790000000  0.6157640000000 1.0
C      1  0.4168820000000  0.5335120000000  0.4421920000000 1.0
C      1  0.4958640000000  0.4718990000000  0.5555820000000 1.0
C      1  0.4235150000000  0.5544840000000  0.5332930000000 1.0
C      1  0.5793560000000  0.5665400000000  0.5104210000000 1.0
C      1  0.4846150000000  0.5259330000000  0.3961670000000 1.0
C      1  0.4178280000000  0.4256620000000  0.5227800000000 1.0
C      1  0.5843480000000  0.4804860000000  0.5828880000000 1.0
C      1  0.4564640000000  0.5525640000000  0.4264300000000 1.0
C      1  0.4498870000000  0.4677210000000  0.5297480000000 1.0
C      1  0.5094990000000  0.5163250000000  0.5322230000000 1.0
C      1  0.5480420000000  0.5949790000000  0.4309120000000 1.0
C      1  0.4885610000000  0.5907760000000  0.5563940000000 1.0
C      1  0.4412640000000  0.5824930000000  0.4951060000000 1.0
C      1  0.4990520000000  0.5718040000000  0.5764110000000 1.0
C      1  0.4173390000000  0.5786180000000  0.5147540000000 1.0
C      1  0.4328480000000  0.5095500000000  0.4526840000000 1.0
C      1  0.4312390000000  0.5361180000000  0.5075170000000 1.0
C      1  0.4444910000000  0.5623770000000  0.5535240000000 1.0
C      1  0.5425200000000  0.4655520000000  0.4188750000000 1.0
C      1  0.4832860000000  0.5518370000000  0.5043590000000 1.0
C      1  0.5710970000000  0.4596630000000  0.4133120000000 1.0
END
