TITL C-950530-3293-553 3.26754241670014e-05 125000 -170.842376436652 0 0 29 (C1) n - 1
REM
REM in /home/bkarasulu/work/CARBON/AIRSS/Generating-Clusters/EDIP-Nigel-Params/with-SteepDescent/Only-C1/SD-CG/HFTN-CG
REM
REM
REM
REM
REM
REM ./C.cell (11c1c37f851c82e70ff6c80c92926a4b)
REM
REM compiler GCC version 9.2.1 20190827 (Red Hat 9.2.1-1)
REM options -cpp -mtune=generic -march=x86-64 -g -O0 -fpre-include=/usr/include/finclude/math-vector-fortran.h
REM seed -366046562 -370620889 1281718189 -1627890732 -1123366642 1718529157 378301149 -1445834760 -704001406 877233788 1959204456 1988293736 2068497108 63113943 -1860045959 -1326460385 1379042507 -298140183 903569075 550351666 -2112794770 967671908 -129354097 -1015629045 -748543075 -1341382132 -1705275111 -1439316577 2098744010 -1735593188 -521892439 193455784 1577161866
REM
CELL 1.54180   50.00000   50.00000   50.00000   90.00000   90.00000   90.00000
LATT -1
SFAC C  
C      1  0.5349210000000  0.4811400000000  0.4956310000000 1.0
C      1  0.5258980000000  0.5094150000000  0.5038960000000 1.0
C      1  0.4840890000000  0.5290450000000  0.5289030000000 1.0
C      1  0.4968390000000  0.5105730000000  0.5108690000000 1.0
C      1  0.4495070000000  0.4404610000000  0.5123740000000 1.0
C      1  0.5438430000000  0.5358730000000  0.5084890000000 1.0
C      1  0.5502140000000  0.5178380000000  0.4563550000000 1.0
C      1  0.5667920000000  0.4971580000000  0.4605440000000 1.0
C      1  0.5582570000000  0.4812070000000  0.4804130000000 1.0
C      1  0.4681960000000  0.4191630000000  0.5163740000000 1.0
C      1  0.4560860000000  0.5327700000000  0.5241050000000 1.0
C      1  0.4367990000000  0.5061150000000  0.5036090000000 1.0
C      1  0.5220320000000  0.5301390000000  0.5522010000000 1.0
C      1  0.5160490000000  0.5526640000000  0.4784160000000 1.0
C      1  0.4972820000000  0.4250560000000  0.5061990000000 1.0
C      1  0.5427990000000  0.5244320000000  0.5352000000000 1.0
C      1  0.4954990000000  0.5338280000000  0.5537260000000 1.0
C      1  0.4459290000000  0.5334630000000  0.4963520000000 1.0
C      1  0.4577420000000  0.4880080000000  0.4957360000000 1.0
C      1  0.4898650000000  0.4013380000000  0.5200310000000 1.0
C      1  0.5290760000000  0.5309110000000  0.4667740000000 1.0
C      1  0.4968820000000  0.4899000000000  0.4686180000000 1.0
C      1  0.4804230000000  0.5045810000000  0.4872310000000 1.0
C      1  0.5289100000000  0.5594730000000  0.5026280000000 1.0
C      1  0.5110800000000  0.4691730000000  0.4821240000000 1.0
C      1  0.4926200000000  0.4527920000000  0.4983780000000 1.0
C      1  0.4691950000000  0.5310350000000  0.4770130000000 1.0
C      1  0.4650360000000  0.4605520000000  0.5007790000000 1.0
C      1  0.4881420000000  0.5518960000000  0.4770320000000 1.0
END
