TITL C-951338-5626-385 -4.12978332537678e-07 125000 -1195.08354813557 0 0 189 (C1) n - 1
REM
REM in /home/bkarasulu/work/CARBON/AIRSS/Generating-Clusters/EDIP-Nigel-Params/with-SteepDescent/Only-C1/SD-CG/HFTN-CG
REM
REM
REM
REM
REM
REM ./C.cell (11c1c37f851c82e70ff6c80c92926a4b)
REM
REM compiler GCC version 9.2.1 20190827 (Red Hat 9.2.1-1)
REM options -cpp -mtune=generic -march=x86-64 -g -O0 -fpre-include=/usr/include/finclude/math-vector-fortran.h
REM seed 197885754 1950761589 536041137 -1210573731 -1295296323 -876092287 -423150261 -1203436206 289764255 244559300 1733114333 -204271095 1186169117 -1232714077 126138506 -713733654 -1499344905 -1672119405 -1100910397 -464126546 -856899587 546500523 -1896287419 375983784 335706500 -496424159 -1005499007 -573062036 1884447450 271600166 -652728308 1716395038 751958529
REM
CELL 1.54180   50.00000   50.00000   50.00000   90.00000   90.00000   90.00000
LATT -1
SFAC C  
C      1  0.4483650000000  0.5177770000000  0.5397600000000 1.0
C      1  0.5317160000000  0.4899600000000  0.4454820000000 1.0
C      1  0.4458360000000  0.5443710000000  0.5266430000000 1.0
C      1  0.5185460000000  0.4220000000000  0.4285010000000 1.0
C      1  0.5045050000000  0.4427320000000  0.5887870000000 1.0
C      1  0.5365020000000  0.5983110000000  0.5537140000000 1.0
C      1  0.4733820000000  0.6069460000000  0.5072010000000 1.0
C      1  0.4388640000000  0.4037420000000  0.4557460000000 1.0
C      1  0.4497110000000  0.4563100000000  0.5319520000000 1.0
C      1  0.5366800000000  0.5070280000000  0.5029620000000 1.0
C      1  0.6146390000000  0.4954780000000  0.5285400000000 1.0
C      1  0.5240550000000  0.6083490000000  0.5000700000000 1.0
C      1  0.4628440000000  0.5141220000000  0.6144110000000 1.0
C      1  0.5445250000000  0.5786430000000  0.5749480000000 1.0
C      1  0.5001440000000  0.3785280000000  0.4828120000000 1.0
C      1  0.5880740000000  0.5568310000000  0.4527740000000 1.0
C      1  0.4582680000000  0.5360120000000  0.5976080000000 1.0
C      1  0.5233500000000  0.6134560000000  0.4715210000000 1.0
C      1  0.6131290000000  0.4829930000000  0.5011230000000 1.0
C      1  0.4571590000000  0.4050340000000  0.5138310000000 1.0
C      1  0.5607130000000  0.4412400000000  0.4442580000000 1.0
C      1  0.4309200000000  0.5907950000000  0.4863760000000 1.0
C      1  0.5528310000000  0.6080610000000  0.4629530000000 1.0
C      1  0.4565840000000  0.4014750000000  0.4814930000000 1.0
C      1  0.5776690000000  0.5595120000000  0.5210800000000 1.0
C      1  0.5228830000000  0.4092830000000  0.4546490000000 1.0
C      1  0.5502130000000  0.4720270000000  0.5261680000000 1.0
C      1  0.4684280000000  0.5571660000000  0.5391990000000 1.0
C      1  0.4260090000000  0.4506280000000  0.4368130000000 1.0
C      1  0.4953380000000  0.4343920000000  0.4145030000000 1.0
C      1  0.4435530000000  0.4423270000000  0.4141130000000 1.0
C      1  0.4147860000000  0.5179700000000  0.4316850000000 1.0
C      1  0.4288190000000  0.5883130000000  0.5160830000000 1.0
C      1  0.4169400000000  0.5373680000000  0.5639090000000 1.0
C      1  0.4240840000000  0.4658840000000  0.5145550000000 1.0
C      1  0.5403870000000  0.4463330000000  0.4691050000000 1.0
C      1  0.4956050000000  0.5200530000000  0.4302190000000 1.0
C      1  0.5715720000000  0.6030980000000  0.4852390000000 1.0
C      1  0.4560000000000  0.5871310000000  0.4351220000000 1.0
C      1  0.4124610000000  0.5020890000000  0.4089290000000 1.0
C      1  0.4238180000000  0.4819660000000  0.3954060000000 1.0
C      1  0.4545100000000  0.4408610000000  0.5947710000000 1.0
C      1  0.4525960000000  0.6014260000000  0.5282950000000 1.0
C      1  0.4610880000000  0.4057640000000  0.4367210000000 1.0
C      1  0.5367100000000  0.4588610000000  0.4075420000000 1.0
C      1  0.5203670000000  0.4675020000000  0.4609870000000 1.0
C      1  0.5753650000000  0.5174760000000  0.5369620000000 1.0
C      1  0.4915530000000  0.5493990000000  0.4266280000000 1.0
C      1  0.5448080000000  0.4095630000000  0.5373650000000 1.0
C      1  0.5252370000000  0.5355250000000  0.4666020000000 1.0
C      1  0.4091450000000  0.4227850000000  0.5073310000000 1.0
C      1  0.5522660000000  0.4778920000000  0.6017570000000 1.0
C      1  0.5743960000000  0.4774640000000  0.4703560000000 1.0
C      1  0.4713760000000  0.3732770000000  0.4869910000000 1.0
C      1  0.4473380000000  0.4662880000000  0.4776520000000 1.0
C      1  0.5250600000000  0.5544670000000  0.5773620000000 1.0
C      1  0.5991880000000  0.4339890000000  0.4907960000000 1.0
C      1  0.5566040000000  0.4081320000000  0.4920070000000 1.0
C      1  0.4198170000000  0.5582120000000  0.5387310000000 1.0
C      1  0.5595480000000  0.6021300000000  0.5351760000000 1.0
C      1  0.4635320000000  0.5835440000000  0.5496110000000 1.0
C      1  0.5287310000000  0.4265720000000  0.5792680000000 1.0
C      1  0.6053690000000  0.5376390000000  0.5035130000000 1.0
C      1  0.5717980000000  0.4884710000000  0.5491720000000 1.0
C      1  0.4985070000000  0.4723190000000  0.4787750000000 1.0
C      1  0.4736600000000  0.4988760000000  0.5043240000000 1.0
C      1  0.4647800000000  0.4848260000000  0.4378850000000 1.0
C      1  0.3880930000000  0.4352530000000  0.5212060000000 1.0
C      1  0.5161380000000  0.3762860000000  0.5087070000000 1.0
C      1  0.5094610000000  0.4705880000000  0.5757650000000 1.0
C      1  0.4889060000000  0.4260370000000  0.5190960000000 1.0
C      1  0.4724960000000  0.5023040000000  0.5348710000000 1.0
C      1  0.4714560000000  0.5162770000000  0.3936600000000 1.0
C      1  0.5006860000000  0.5933840000000  0.5111780000000 1.0
C      1  0.4950180000000  0.3761970000000  0.5307200000000 1.0
C      1  0.4361190000000  0.5398610000000  0.4286030000000 1.0
C      1  0.5254480000000  0.4052170000000  0.5593130000000 1.0
C      1  0.3869840000000  0.5313310000000  0.5136750000000 1.0
C      1  0.4313180000000  0.4476000000000  0.5804190000000 1.0
C      1  0.4966040000000  0.5674150000000  0.4955900000000 1.0
C      1  0.4918830000000  0.5013770000000  0.4806850000000 1.0
C      1  0.4286870000000  0.4090260000000  0.5247070000000 1.0
C      1  0.4679490000000  0.3758410000000  0.5174950000000 1.0
C      1  0.5332960000000  0.4028860000000  0.5105060000000 1.0
C      1  0.5508250000000  0.4090160000000  0.4635100000000 1.0
C      1  0.4744840000000  0.4522590000000  0.4827490000000 1.0
C      1  0.3949100000000  0.5280650000000  0.4864670000000 1.0
C      1  0.3810650000000  0.4831800000000  0.5266280000000 1.0
C      1  0.4035510000000  0.4910040000000  0.5740270000000 1.0
C      1  0.4694200000000  0.4810380000000  0.4088010000000 1.0
C      1  0.4836210000000  0.5422270000000  0.5586060000000 1.0
C      1  0.4706740000000  0.4934890000000  0.5973460000000 1.0
C      1  0.5704620000000  0.5402800000000  0.4686540000000 1.0
C      1  0.5212180000000  0.5128330000000  0.5471220000000 1.0
C      1  0.5254380000000  0.4924650000000  0.5256460000000 1.0
C      1  0.6101020000000  0.5082400000000  0.4540820000000 1.0
C      1  0.5510340000000  0.5962430000000  0.5068050000000 1.0
C      1  0.4297580000000  0.5398320000000  0.4767540000000 1.0
C      1  0.4683260000000  0.4305260000000  0.4254640000000 1.0
C      1  0.5935710000000  0.5191630000000  0.4206710000000 1.0
C      1  0.5731480000000  0.4689760000000  0.4414490000000 1.0
C      1  0.4783820000000  0.4300570000000  0.5848320000000 1.0
C      1  0.5353290000000  0.5327930000000  0.5964790000000 1.0
C      1  0.5026600000000  0.4082270000000  0.4758780000000 1.0
C      1  0.4494810000000  0.4074460000000  0.5574990000000 1.0
C      1  0.4722570000000  0.5574680000000  0.4523140000000 1.0
C      1  0.4508430000000  0.5455050000000  0.4968280000000 1.0
C      1  0.4719960000000  0.6015790000000  0.4553410000000 1.0
C      1  0.5499110000000  0.5655460000000  0.5067860000000 1.0
C      1  0.6010250000000  0.5679840000000  0.5031660000000 1.0
C      1  0.5990560000000  0.4768210000000  0.5464870000000 1.0
C      1  0.6071480000000  0.5351140000000  0.4408260000000 1.0
C      1  0.5703960000000  0.5666850000000  0.5655900000000 1.0
C      1  0.4392550000000  0.4757370000000  0.4499580000000 1.0
C      1  0.4665550000000  0.4767250000000  0.5489310000000 1.0
C      1  0.5923800000000  0.5820920000000  0.4790650000000 1.0
C      1  0.5474390000000  0.5809940000000  0.4517480000000 1.0
C      1  0.5265290000000  0.5572220000000  0.5265720000000 1.0
C      1  0.4712610000000  0.4464950000000  0.5121580000000 1.0
C      1  0.3980800000000  0.5144470000000  0.5592880000000 1.0
C      1  0.4535460000000  0.5328070000000  0.4533440000000 1.0
C      1  0.5498340000000  0.4809350000000  0.4235080000000 1.0
C      1  0.5307640000000  0.4511700000000  0.5374410000000 1.0
C      1  0.4759100000000  0.4064300000000  0.5683830000000 1.0
C      1  0.5617090000000  0.5242000000000  0.5847800000000 1.0
C      1  0.3918550000000  0.5086800000000  0.5314200000000 1.0
C      1  0.5025230000000  0.5973230000000  0.4559690000000 1.0
C      1  0.4448520000000  0.5242640000000  0.5704380000000 1.0
C      1  0.4759570000000  0.5089710000000  0.4511490000000 1.0
C      1  0.5699690000000  0.4958620000000  0.5829640000000 1.0
C      1  0.5583680000000  0.4593580000000  0.4913980000000 1.0
C      1  0.4759280000000  0.5540610000000  0.4024630000000 1.0
C      1  0.4243730000000  0.4943880000000  0.5045580000000 1.0
C      1  0.5179260000000  0.5101670000000  0.6050540000000 1.0
C      1  0.5664810000000  0.5254910000000  0.4125310000000 1.0
C      1  0.4936940000000  0.5141490000000  0.5562680000000 1.0
C      1  0.5463720000000  0.5559690000000  0.4742810000000 1.0
C      1  0.4221240000000  0.4288580000000  0.4576500000000 1.0
C      1  0.5115250000000  0.5863690000000  0.5405660000000 1.0
C      1  0.4198700000000  0.4398130000000  0.4855270000000 1.0
C      1  0.4996810000000  0.5057140000000  0.3888680000000 1.0
C      1  0.4216990000000  0.5683790000000  0.4674840000000 1.0
C      1  0.5635330000000  0.5376390000000  0.5581280000000 1.0
C      1  0.5216450000000  0.5847260000000  0.4373740000000 1.0
C      1  0.4469380000000  0.4662540000000  0.3969060000000 1.0
C      1  0.4069820000000  0.5030530000000  0.4813100000000 1.0
C      1  0.5438250000000  0.4343480000000  0.4204570000000 1.0
C      1  0.5336580000000  0.5395700000000  0.5503790000000 1.0
C      1  0.5115450000000  0.4217600000000  0.5014530000000 1.0
C      1  0.5493140000000  0.5480890000000  0.4217030000000 1.0
C      1  0.5063250000000  0.5439590000000  0.5085440000000 1.0
C      1  0.4319730000000  0.5699250000000  0.4390330000000 1.0
C      1  0.4768210000000  0.4224230000000  0.4679860000000 1.0
C      1  0.5985270000000  0.4496990000000  0.5349680000000 1.0
C      1  0.5717770000000  0.4329730000000  0.5012520000000 1.0
C      1  0.3954640000000  0.5553820000000  0.5241510000000 1.0
C      1  0.4220440000000  0.5014630000000  0.4556090000000 1.0
C      1  0.5399790000000  0.4721990000000  0.5748990000000 1.0
C      1  0.5616570000000  0.5199670000000  0.5103610000000 1.0
C      1  0.4368250000000  0.4347820000000  0.5529220000000 1.0
C      1  0.4517450000000  0.4905120000000  0.5746280000000 1.0
C      1  0.4266630000000  0.4768180000000  0.5814020000000 1.0
C      1  0.4946530000000  0.5615090000000  0.5771040000000 1.0
C      1  0.5823380000000  0.5235030000000  0.4896020000000 1.0
C      1  0.5954130000000  0.4975020000000  0.4783400000000 1.0
C      1  0.3976970000000  0.4608050000000  0.5269930000000 1.0
C      1  0.5468330000000  0.4449520000000  0.5633660000000 1.0
C      1  0.5243230000000  0.5189130000000  0.4406930000000 1.0
C      1  0.5041480000000  0.4669470000000  0.5458510000000 1.0
C      1  0.5148170000000  0.5217840000000  0.4898670000000 1.0
C      1  0.4516300000000  0.5388700000000  0.4024270000000 1.0
C      1  0.6105930000000  0.4533530000000  0.5080400000000 1.0
C      1  0.6043850000000  0.5235710000000  0.5304630000000 1.0
C      1  0.5501200000000  0.5041030000000  0.4038590000000 1.0
C      1  0.4899710000000  0.5880870000000  0.5623980000000 1.0
C      1  0.4989580000000  0.4772380000000  0.3846000000000 1.0
C      1  0.5340600000000  0.4912080000000  0.6181230000000 1.0
C      1  0.4491660000000  0.4931360000000  0.4900070000000 1.0
C      1  0.5239510000000  0.5177760000000  0.4017600000000 1.0
C      1  0.5794900000000  0.5809230000000  0.5422170000000 1.0
C      1  0.5704580000000  0.4335930000000  0.5337660000000 1.0
C      1  0.4704900000000  0.5650960000000  0.4831060000000 1.0
C      1  0.5075560000000  0.4596170000000  0.4051340000000 1.0
C      1  0.4775360000000  0.5568460000000  0.5999640000000 1.0
C      1  0.5198240000000  0.5600880000000  0.4228270000000 1.0
C      1  0.4606020000000  0.5939010000000  0.4826070000000 1.0
C      1  0.4982120000000  0.3976290000000  0.5515220000000 1.0
C      1  0.4973020000000  0.4980280000000  0.5850670000000 1.0
C      1  0.5678830000000  0.5684740000000  0.4332480000000 1.0
END
