TITL C-950536-5891-440 -8.62557144516618e-07 125000 -726.93493282803 0 0 115 (C1) n - 1
REM
REM in /home/bkarasulu/work/CARBON/AIRSS/Generating-Clusters/EDIP-Nigel-Params/with-SteepDescent/Only-C1/SD-CG/HFTN-CG
REM
REM
REM
REM
REM
REM ./C.cell (11c1c37f851c82e70ff6c80c92926a4b)
REM
REM compiler GCC version 9.2.1 20190827 (Red Hat 9.2.1-1)
REM options -cpp -mtune=generic -march=x86-64 -g -O0 -fpre-include=/usr/include/finclude/math-vector-fortran.h
REM seed 1900346685 938204557 708807554 -1457584722 991058858 860640226 -1738874654 -703143080 -1265170144 -17172703 687612388 -101852437 -2052171805 1745612744 145805580 1259114068 -72481606 1094282688 109887262 684907746 -1996135156 -301513556 -565530409 -620868894 -2068700654 -1831472260 474175611 -896624058 -1361415897 136035486 701357502 -1309914685 88823974
REM
CELL 1.54180   50.00000   50.00000   50.00000   90.00000   90.00000   90.00000
LATT -1
SFAC C  
C      1  0.4939190000000  0.5427060000000  0.5011370000000 1.0
C      1  0.4462430000000  0.5737790000000  0.4980710000000 1.0
C      1  0.5785680000000  0.4708080000000  0.5221900000000 1.0
C      1  0.4763320000000  0.4160650000000  0.4638000000000 1.0
C      1  0.5011010000000  0.4083180000000  0.4782430000000 1.0
C      1  0.4833840000000  0.4345550000000  0.5694430000000 1.0
C      1  0.4216840000000  0.5333410000000  0.5168420000000 1.0
C      1  0.5017260000000  0.5402680000000  0.5844940000000 1.0
C      1  0.5365840000000  0.5648290000000  0.4668520000000 1.0
C      1  0.5901040000000  0.4916430000000  0.5034390000000 1.0
C      1  0.4138070000000  0.4932470000000  0.5425970000000 1.0
C      1  0.4447680000000  0.4791350000000  0.5070790000000 1.0
C      1  0.4990440000000  0.4513930000000  0.4410750000000 1.0
C      1  0.4062010000000  0.4451910000000  0.4819260000000 1.0
C      1  0.5298950000000  0.4112510000000  0.5203390000000 1.0
C      1  0.4732350000000  0.5403130000000  0.4127480000000 1.0
C      1  0.5784760000000  0.5357870000000  0.5318610000000 1.0
C      1  0.5062330000000  0.4945020000000  0.4999130000000 1.0
C      1  0.5911580000000  0.5227480000000  0.5068110000000 1.0
C      1  0.5847720000000  0.5357750000000  0.4269160000000 1.0
C      1  0.4466900000000  0.4737460000000  0.4336880000000 1.0
C      1  0.4650010000000  0.4769140000000  0.5724270000000 1.0
C      1  0.4461330000000  0.5488370000000  0.5114580000000 1.0
C      1  0.5221710000000  0.4608940000000  0.4268670000000 1.0
C      1  0.4751140000000  0.4599190000000  0.4708310000000 1.0
C      1  0.5762710000000  0.5334830000000  0.4797260000000 1.0
C      1  0.5042480000000  0.4958630000000  0.6076450000000 1.0
C      1  0.5051530000000  0.6151860000000  0.5141080000000 1.0
C      1  0.5126150000000  0.4641600000000  0.5370550000000 1.0
C      1  0.5297890000000  0.4631160000000  0.4700170000000 1.0
C      1  0.5750830000000  0.4771110000000  0.5510810000000 1.0
C      1  0.4350130000000  0.5110050000000  0.4704830000000 1.0
C      1  0.4468520000000  0.4264030000000  0.4674060000000 1.0
C      1  0.4948990000000  0.5236550000000  0.4024050000000 1.0
C      1  0.4255060000000  0.5186060000000  0.5431350000000 1.0
C      1  0.4600420000000  0.5499750000000  0.5606110000000 1.0
C      1  0.4564290000000  0.4341400000000  0.5558220000000 1.0
C      1  0.4303780000000  0.4814100000000  0.4598780000000 1.0
C      1  0.5654240000000  0.4826790000000  0.4301120000000 1.0
C      1  0.4703720000000  0.4940150000000  0.4332240000000 1.0
C      1  0.4000240000000  0.4901020000000  0.4964070000000 1.0
C      1  0.4937420000000  0.4968990000000  0.4124660000000 1.0
C      1  0.4132210000000  0.5169110000000  0.4912640000000 1.0
C      1  0.4678160000000  0.5914930000000  0.4943290000000 1.0
C      1  0.4167970000000  0.4791200000000  0.5184150000000 1.0
C      1  0.4865340000000  0.4261250000000  0.5200460000000 1.0
C      1  0.4790220000000  0.6049320000000  0.5168590000000 1.0
C      1  0.5546190000000  0.5480850000000  0.5159660000000 1.0
C      1  0.4581540000000  0.4207020000000  0.5294920000000 1.0
C      1  0.5583010000000  0.4581260000000  0.5673920000000 1.0
C      1  0.4789130000000  0.4317660000000  0.4378850000000 1.0
C      1  0.5025730000000  0.5143010000000  0.5394010000000 1.0
C      1  0.5330230000000  0.5651450000000  0.5570380000000 1.0
C      1  0.4842880000000  0.4594830000000  0.5848630000000 1.0
C      1  0.4355920000000  0.4227280000000  0.5132330000000 1.0
C      1  0.4481080000000  0.4621220000000  0.5549910000000 1.0
C      1  0.5425470000000  0.5201720000000  0.5111260000000 1.0
C      1  0.5724500000000  0.4878110000000  0.4790320000000 1.0
C      1  0.5309720000000  0.5130420000000  0.4643730000000 1.0
C      1  0.4580600000000  0.5214650000000  0.4301150000000 1.0
C      1  0.4934660000000  0.4731820000000  0.5156430000000 1.0
C      1  0.5578420000000  0.5312360000000  0.4205080000000 1.0
C      1  0.4644180000000  0.5052480000000  0.5782660000000 1.0
C      1  0.5196470000000  0.5918110000000  0.5062410000000 1.0
C      1  0.4033850000000  0.4717250000000  0.4724730000000 1.0
C      1  0.5607100000000  0.4520230000000  0.5071010000000 1.0
C      1  0.5296330000000  0.4966480000000  0.5785150000000 1.0
C      1  0.4255990000000  0.4257860000000  0.4876350000000 1.0
C      1  0.5169930000000  0.5866750000000  0.4776380000000 1.0
C      1  0.5422190000000  0.4711520000000  0.5872470000000 1.0
C      1  0.4538610000000  0.5223290000000  0.5554810000000 1.0
C      1  0.4990410000000  0.5721690000000  0.5186720000000 1.0
C      1  0.5469720000000  0.5030820000000  0.4189600000000 1.0
C      1  0.5139400000000  0.5434190000000  0.4287320000000 1.0
C      1  0.4667260000000  0.4818600000000  0.5282860000000 1.0
C      1  0.4461180000000  0.4636740000000  0.4799560000000 1.0
C      1  0.4882650000000  0.5615930000000  0.4282030000000 1.0
C      1  0.5534560000000  0.5121980000000  0.4832410000000 1.0
C      1  0.4895820000000  0.4500860000000  0.4973890000000 1.0
C      1  0.5025990000000  0.4352370000000  0.5459970000000 1.0
C      1  0.5883820000000  0.5232360000000  0.4518170000000 1.0
C      1  0.5401820000000  0.5546360000000  0.4215620000000 1.0
C      1  0.5483500000000  0.5000320000000  0.5340390000000 1.0
C      1  0.4397730000000  0.5320430000000  0.4497260000000 1.0
C      1  0.5476820000000  0.5735670000000  0.4411450000000 1.0
C      1  0.5305940000000  0.5448310000000  0.5770400000000 1.0
C      1  0.5482980000000  0.5206570000000  0.5770410000000 1.0
C      1  0.5491810000000  0.4328870000000  0.5590110000000 1.0
C      1  0.5334150000000  0.4410830000000  0.5129810000000 1.0
C      1  0.4528720000000  0.4451600000000  0.4338920000000 1.0
C      1  0.4776860000000  0.5623470000000  0.4564890000000 1.0
C      1  0.5132350000000  0.4904700000000  0.4720190000000 1.0
C      1  0.5677710000000  0.5147200000000  0.5533390000000 1.0
C      1  0.5841430000000  0.4935030000000  0.4516620000000 1.0
C      1  0.5204170000000  0.4884650000000  0.4198390000000 1.0
C      1  0.4674760000000  0.5282070000000  0.5073310000000 1.0
C      1  0.4930760000000  0.5418460000000  0.4714470000000 1.0
C      1  0.4611700000000  0.5066130000000  0.4845380000000 1.0
C      1  0.5597610000000  0.5583150000000  0.4870010000000 1.0
C      1  0.5123780000000  0.5200560000000  0.5119780000000 1.0
C      1  0.5275300000000  0.4176760000000  0.5496320000000 1.0
C      1  0.5489860000000  0.4590490000000  0.4374870000000 1.0
C      1  0.4810350000000  0.4900210000000  0.4636270000000 1.0
C      1  0.4723810000000  0.5117970000000  0.5335200000000 1.0
C      1  0.5578390000000  0.4629480000000  0.4806280000000 1.0
C      1  0.5190310000000  0.5394940000000  0.4588640000000 1.0
C      1  0.5031150000000  0.4041420000000  0.5072960000000 1.0
C      1  0.4904890000000  0.5134850000000  0.5898450000000 1.0
C      1  0.5220190000000  0.4927570000000  0.5486200000000 1.0
C      1  0.5067030000000  0.4680490000000  0.6011980000000 1.0
C      1  0.5170100000000  0.4419620000000  0.4877880000000 1.0
C      1  0.4866410000000  0.5567820000000  0.5660210000000 1.0
C      1  0.4866660000000  0.5857720000000  0.4722570000000 1.0
C      1  0.4487820000000  0.5575410000000  0.4571900000000 1.0
C      1  0.5062890000000  0.5674220000000  0.5474990000000 1.0
END
