TITL C-951338-5626-577 -2.003770347256e-07 125000 -1177.73995409084 0 0 188 (C1) n - 1
REM
REM in /home/bkarasulu/work/CARBON/AIRSS/Generating-Clusters/EDIP-Nigel-Params/with-SteepDescent/Only-C1/SD-CG/HFTN-CG
REM
REM
REM
REM
REM
REM ./C.cell (11c1c37f851c82e70ff6c80c92926a4b)
REM
REM compiler GCC version 9.2.1 20190827 (Red Hat 9.2.1-1)
REM options -cpp -mtune=generic -march=x86-64 -g -O0 -fpre-include=/usr/include/finclude/math-vector-fortran.h
REM seed 359154747 -1607495847 -1905881900 -1633664538 -1768995680 1691882820 1378128750 1815246993 -18223540 1024607427 532630475 -1329748206 2031841427 1411896403 -2086170155 1945585473 -579109703 1972822264 -1626968947 2027716360 1563129874 1086083281 1642216569 -1137554276 527900697 972765123 -629956361 -2087936676 -588438909 -1243106631 -307889968 1176743578 1508557238
REM
CELL 1.54180   50.00000   50.00000   50.00000   90.00000   90.00000   90.00000
LATT -1
SFAC C  
C      1  0.4372090000000  0.4318300000000  0.5326710000000 1.0
C      1  0.4809630000000  0.4026630000000  0.4901130000000 1.0
C      1  0.4202800000000  0.5295840000000  0.5721000000000 1.0
C      1  0.4060540000000  0.4365320000000  0.4938990000000 1.0
C      1  0.5584080000000  0.6028700000000  0.4495450000000 1.0
C      1  0.4985000000000  0.4804770000000  0.4778370000000 1.0
C      1  0.4306490000000  0.4386800000000  0.4435670000000 1.0
C      1  0.4206130000000  0.4633960000000  0.4613540000000 1.0
C      1  0.5123870000000  0.4492510000000  0.5543500000000 1.0
C      1  0.5921710000000  0.4764890000000  0.4619510000000 1.0
C      1  0.5133260000000  0.4033800000000  0.4891470000000 1.0
C      1  0.4898680000000  0.4644210000000  0.6068720000000 1.0
C      1  0.4143980000000  0.4592110000000  0.5707640000000 1.0
C      1  0.5736530000000  0.5233280000000  0.4994370000000 1.0
C      1  0.5294350000000  0.3955710000000  0.5158680000000 1.0
C      1  0.5594940000000  0.4632860000000  0.5652070000000 1.0
C      1  0.4783530000000  0.5026320000000  0.5105150000000 1.0
C      1  0.4966330000000  0.4027850000000  0.5585110000000 1.0
C      1  0.4353470000000  0.4697050000000  0.4898960000000 1.0
C      1  0.4342300000000  0.5421080000000  0.4079010000000 1.0
C      1  0.5472170000000  0.6119800000000  0.4736480000000 1.0
C      1  0.3771110000000  0.4784130000000  0.4802730000000 1.0
C      1  0.4650010000000  0.3981340000000  0.4632500000000 1.0
C      1  0.5240650000000  0.3917370000000  0.4618090000000 1.0
C      1  0.5522960000000  0.5568410000000  0.4301270000000 1.0
C      1  0.5922390000000  0.5040120000000  0.4493140000000 1.0
C      1  0.5229900000000  0.5995250000000  0.5395680000000 1.0
C      1  0.5597470000000  0.5108150000000  0.5982840000000 1.0
C      1  0.4734160000000  0.4081380000000  0.5428120000000 1.0
C      1  0.5666010000000  0.4619690000000  0.4556440000000 1.0
C      1  0.4361270000000  0.4253780000000  0.4879700000000 1.0
C      1  0.5300920000000  0.4162150000000  0.5871810000000 1.0
C      1  0.4505070000000  0.4191150000000  0.5584890000000 1.0
C      1  0.4713150000000  0.5634640000000  0.5239730000000 1.0
C      1  0.5268010000000  0.5015440000000  0.5431400000000 1.0
C      1  0.5414650000000  0.5256250000000  0.3904780000000 1.0
C      1  0.5061100000000  0.5469140000000  0.4112730000000 1.0
C      1  0.5958970000000  0.4813330000000  0.4930110000000 1.0
C      1  0.5338380000000  0.5187160000000  0.5894540000000 1.0
C      1  0.4451960000000  0.4872530000000  0.5954260000000 1.0
C      1  0.5226710000000  0.5303540000000  0.4530340000000 1.0
C      1  0.5697390000000  0.4441690000000  0.4316010000000 1.0
C      1  0.4403230000000  0.4086550000000  0.5127910000000 1.0
C      1  0.5362530000000  0.5490820000000  0.4060280000000 1.0
C      1  0.3984960000000  0.4840030000000  0.5665120000000 1.0
C      1  0.4924040000000  0.5910330000000  0.5427520000000 1.0
C      1  0.6105150000000  0.5056670000000  0.5285360000000 1.0
C      1  0.5732570000000  0.4876020000000  0.5551310000000 1.0
C      1  0.4436270000000  0.4641930000000  0.5755890000000 1.0
C      1  0.4977230000000  0.5318380000000  0.4368590000000 1.0
C      1  0.4584550000000  0.6052040000000  0.5190450000000 1.0
C      1  0.5507530000000  0.4206990000000  0.4332830000000 1.0
C      1  0.4455130000000  0.5173790000000  0.5854840000000 1.0
C      1  0.4312360000000  0.5524940000000  0.4346630000000 1.0
C      1  0.5387070000000  0.5485220000000  0.5234350000000 1.0
C      1  0.5131200000000  0.4710050000000  0.4539460000000 1.0
C      1  0.5226070000000  0.5916980000000  0.5102560000000 1.0
C      1  0.4665400000000  0.4389050000000  0.4860970000000 1.0
C      1  0.4421530000000  0.4712120000000  0.4055990000000 1.0
C      1  0.4523600000000  0.5881160000000  0.4652440000000 1.0
C      1  0.5418800000000  0.4480360000000  0.5436430000000 1.0
C      1  0.5009030000000  0.5486780000000  0.5503320000000 1.0
C      1  0.4731840000000  0.5092610000000  0.4015770000000 1.0
C      1  0.5957980000000  0.4346620000000  0.5079760000000 1.0
C      1  0.5199520000000  0.4321780000000  0.4859060000000 1.0
C      1  0.6183090000000  0.5010680000000  0.5000660000000 1.0
C      1  0.5780200000000  0.5095600000000  0.5765530000000 1.0
C      1  0.4799360000000  0.4389390000000  0.4581430000000 1.0
C      1  0.3921990000000  0.4957060000000  0.5113330000000 1.0
C      1  0.3911550000000  0.5190210000000  0.5335450000000 1.0
C      1  0.5081100000000  0.4010600000000  0.4368450000000 1.0
C      1  0.4689660000000  0.4614470000000  0.4429070000000 1.0
C      1  0.5330660000000  0.5661880000000  0.5752730000000 1.0
C      1  0.4956250000000  0.4441610000000  0.5297570000000 1.0
C      1  0.4749930000000  0.5355030000000  0.5395470000000 1.0
C      1  0.5136680000000  0.5636940000000  0.5153540000000 1.0
C      1  0.5034500000000  0.5545100000000  0.4894430000000 1.0
C      1  0.4655400000000  0.4533500000000  0.5287060000000 1.0
C      1  0.4920010000000  0.4759860000000  0.4309530000000 1.0
C      1  0.5986720000000  0.4812100000000  0.5410870000000 1.0
C      1  0.5977040000000  0.4448890000000  0.5350730000000 1.0
C      1  0.4109550000000  0.5084200000000  0.5530190000000 1.0
C      1  0.4281730000000  0.4930640000000  0.4197390000000 1.0
C      1  0.4797280000000  0.4055720000000  0.4399690000000 1.0
C      1  0.4377620000000  0.4120590000000  0.4616230000000 1.0
C      1  0.5142080000000  0.4763230000000  0.5948670000000 1.0
C      1  0.4240070000000  0.5164140000000  0.4049250000000 1.0
C      1  0.4685260000000  0.4861960000000  0.6133750000000 1.0
C      1  0.4679390000000  0.5722340000000  0.4164690000000 1.0
C      1  0.4131580000000  0.5130510000000  0.4658030000000 1.0
C      1  0.5783570000000  0.4455840000000  0.5773070000000 1.0
C      1  0.5483920000000  0.5900360000000  0.4939550000000 1.0
C      1  0.3855540000000  0.4590350000000  0.5717330000000 1.0
C      1  0.5434620000000  0.5829600000000  0.5547190000000 1.0
C      1  0.5547030000000  0.4943650000000  0.5337190000000 1.0
C      1  0.5102440000000  0.5275450000000  0.4803380000000 1.0
C      1  0.4654950000000  0.4826560000000  0.3910130000000 1.0
C      1  0.4749330000000  0.6141180000000  0.5403550000000 1.0
C      1  0.4868350000000  0.5081530000000  0.4815890000000 1.0
C      1  0.4753050000000  0.5619880000000  0.4923850000000 1.0
C      1  0.5324460000000  0.5600020000000  0.4518870000000 1.0
C      1  0.4386220000000  0.5174170000000  0.4838970000000 1.0
C      1  0.4555260000000  0.4370860000000  0.5824140000000 1.0
C      1  0.4645440000000  0.5730480000000  0.5804060000000 1.0
C      1  0.5426570000000  0.4815170000000  0.4573710000000 1.0
C      1  0.5719030000000  0.5847970000000  0.5115290000000 1.0
C      1  0.4508780000000  0.4491870000000  0.4244260000000 1.0
C      1  0.5181940000000  0.4785690000000  0.4999520000000 1.0
C      1  0.5844780000000  0.4285440000000  0.5554030000000 1.0
C      1  0.5093840000000  0.6080900000000  0.4463820000000 1.0
C      1  0.4728440000000  0.5188660000000  0.5667190000000 1.0
C      1  0.5173500000000  0.4454920000000  0.4064210000000 1.0
C      1  0.4291750000000  0.5806760000000  0.4823510000000 1.0
C      1  0.5165020000000  0.5132700000000  0.3824570000000 1.0
C      1  0.3936270000000  0.4553970000000  0.4722760000000 1.0
C      1  0.4819240000000  0.4907630000000  0.5594580000000 1.0
C      1  0.4535720000000  0.5326270000000  0.6111180000000 1.0
C      1  0.5416540000000  0.4027120000000  0.5646930000000 1.0
C      1  0.5564840000000  0.4070140000000  0.5197840000000 1.0
C      1  0.3883750000000  0.5059960000000  0.4822380000000 1.0
C      1  0.4167890000000  0.4746850000000  0.5139000000000 1.0
C      1  0.4625350000000  0.5186130000000  0.4667960000000 1.0
C      1  0.4022640000000  0.5466320000000  0.5291920000000 1.0
C      1  0.5606040000000  0.5675470000000  0.5345660000000 1.0
C      1  0.4361810000000  0.5891760000000  0.5300960000000 1.0
C      1  0.6064960000000  0.4535960000000  0.4899580000000 1.0
C      1  0.5179650000000  0.6175960000000  0.4709100000000 1.0
C      1  0.5511410000000  0.5636870000000  0.4776960000000 1.0
C      1  0.5091890000000  0.5805150000000  0.4425420000000 1.0
C      1  0.5567120000000  0.4204960000000  0.5459070000000 1.0
C      1  0.5275710000000  0.5317130000000  0.5474350000000 1.0
C      1  0.4598740000000  0.5512320000000  0.3975350000000 1.0
C      1  0.5220460000000  0.4276900000000  0.4315160000000 1.0
C      1  0.5109690000000  0.4417480000000  0.4582940000000 1.0
C      1  0.4715940000000  0.5549430000000  0.6021350000000 1.0
C      1  0.5427700000000  0.4884220000000  0.4869000000000 1.0
C      1  0.5204350000000  0.4499800000000  0.5108070000000 1.0
C      1  0.5432850000000  0.5057400000000  0.4376750000000 1.0
C      1  0.5214050000000  0.5444030000000  0.5894950000000 1.0
C      1  0.5780830000000  0.4872360000000  0.4091460000000 1.0
C      1  0.5023290000000  0.6061310000000  0.4933250000000 1.0
C      1  0.4873140000000  0.5052650000000  0.4264100000000 1.0
C      1  0.5735930000000  0.4175610000000  0.4994880000000 1.0
C      1  0.5823640000000  0.5491120000000  0.5444070000000 1.0
C      1  0.4918460000000  0.5339290000000  0.5903310000000 1.0
C      1  0.5525100000000  0.4009210000000  0.4553080000000 1.0
C      1  0.5098120000000  0.4790150000000  0.5646820000000 1.0
C      1  0.4215790000000  0.5519160000000  0.5521350000000 1.0
C      1  0.5934710000000  0.5319450000000  0.5226940000000 1.0
C      1  0.4927910000000  0.4603590000000  0.4055430000000 1.0
C      1  0.4667530000000  0.3966890000000  0.5161670000000 1.0
C      1  0.6099640000000  0.5497330000000  0.5047370000000 1.0
C      1  0.5209740000000  0.3919760000000  0.5454930000000 1.0
C      1  0.5492750000000  0.5397790000000  0.4968730000000 1.0
C      1  0.5268120000000  0.4966660000000  0.4105710000000 1.0
C      1  0.5654190000000  0.4946010000000  0.5048060000000 1.0
C      1  0.4101630000000  0.5419580000000  0.4525210000000 1.0
C      1  0.5054770000000  0.4263860000000  0.5751880000000 1.0
C      1  0.4106340000000  0.4467470000000  0.5220590000000 1.0
C      1  0.4354470000000  0.5684660000000  0.5096960000000 1.0
C      1  0.4351630000000  0.5771970000000  0.5567260000000 1.0
C      1  0.4600390000000  0.4729290000000  0.5513140000000 1.0
C      1  0.5647340000000  0.4624950000000  0.4076340000000 1.0
C      1  0.5726530000000  0.5073800000000  0.4278920000000 1.0
C      1  0.4080120000000  0.5598500000000  0.4762070000000 1.0
C      1  0.4761960000000  0.5140610000000  0.6189510000000 1.0
C      1  0.4644710000000  0.4672500000000  0.5008620000000 1.0
C      1  0.5362940000000  0.4681420000000  0.4034400000000 1.0
C      1  0.4906490000000  0.5752050000000  0.5677050000000 1.0
C      1  0.5718670000000  0.4053060000000  0.4749260000000 1.0
C      1  0.4911080000000  0.5304020000000  0.3881670000000 1.0
C      1  0.5820560000000  0.5355610000000  0.5679890000000 1.0
C      1  0.6164170000000  0.5274760000000  0.4848090000000 1.0
C      1  0.4475950000000  0.5064620000000  0.5109190000000 1.0
C      1  0.4832650000000  0.4380270000000  0.5932810000000 1.0
C      1  0.4356930000000  0.5067340000000  0.5371300000000 1.0
C      1  0.4967290000000  0.5737380000000  0.4172150000000 1.0
C      1  0.4176050000000  0.4896380000000  0.4465530000000 1.0
C      1  0.4748210000000  0.5447060000000  0.4573040000000 1.0
C      1  0.4564200000000  0.5658910000000  0.4440020000000 1.0
C      1  0.5922840000000  0.5715490000000  0.4930180000000 1.0
C      1  0.5867930000000  0.5689830000000  0.4638790000000 1.0
C      1  0.5922220000000  0.5255870000000  0.4683040000000 1.0
C      1  0.4726700000000  0.5945490000000  0.4919530000000 1.0
C      1  0.5079090000000  0.4962800000000  0.5207690000000 1.0
C      1  0.4075120000000  0.5441180000000  0.5008620000000 1.0
C      1  0.5711940000000  0.5790310000000  0.4411140000000 1.0
C      1  0.5237290000000  0.4995440000000  0.6075270000000 1.0
END
