TITL C-950533-5798-624 -1.7115852671539e-06 125000 -301.987199135634 0 0 50 (C1) n - 1
REM
REM in /home/bkarasulu/work/CARBON/AIRSS/Generating-Clusters/EDIP-Nigel-Params/with-SteepDescent/Only-C1/SD-CG/HFTN-CG
REM
REM
REM
REM
REM
REM ./C.cell (11c1c37f851c82e70ff6c80c92926a4b)
REM
REM compiler GCC version 9.2.1 20190827 (Red Hat 9.2.1-1)
REM options -cpp -mtune=generic -march=x86-64 -g -O0 -fpre-include=/usr/include/finclude/math-vector-fortran.h
REM seed 133647579 1850856228 -1036549364 -822841204 227745893 297709363 -1731955066 958634204 -1673949144 1909896707 475508801 -523049852 -1626996697 -1618781158 658347183 -51237679 320095923 -592330557 -851018486 -661085360 -1146557381 -316431934 20404231 -1008628672 -245271027 -2046777126 -1416449363 778763572 1980799533 -86043211 -1483079885 -545110454 -1167953867
REM
CELL 1.54180   50.00000   50.00000   50.00000   90.00000   90.00000   90.00000
LATT -1
SFAC C  
C      1  0.4989710000000  0.4997120000000  0.5066870000000 1.0
C      1  0.5436090000000  0.4750750000000  0.4414610000000 1.0
C      1  0.5441130000000  0.5232470000000  0.4734100000000 1.0
C      1  0.5332790000000  0.5510280000000  0.4685610000000 1.0
C      1  0.4557490000000  0.4461100000000  0.5173690000000 1.0
C      1  0.4590330000000  0.5184860000000  0.5301620000000 1.0
C      1  0.5469320000000  0.4545100000000  0.4937040000000 1.0
C      1  0.5585750000000  0.4908300000000  0.4596500000000 1.0
C      1  0.5148200000000  0.5279550000000  0.5554990000000 1.0
C      1  0.4991710000000  0.4886440000000  0.4251130000000 1.0
C      1  0.5090290000000  0.4778720000000  0.5529520000000 1.0
C      1  0.4929940000000  0.4761900000000  0.5258650000000 1.0
C      1  0.4565450000000  0.4643840000000  0.4833850000000 1.0
C      1  0.4785570000000  0.5582530000000  0.5464530000000 1.0
C      1  0.5191970000000  0.4491270000000  0.4833690000000 1.0
C      1  0.4619580000000  0.5135850000000  0.4413950000000 1.0
C      1  0.5082120000000  0.5538270000000  0.5421780000000 1.0
C      1  0.4896160000000  0.4787140000000  0.5977050000000 1.0
C      1  0.5119110000000  0.5477140000000  0.4482970000000 1.0
C      1  0.5535440000000  0.4812040000000  0.5336690000000 1.0
C      1  0.4695790000000  0.5626750000000  0.5181040000000 1.0
C      1  0.4898080000000  0.4892520000000  0.5732300000000 1.0
C      1  0.5459790000000  0.5189580000000  0.5027040000000 1.0
C      1  0.4681700000000  0.5311020000000  0.5557530000000 1.0
C      1  0.5210220000000  0.5056150000000  0.4595310000000 1.0
C      1  0.4864230000000  0.5497360000000  0.4597840000000 1.0
C      1  0.5328630000000  0.4951270000000  0.5499740000000 1.0
C      1  0.5202680000000  0.5162950000000  0.5137060000000 1.0
C      1  0.4753040000000  0.4355700000000  0.5003290000000 1.0
C      1  0.5644630000000  0.4774750000000  0.4854480000000 1.0
C      1  0.5151370000000  0.5219040000000  0.4350590000000 1.0
C      1  0.4725850000000  0.5251820000000  0.4660210000000 1.0
C      1  0.4912850000000  0.5186470000000  0.5705980000000 1.0
C      1  0.5449090000000  0.4540300000000  0.5236850000000 1.0
C      1  0.5169200000000  0.4682610000000  0.4363040000000 1.0
C      1  0.4531640000000  0.5396630000000  0.5113870000000 1.0
C      1  0.5068790000000  0.5586670000000  0.5126930000000 1.0
C      1  0.5032890000000  0.4573110000000  0.4598020000000 1.0
C      1  0.4934260000000  0.5017910000000  0.4769340000000 1.0
C      1  0.4800950000000  0.4760200000000  0.4652620000000 1.0
C      1  0.5247540000000  0.5638700000000  0.4920510000000 1.0
C      1  0.4731050000000  0.4880680000000  0.4383050000000 1.0
C      1  0.5168950000000  0.4464060000000  0.5313610000000 1.0
C      1  0.5034080000000  0.4392830000000  0.5053980000000 1.0
C      1  0.5640810000000  0.4961560000000  0.5093890000000 1.0
C      1  0.4311630000000  0.5086730000000  0.4826030000000 1.0
C      1  0.4639160000000  0.4692820000000  0.5322840000000 1.0
C      1  0.4486130000000  0.5305810000000  0.4836200000000 1.0
C      1  0.4395600000000  0.4859980000000  0.4968110000000 1.0
C      1  0.4471230000000  0.4919350000000  0.5249870000000 1.0
END
