TITL C-951344-124-738 -4.06941542129523e-06 125000 -1074.44406639839 0 0 170 (C1) n - 1
REM
REM in /home/bkarasulu/work/CARBON/AIRSS/Generating-Clusters/EDIP-Nigel-Params/with-SteepDescent/Only-C1/SD-CG/HFTN-CG
REM
REM
REM
REM
REM
REM ./C.cell (11c1c37f851c82e70ff6c80c92926a4b)
REM
REM compiler GCC version 9.2.1 20190827 (Red Hat 9.2.1-1)
REM options -cpp -mtune=generic -march=x86-64 -g -O0 -fpre-include=/usr/include/finclude/math-vector-fortran.h
REM seed -1578744838 -912895052 1554868761 363786092 -2119757743 -315031532 -1747435766 -1725013064 -35914417 1154176758 -608084370 -1593655911 1935032607 1117887306 -1871687413 1026960614 264891191 -1740601806 -2071444041 2061537161 -1814197365 671200654 866424774 -386829362 -1952747131 -2065545368 -2008541955 -26422900 -2020852334 -59769685 -1017472396 -191931218 1898943673
REM
CELL 1.54180   50.00000   50.00000   50.00000   90.00000   90.00000   90.00000
LATT -1
SFAC C  
C      1  0.5662880000000  0.5613020000000  0.4269480000000 1.0
C      1  0.5311940000000  0.3984440000000  0.4966390000000 1.0
C      1  0.5450350000000  0.5485470000000  0.5228850000000 1.0
C      1  0.5881640000000  0.5810800000000  0.4843330000000 1.0
C      1  0.4901360000000  0.5891000000000  0.5130160000000 1.0
C      1  0.4816210000000  0.5231590000000  0.4057990000000 1.0
C      1  0.5189230000000  0.4666810000000  0.5931410000000 1.0
C      1  0.5843630000000  0.4359180000000  0.4847930000000 1.0
C      1  0.4327440000000  0.5051850000000  0.5892720000000 1.0
C      1  0.4659930000000  0.5564050000000  0.4644490000000 1.0
C      1  0.4517450000000  0.4394010000000  0.4910650000000 1.0
C      1  0.4998020000000  0.5641730000000  0.4980860000000 1.0
C      1  0.4711890000000  0.4638830000000  0.4596780000000 1.0
C      1  0.4198820000000  0.5452210000000  0.5261450000000 1.0
C      1  0.4384450000000  0.4602550000000  0.4196170000000 1.0
C      1  0.4287530000000  0.4778880000000  0.5754990000000 1.0
C      1  0.5541420000000  0.5532430000000  0.4027890000000 1.0
C      1  0.5920890000000  0.5589510000000  0.5013260000000 1.0
C      1  0.5206760000000  0.6162520000000  0.4924940000000 1.0
C      1  0.5121320000000  0.4882290000000  0.3981840000000 1.0
C      1  0.4559570000000  0.4771030000000  0.4036340000000 1.0
C      1  0.5620290000000  0.5878440000000  0.5239290000000 1.0
C      1  0.4441070000000  0.5017750000000  0.5336360000000 1.0
C      1  0.4515580000000  0.5101810000000  0.4402020000000 1.0
C      1  0.4606140000000  0.5147290000000  0.5141470000000 1.0
C      1  0.5102460000000  0.5421710000000  0.4227610000000 1.0
C      1  0.5223380000000  0.5802570000000  0.5594890000000 1.0
C      1  0.5410850000000  0.5462300000000  0.4654400000000 1.0
C      1  0.5634540000000  0.4872830000000  0.3952730000000 1.0
C      1  0.4935770000000  0.4756260000000  0.3799150000000 1.0
C      1  0.5884480000000  0.4895440000000  0.5631870000000 1.0
C      1  0.5748550000000  0.4276440000000  0.5118500000000 1.0
C      1  0.4132710000000  0.4462970000000  0.4712390000000 1.0
C      1  0.5864670000000  0.5176970000000  0.5694780000000 1.0
C      1  0.4576310000000  0.4053870000000  0.5325170000000 1.0
C      1  0.5446190000000  0.4211180000000  0.5126740000000 1.0
C      1  0.5099540000000  0.5593790000000  0.5990490000000 1.0
C      1  0.4977670000000  0.4507240000000  0.3908570000000 1.0
C      1  0.4932490000000  0.5804920000000  0.5623520000000 1.0
C      1  0.4904830000000  0.4040850000000  0.5620880000000 1.0
C      1  0.5165930000000  0.5156410000000  0.5985760000000 1.0
C      1  0.5372910000000  0.4589380000000  0.4231720000000 1.0
C      1  0.5214480000000  0.4116800000000  0.4732310000000 1.0
C      1  0.5624770000000  0.5276880000000  0.5816490000000 1.0
C      1  0.4044980000000  0.4546170000000  0.5367750000000 1.0
C      1  0.4064160000000  0.4758530000000  0.5552480000000 1.0
C      1  0.5123510000000  0.5421530000000  0.4544330000000 1.0
C      1  0.4290910000000  0.5705030000000  0.5529860000000 1.0
C      1  0.5659310000000  0.4554290000000  0.4375640000000 1.0
C      1  0.5203480000000  0.5094360000000  0.5443220000000 1.0
C      1  0.4764670000000  0.5831240000000  0.5389960000000 1.0
C      1  0.4955110000000  0.6131630000000  0.4759600000000 1.0
C      1  0.5616780000000  0.4413890000000  0.4645970000000 1.0
C      1  0.5187170000000  0.4416160000000  0.5788300000000 1.0
C      1  0.5365640000000  0.4682570000000  0.5247290000000 1.0
C      1  0.4921190000000  0.4857480000000  0.5031200000000 1.0
C      1  0.5449070000000  0.5090970000000  0.5961380000000 1.0
C      1  0.5856910000000  0.5247090000000  0.4649760000000 1.0
C      1  0.5578710000000  0.5549550000000  0.5852730000000 1.0
C      1  0.5641770000000  0.5386690000000  0.4474460000000 1.0
C      1  0.4430080000000  0.4523110000000  0.5823790000000 1.0
C      1  0.4660960000000  0.3917620000000  0.5559750000000 1.0
C      1  0.3903190000000  0.4624980000000  0.4671960000000 1.0
C      1  0.4972580000000  0.4643290000000  0.5492600000000 1.0
C      1  0.4623510000000  0.4995760000000  0.5570810000000 1.0
C      1  0.5344580000000  0.5895160000000  0.5344210000000 1.0
C      1  0.4843950000000  0.5655640000000  0.5861730000000 1.0
C      1  0.5376410000000  0.4380740000000  0.5572830000000 1.0
C      1  0.5332330000000  0.4165510000000  0.5393980000000 1.0
C      1  0.5432740000000  0.6037240000000  0.4791610000000 1.0
C      1  0.5336160000000  0.4481680000000  0.5046270000000 1.0
C      1  0.5649730000000  0.4471570000000  0.5592990000000 1.0
C      1  0.4576360000000  0.5079100000000  0.4867300000000 1.0
C      1  0.5365660000000  0.5095730000000  0.4943250000000 1.0
C      1  0.5439510000000  0.4818050000000  0.5881280000000 1.0
C      1  0.4776770000000  0.4970150000000  0.6087520000000 1.0
C      1  0.4194160000000  0.5533480000000  0.4774030000000 1.0
C      1  0.4333330000000  0.4197100000000  0.5408080000000 1.0
C      1  0.5704540000000  0.5342330000000  0.5387940000000 1.0
C      1  0.4359470000000  0.5521310000000  0.5747240000000 1.0
C      1  0.4459450000000  0.5630440000000  0.4865230000000 1.0
C      1  0.5035890000000  0.5917400000000  0.4558470000000 1.0
C      1  0.4292380000000  0.5388110000000  0.4275280000000 1.0
C      1  0.5515610000000  0.4910100000000  0.4759980000000 1.0
C      1  0.4188160000000  0.4752220000000  0.4326510000000 1.0
C      1  0.4930230000000  0.4619970000000  0.4803660000000 1.0
C      1  0.4675540000000  0.5224280000000  0.4621220000000 1.0
C      1  0.5820550000000  0.4946450000000  0.4672580000000 1.0
C      1  0.4144180000000  0.4296120000000  0.4951160000000 1.0
C      1  0.4486580000000  0.5573020000000  0.5168960000000 1.0
C      1  0.4909560000000  0.4331070000000  0.5729610000000 1.0
C      1  0.4895050000000  0.4704550000000  0.6049000000000 1.0
C      1  0.5786480000000  0.5130780000000  0.5165710000000 1.0
C      1  0.5527380000000  0.5165270000000  0.4308610000000 1.0
C      1  0.4948520000000  0.4331940000000  0.4917340000000 1.0
C      1  0.4731780000000  0.5512670000000  0.4018950000000 1.0
C      1  0.4755690000000  0.4500770000000  0.5352770000000 1.0
C      1  0.4978580000000  0.5155790000000  0.4605000000000 1.0
C      1  0.4638920000000  0.5424820000000  0.5819820000000 1.0
C      1  0.5656330000000  0.4777220000000  0.5275550000000 1.0
C      1  0.3963310000000  0.5138030000000  0.4923640000000 1.0
C      1  0.5000070000000  0.4918380000000  0.4296770000000 1.0
C      1  0.5739830000000  0.4996520000000  0.4180420000000 1.0
C      1  0.5124610000000  0.4004610000000  0.4372490000000 1.0
C      1  0.4485500000000  0.5592320000000  0.4183590000000 1.0
C      1  0.4486200000000  0.4371390000000  0.4324990000000 1.0
C      1  0.4204810000000  0.5192850000000  0.5431250000000 1.0
C      1  0.4584890000000  0.5167380000000  0.6011150000000 1.0
C      1  0.6013600000000  0.4823600000000  0.4875240000000 1.0
C      1  0.5826760000000  0.4806080000000  0.4393130000000 1.0
C      1  0.4204780000000  0.4371310000000  0.5220810000000 1.0
C      1  0.5230450000000  0.4781180000000  0.4420110000000 1.0
C      1  0.4855880000000  0.5880860000000  0.4312550000000 1.0
C      1  0.4863170000000  0.4845630000000  0.5685500000000 1.0
C      1  0.4607700000000  0.5043520000000  0.4137580000000 1.0
C      1  0.5364270000000  0.5328500000000  0.4108770000000 1.0
C      1  0.4335260000000  0.4787700000000  0.5164640000000 1.0
C      1  0.4804380000000  0.4684190000000  0.4310610000000 1.0
C      1  0.5811620000000  0.5637630000000  0.5288860000000 1.0
C      1  0.4002700000000  0.4837590000000  0.4515310000000 1.0
C      1  0.5193000000000  0.5361120000000  0.5319960000000 1.0
C      1  0.6029100000000  0.4768370000000  0.5390270000000 1.0
C      1  0.5115770000000  0.4834200000000  0.5292240000000 1.0
C      1  0.4485120000000  0.5875380000000  0.5410100000000 1.0
C      1  0.4366830000000  0.4875000000000  0.4862560000000 1.0
C      1  0.5036660000000  0.5108240000000  0.5686650000000 1.0
C      1  0.4757590000000  0.5273270000000  0.5579840000000 1.0
C      1  0.5480700000000  0.5369120000000  0.4932810000000 1.0
C      1  0.5820560000000  0.4488510000000  0.5341250000000 1.0
C      1  0.4211570000000  0.5268380000000  0.5724250000000 1.0
C      1  0.4820530000000  0.4241190000000  0.5224450000000 1.0
C      1  0.4840430000000  0.3927110000000  0.4881610000000 1.0
C      1  0.4411460000000  0.4626160000000  0.4693220000000 1.0
C      1  0.5346070000000  0.5957710000000  0.4524590000000 1.0
C      1  0.5059500000000  0.5114150000000  0.4910480000000 1.0
C      1  0.5539990000000  0.5842790000000  0.4362170000000 1.0
C      1  0.3991330000000  0.4994260000000  0.5393310000000 1.0
C      1  0.3973950000000  0.4924710000000  0.5117810000000 1.0
C      1  0.4724290000000  0.5374580000000  0.5255350000000 1.0
C      1  0.4958630000000  0.5641200000000  0.4689420000000 1.0
C      1  0.4601190000000  0.5745440000000  0.4404840000000 1.0
C      1  0.4667570000000  0.4184230000000  0.4437050000000 1.0
C      1  0.5470830000000  0.4161470000000  0.4589970000000 1.0
C      1  0.5661480000000  0.4730310000000  0.5716160000000 1.0
C      1  0.4620660000000  0.4625350000000  0.5121690000000 1.0
C      1  0.5111930000000  0.5373730000000  0.6160790000000 1.0
C      1  0.4051340000000  0.5409540000000  0.5002080000000 1.0
C      1  0.6046500000000  0.4548580000000  0.4861960000000 1.0
C      1  0.5146870000000  0.6049810000000  0.5192530000000 1.0
C      1  0.5427560000000  0.4602030000000  0.4794890000000 1.0
C      1  0.5178280000000  0.4621440000000  0.4653880000000 1.0
C      1  0.4662050000000  0.4132250000000  0.4743110000000 1.0
C      1  0.5381650000000  0.5001050000000  0.4510400000000 1.0
C      1  0.5785100000000  0.5334650000000  0.4926560000000 1.0
C      1  0.4346910000000  0.4302070000000  0.5670270000000 1.0
C      1  0.4173980000000  0.5346070000000  0.4542510000000 1.0
C      1  0.4988780000000  0.5376600000000  0.5107710000000 1.0
C      1  0.4747020000000  0.6057220000000  0.4941190000000 1.0
C      1  0.6023760000000  0.4950340000000  0.5144900000000 1.0
C      1  0.5391280000000  0.4737980000000  0.3977760000000 1.0
C      1  0.5329810000000  0.5673830000000  0.5828820000000 1.0
C      1  0.5395200000000  0.4075410000000  0.4331550000000 1.0
C      1  0.4049500000000  0.5096270000000  0.4647150000000 1.0
C      1  0.4965770000000  0.5686930000000  0.4110210000000 1.0
C      1  0.5054410000000  0.3890600000000  0.5078270000000 1.0
C      1  0.4716880000000  0.4493980000000  0.5910380000000 1.0
C      1  0.4924770000000  0.4192810000000  0.4295810000000 1.0
C      1  0.5659710000000  0.5942670000000  0.4954360000000 1.0
C      1  0.5054460000000  0.4057560000000  0.5355280000000 1.0
C      1  0.5007310000000  0.4467060000000  0.4194650000000 1.0
END
