TITL C-951340-9809-587 1.42028544502532e-06 125000 -786.346102674394 0 0 125 (C1) n - 1
REM
REM in /home/bkarasulu/work/CARBON/AIRSS/Generating-Clusters/EDIP-Nigel-Params/with-SteepDescent/Only-C1/SD-CG/HFTN-CG
REM
REM
REM
REM
REM
REM ./C.cell (11c1c37f851c82e70ff6c80c92926a4b)
REM
REM compiler GCC version 9.2.1 20190827 (Red Hat 9.2.1-1)
REM options -cpp -mtune=generic -march=x86-64 -g -O0 -fpre-include=/usr/include/finclude/math-vector-fortran.h
REM seed -1396321447 -1116420492 -914258366 -602063311 -199638990 1180245816 -156771682 754278231 1047153330 923402725 918167478 -1015246308 882258311 1830291551 1405050369 -582335969 -583588138 -795495815 680179808 -1803682248 293970663 1627077889 262656294 -1149396032 462515457 163721428 721996439 -1157514016 1287111217 -1671730856 -7303092 299218004 803760619
REM
CELL 1.54180   50.00000   50.00000   50.00000   90.00000   90.00000   90.00000
LATT -1
SFAC C  
C      1  0.5716590000000  0.4484370000000  0.5017190000000 1.0
C      1  0.4074070000000  0.4922090000000  0.5288020000000 1.0
C      1  0.5561290000000  0.5306810000000  0.5257710000000 1.0
C      1  0.4923030000000  0.4268450000000  0.4446340000000 1.0
C      1  0.5242240000000  0.5881550000000  0.4651000000000 1.0
C      1  0.5478250000000  0.5838500000000  0.5113700000000 1.0
C      1  0.4423060000000  0.5839960000000  0.5162780000000 1.0
C      1  0.4551570000000  0.4903830000000  0.5454660000000 1.0
C      1  0.4926700000000  0.5648940000000  0.5071320000000 1.0
C      1  0.4581030000000  0.4461990000000  0.5611910000000 1.0
C      1  0.5236180000000  0.4704690000000  0.4497090000000 1.0
C      1  0.4998140000000  0.5252300000000  0.5945220000000 1.0
C      1  0.5172390000000  0.4217050000000  0.5616770000000 1.0
C      1  0.5647200000000  0.4419770000000  0.4557910000000 1.0
C      1  0.4590820000000  0.4652870000000  0.4320200000000 1.0
C      1  0.4368920000000  0.5393520000000  0.4294280000000 1.0
C      1  0.5376770000000  0.5911280000000  0.4423480000000 1.0
C      1  0.5665430000000  0.5015610000000  0.4315070000000 1.0
C      1  0.5739270000000  0.5034570000000  0.5602960000000 1.0
C      1  0.5632440000000  0.4847820000000  0.5799900000000 1.0
C      1  0.5549750000000  0.4747620000000  0.4297770000000 1.0
C      1  0.4967620000000  0.5532290000000  0.5837070000000 1.0
C      1  0.5176950000000  0.5521580000000  0.4941690000000 1.0
C      1  0.5426510000000  0.4252820000000  0.4490520000000 1.0
C      1  0.6012500000000  0.5074690000000  0.5530470000000 1.0
C      1  0.4912270000000  0.4087030000000  0.4671100000000 1.0
C      1  0.4244360000000  0.4980770000000  0.4580710000000 1.0
C      1  0.4187840000000  0.4642350000000  0.5251690000000 1.0
C      1  0.5394330000000  0.5416250000000  0.5726320000000 1.0
C      1  0.5781080000000  0.4582420000000  0.4748330000000 1.0
C      1  0.5749520000000  0.4887640000000  0.4808920000000 1.0
C      1  0.4937530000000  0.4522410000000  0.3975350000000 1.0
C      1  0.5379030000000  0.4920050000000  0.5922280000000 1.0
C      1  0.5431980000000  0.5264600000000  0.4743650000000 1.0
C      1  0.5191140000000  0.4477690000000  0.4088490000000 1.0
C      1  0.4410000000000  0.5435040000000  0.5726320000000 1.0
C      1  0.5536230000000  0.5497300000000  0.5480330000000 1.0
C      1  0.5302530000000  0.4732390000000  0.4806380000000 1.0
C      1  0.4268770000000  0.4502420000000  0.4675740000000 1.0
C      1  0.5098330000000  0.4248020000000  0.5887250000000 1.0
C      1  0.4769530000000  0.4722320000000  0.4070730000000 1.0
C      1  0.5020980000000  0.5268940000000  0.5366550000000 1.0
C      1  0.4942840000000  0.4959200000000  0.4145220000000 1.0
C      1  0.5867740000000  0.4624800000000  0.5225510000000 1.0
C      1  0.4808530000000  0.4610970000000  0.5731490000000 1.0
C      1  0.4789110000000  0.5213170000000  0.4096850000000 1.0
C      1  0.4686010000000  0.5428230000000  0.5068210000000 1.0
C      1  0.5370550000000  0.4714580000000  0.4068970000000 1.0
C      1  0.5064470000000  0.5126690000000  0.4868690000000 1.0
C      1  0.4732510000000  0.4794370000000  0.4548060000000 1.0
C      1  0.5810430000000  0.4542990000000  0.5486240000000 1.0
C      1  0.4531560000000  0.4808830000000  0.4944910000000 1.0
C      1  0.5186200000000  0.4411910000000  0.4382810000000 1.0
C      1  0.4753720000000  0.5088870000000  0.5903280000000 1.0
C      1  0.5372810000000  0.5735830000000  0.4876240000000 1.0
C      1  0.5318580000000  0.4257930000000  0.4943470000000 1.0
C      1  0.5851450000000  0.5354260000000  0.5155450000000 1.0
C      1  0.5585260000000  0.5019390000000  0.5350320000000 1.0
C      1  0.5409220000000  0.4515910000000  0.5015410000000 1.0
C      1  0.4178590000000  0.5279790000000  0.4497470000000 1.0
C      1  0.5057360000000  0.4836690000000  0.4917790000000 1.0
C      1  0.5814080000000  0.5089740000000  0.4573580000000 1.0
C      1  0.5001590000000  0.4090470000000  0.5435220000000 1.0
C      1  0.5318800000000  0.4883070000000  0.5383980000000 1.0
C      1  0.4660940000000  0.4058670000000  0.5098980000000 1.0
C      1  0.4516030000000  0.5017740000000  0.4719360000000 1.0
C      1  0.4215300000000  0.5432950000000  0.5272190000000 1.0
C      1  0.5099230000000  0.5031990000000  0.5538980000000 1.0
C      1  0.4755520000000  0.5371060000000  0.4545160000000 1.0
C      1  0.5473070000000  0.4967960000000  0.4830320000000 1.0
C      1  0.4440220000000  0.4634770000000  0.5425970000000 1.0
C      1  0.4545600000000  0.4371380000000  0.4696960000000 1.0
C      1  0.5258680000000  0.5313660000000  0.5147590000000 1.0
C      1  0.4575170000000  0.4190790000000  0.5552530000000 1.0
C      1  0.4293120000000  0.4701550000000  0.4434430000000 1.0
C      1  0.5479710000000  0.5775760000000  0.5389540000000 1.0
C      1  0.5872830000000  0.5432310000000  0.4891310000000 1.0
C      1  0.4990140000000  0.4912140000000  0.4444170000000 1.0
C      1  0.5232970000000  0.5655540000000  0.5792330000000 1.0
C      1  0.4954050000000  0.5815870000000  0.4628130000000 1.0
C      1  0.4923800000000  0.5453520000000  0.4051810000000 1.0
C      1  0.4703760000000  0.4911560000000  0.5194260000000 1.0
C      1  0.4011040000000  0.5065960000000  0.5030600000000 1.0
C      1  0.4475630000000  0.5571690000000  0.5250820000000 1.0
C      1  0.4982560000000  0.5746490000000  0.5375010000000 1.0
C      1  0.5808570000000  0.4906290000000  0.5143460000000 1.0
C      1  0.4817320000000  0.5847350000000  0.4882520000000 1.0
C      1  0.4609910000000  0.5233600000000  0.4324890000000 1.0
C      1  0.4365660000000  0.5709220000000  0.4686720000000 1.0
C      1  0.6012870000000  0.5116290000000  0.5245900000000 1.0
C      1  0.5231730000000  0.4978260000000  0.4057750000000 1.0
C      1  0.4919400000000  0.5701220000000  0.4154750000000 1.0
C      1  0.5591500000000  0.4500140000000  0.5650630000000 1.0
C      1  0.5130100000000  0.3911120000000  0.4696670000000 1.0
C      1  0.4569020000000  0.5320610000000  0.4788840000000 1.0
C      1  0.4179860000000  0.5330410000000  0.5577270000000 1.0
C      1  0.4958140000000  0.4732430000000  0.5178180000000 1.0
C      1  0.4279100000000  0.5080550000000  0.5430110000000 1.0
C      1  0.4798540000000  0.4903660000000  0.5666680000000 1.0
C      1  0.4526710000000  0.5249760000000  0.5900060000000 1.0
C      1  0.4791770000000  0.5194240000000  0.5203800000000 1.0
C      1  0.4245430000000  0.4674250000000  0.4937910000000 1.0
C      1  0.4587750000000  0.5554270000000  0.5524790000000 1.0
C      1  0.5016920000000  0.5186270000000  0.4576290000000 1.0
C      1  0.4521400000000  0.5844770000000  0.4899280000000 1.0
C      1  0.5720510000000  0.5352590000000  0.4674570000000 1.0
C      1  0.4735730000000  0.4060790000000  0.5367090000000 1.0
C      1  0.4662560000000  0.4112460000000  0.4825230000000 1.0
C      1  0.4118740000000  0.5341010000000  0.5006030000000 1.0
C      1  0.5018520000000  0.4516750000000  0.5909080000000 1.0
C      1  0.4077110000000  0.4886950000000  0.4813900000000 1.0
C      1  0.5405850000000  0.5163320000000  0.4241560000000 1.0
C      1  0.5235370000000  0.5151360000000  0.5787470000000 1.0
C      1  0.4704330000000  0.4604180000000  0.4798270000000 1.0
C      1  0.4883950000000  0.5522030000000  0.5542240000000 1.0
C      1  0.5275910000000  0.5292130000000  0.4482260000000 1.0
C      1  0.5209460000000  0.4706870000000  0.5986970000000 1.0
C      1  0.5353000000000  0.4417620000000  0.5504950000000 1.0
C      1  0.4790700000000  0.5779080000000  0.4388170000000 1.0
C      1  0.5227140000000  0.5830690000000  0.5536870000000 1.0
C      1  0.4651600000000  0.4376050000000  0.4417270000000 1.0
C      1  0.5351550000000  0.4086080000000  0.4726730000000 1.0
C      1  0.5263810000000  0.4604020000000  0.5280750000000 1.0
C      1  0.4276120000000  0.5423820000000  0.4752420000000 1.0
C      1  0.4511370000000  0.5653820000000  0.4426960000000 1.0
END
