TITL C-951338-5626-303 -1.41208049558413e-06 125000 -443.558043974721 0 0 72 (C1) n - 1
REM
REM in /home/bkarasulu/work/CARBON/AIRSS/Generating-Clusters/EDIP-Nigel-Params/with-SteepDescent/Only-C1/SD-CG/HFTN-CG
REM
REM
REM
REM
REM
REM ./C.cell (11c1c37f851c82e70ff6c80c92926a4b)
REM
REM compiler GCC version 9.2.1 20190827 (Red Hat 9.2.1-1)
REM options -cpp -mtune=generic -march=x86-64 -g -O0 -fpre-include=/usr/include/finclude/math-vector-fortran.h
REM seed -1066723214 1955314532 189965784 -2002159495 -671496398 1405107563 971141056 1593870627 -1118572405 -1519430685 -1994157764 -717820751 -2084157454 916257988 -1123772958 -696676670 -956811232 974288827 -639977946 -2103269658 1720530015 1237402038 -554542412 -2061656644 446876106 -973296955 -1395470088 2055656687 1328629135 -413106493 1866935953 -2042975625 -1624958691
REM
CELL 1.54180   50.00000   50.00000   50.00000   90.00000   90.00000   90.00000
LATT -1
SFAC C  
C      1  0.4535040000000  0.4432090000000  0.5026990000000 1.0
C      1  0.5425960000000  0.5628540000000  0.5149850000000 1.0
C      1  0.4406640000000  0.4837800000000  0.5469660000000 1.0
C      1  0.5177360000000  0.4794620000000  0.4487450000000 1.0
C      1  0.5195270000000  0.4331950000000  0.4876590000000 1.0
C      1  0.5734520000000  0.5360040000000  0.4833780000000 1.0
C      1  0.4648790000000  0.4884310000000  0.4861070000000 1.0
C      1  0.4662680000000  0.5133640000000  0.5072400000000 1.0
C      1  0.5527690000000  0.4683430000000  0.5315990000000 1.0
C      1  0.4727960000000  0.4523950000000  0.5246760000000 1.0
C      1  0.5097480000000  0.4977030000000  0.4265320000000 1.0
C      1  0.5566810000000  0.4494710000000  0.4577880000000 1.0
C      1  0.5654150000000  0.5429770000000  0.5124430000000 1.0
C      1  0.5687690000000  0.4942550000000  0.5277850000000 1.0
C      1  0.4499630000000  0.5309730000000  0.4546640000000 1.0
C      1  0.4986250000000  0.4561910000000  0.4493240000000 1.0
C      1  0.5108420000000  0.4879500000000  0.5617790000000 1.0
C      1  0.5604650000000  0.4981860000000  0.4488070000000 1.0
C      1  0.4718850000000  0.4589580000000  0.4385290000000 1.0
C      1  0.5351830000000  0.5701740000000  0.4870280000000 1.0
C      1  0.4216460000000  0.4830720000000  0.5267620000000 1.0
C      1  0.4875160000000  0.5313200000000  0.4962610000000 1.0
C      1  0.5437940000000  0.5448210000000  0.4728690000000 1.0
C      1  0.4955030000000  0.4425220000000  0.4741130000000 1.0
C      1  0.5128150000000  0.4441580000000  0.5553870000000 1.0
C      1  0.4683380000000  0.5558650000000  0.5435990000000 1.0
C      1  0.5444090000000  0.4489440000000  0.4828670000000 1.0
C      1  0.5109280000000  0.4828970000000  0.5032170000000 1.0
C      1  0.5679600000000  0.5054940000000  0.4781380000000 1.0
C      1  0.4943970000000  0.5198320000000  0.4685500000000 1.0
C      1  0.5503800000000  0.4536030000000  0.5561050000000 1.0
C      1  0.4707290000000  0.5082530000000  0.5779650000000 1.0
C      1  0.4908870000000  0.5632360000000  0.4632370000000 1.0
C      1  0.4803080000000  0.5008180000000  0.4265720000000 1.0
C      1  0.5552130000000  0.5202910000000  0.5277470000000 1.0
C      1  0.5154300000000  0.5013500000000  0.5264930000000 1.0
C      1  0.5333600000000  0.5196660000000  0.4894400000000 1.0
C      1  0.4871430000000  0.4854560000000  0.5776240000000 1.0
C      1  0.4211180000000  0.5151010000000  0.4929660000000 1.0
C      1  0.5132380000000  0.4250800000000  0.5132620000000 1.0
C      1  0.5621000000000  0.4573220000000  0.5047340000000 1.0
C      1  0.4830770000000  0.4780530000000  0.5101260000000 1.0
C      1  0.4671500000000  0.4774430000000  0.4179110000000 1.0
C      1  0.5149390000000  0.4976030000000  0.4758470000000 1.0
C      1  0.5062940000000  0.5763890000000  0.4852720000000 1.0
C      1  0.4260030000000  0.5217820000000  0.4661300000000 1.0
C      1  0.5416630000000  0.5160990000000  0.4341650000000 1.0
C      1  0.5467030000000  0.4722850000000  0.4452040000000 1.0
C      1  0.4572230000000  0.4597850000000  0.5498700000000 1.0
C      1  0.4970820000000  0.4356580000000  0.5329500000000 1.0
C      1  0.4419250000000  0.4688390000000  0.4854620000000 1.0
C      1  0.5146270000000  0.5289570000000  0.5126640000000 1.0
C      1  0.5233730000000  0.5553920000000  0.5452160000000 1.0
C      1  0.4617110000000  0.5545510000000  0.4693970000000 1.0
C      1  0.5778870000000  0.4850490000000  0.4994750000000 1.0
C      1  0.4475900000000  0.5336130000000  0.5415820000000 1.0
C      1  0.5260360000000  0.5108370000000  0.5654910000000 1.0
C      1  0.4671620000000  0.4338410000000  0.4776390000000 1.0
C      1  0.5361190000000  0.4305840000000  0.5616060000000 1.0
C      1  0.4954950000000  0.5538960000000  0.5530040000000 1.0
C      1  0.4705020000000  0.5092200000000  0.4540290000000 1.0
C      1  0.4521730000000  0.4469290000000  0.4558470000000 1.0
C      1  0.4202380000000  0.4859390000000  0.4993170000000 1.0
C      1  0.4696330000000  0.5689770000000  0.5173310000000 1.0
C      1  0.5061510000000  0.5470390000000  0.4441810000000 1.0
C      1  0.4413950000000  0.5303470000000  0.5108720000000 1.0
C      1  0.5387590000000  0.5303030000000  0.5499160000000 1.0
C      1  0.4510070000000  0.5563620000000  0.4978320000000 1.0
C      1  0.4731110000000  0.4617050000000  0.5729970000000 1.0
C      1  0.4984180000000  0.5648480000000  0.5110450000000 1.0
C      1  0.5344250000000  0.5418980000000  0.4448960000000 1.0
C      1  0.4531490000000  0.5088010000000  0.5560830000000 1.0
END
