TITL C-950525-1983-215 5.00403503331794e-09 125000 -946.66345468403 0 0 151 (C1) n - 1
REM
REM in /home/bkarasulu/work/CARBON/AIRSS/Generating-Clusters/EDIP-Nigel-Params/with-SteepDescent/Only-C1/SD-CG/HFTN-CG
REM
REM
REM
REM
REM
REM ./C.cell (11c1c37f851c82e70ff6c80c92926a4b)
REM
REM compiler GCC version 9.2.1 20190827 (Red Hat 9.2.1-1)
REM options -cpp -mtune=generic -march=x86-64 -g -O0 -fpre-include=/usr/include/finclude/math-vector-fortran.h
REM seed -1393828869 615782249 937802811 -1659002139 68381455 1441097454 -1252630704 781848238 -1139514477 -1326020027 1748730733 -860339054 609127734 847260820 -2120524181 337985662 -446196096 -174040813 933086382 -1500723971 1283533864 -532440132 1594644669 1180801020 -777858230 1942568435 -1059188011 77993160 1595077113 1777226599 970982149 -154303586 860300449
REM
CELL 1.54180   50.00000   50.00000   50.00000   90.00000   90.00000   90.00000
LATT -1
SFAC C  
C      1  0.4479060000000  0.4139310000000  0.4624070000000 1.0
C      1  0.5942060000000  0.4739240000000  0.5317980000000 1.0
C      1  0.5806190000000  0.5117570000000  0.5641560000000 1.0
C      1  0.5471380000000  0.4203620000000  0.4559310000000 1.0
C      1  0.4776460000000  0.4435020000000  0.5887270000000 1.0
C      1  0.5185150000000  0.3961830000000  0.4909470000000 1.0
C      1  0.4533550000000  0.4107130000000  0.5256050000000 1.0
C      1  0.5525000000000  0.5818290000000  0.4603680000000 1.0
C      1  0.4725630000000  0.5591680000000  0.4784100000000 1.0
C      1  0.4883820000000  0.4339650000000  0.5029130000000 1.0
C      1  0.5297670000000  0.4584250000000  0.5965610000000 1.0
C      1  0.4241830000000  0.5257010000000  0.5664340000000 1.0
C      1  0.5045250000000  0.5753530000000  0.4422410000000 1.0
C      1  0.4983130000000  0.4699830000000  0.5681950000000 1.0
C      1  0.5146360000000  0.5913240000000  0.4967610000000 1.0
C      1  0.5032970000000  0.4045370000000  0.5363740000000 1.0
C      1  0.5266140000000  0.5364020000000  0.6028210000000 1.0
C      1  0.5088820000000  0.4717810000000  0.4549130000000 1.0
C      1  0.4473810000000  0.5302650000000  0.5077920000000 1.0
C      1  0.5656640000000  0.5801690000000  0.5054970000000 1.0
C      1  0.5079850000000  0.4173720000000  0.4225470000000 1.0
C      1  0.4664270000000  0.4356510000000  0.4621130000000 1.0
C      1  0.5442960000000  0.4819940000000  0.4894710000000 1.0
C      1  0.4830230000000  0.5040250000000  0.4132840000000 1.0
C      1  0.5113870000000  0.4549690000000  0.4141190000000 1.0
C      1  0.4580340000000  0.4549490000000  0.5059480000000 1.0
C      1  0.4661050000000  0.5480690000000  0.5721420000000 1.0
C      1  0.4442560000000  0.5917650000000  0.4892680000000 1.0
C      1  0.5295510000000  0.4931000000000  0.4449380000000 1.0
C      1  0.5123560000000  0.5005940000000  0.5225910000000 1.0
C      1  0.4074850000000  0.4752180000000  0.4571990000000 1.0
C      1  0.4938790000000  0.4289020000000  0.4739500000000 1.0
C      1  0.4622850000000  0.5833830000000  0.4653740000000 1.0
C      1  0.5530090000000  0.4234060000000  0.5672990000000 1.0
C      1  0.4406500000000  0.5486480000000  0.5589930000000 1.0
C      1  0.4428850000000  0.4808520000000  0.5640760000000 1.0
C      1  0.5802320000000  0.4811810000000  0.4574210000000 1.0
C      1  0.4187250000000  0.5298340000000  0.5185570000000 1.0
C      1  0.5771190000000  0.5277190000000  0.4259630000000 1.0
C      1  0.4076310000000  0.5033270000000  0.4498770000000 1.0
C      1  0.5221360000000  0.5096100000000  0.5937910000000 1.0
C      1  0.4186620000000  0.4303280000000  0.4946120000000 1.0
C      1  0.5412300000000  0.5326990000000  0.5407900000000 1.0
C      1  0.4938520000000  0.4813190000000  0.4801850000000 1.0
C      1  0.5402370000000  0.5024020000000  0.5337600000000 1.0
C      1  0.4750140000000  0.4694610000000  0.5257800000000 1.0
C      1  0.5560560000000  0.5240720000000  0.4689770000000 1.0
C      1  0.5596270000000  0.5774530000000  0.5336790000000 1.0
C      1  0.5267900000000  0.4011520000000  0.4631740000000 1.0
C      1  0.4407990000000  0.5064000000000  0.5812840000000 1.0
C      1  0.4900350000000  0.3886890000000  0.4911380000000 1.0
C      1  0.4128780000000  0.5128620000000  0.5432280000000 1.0
C      1  0.4811390000000  0.3941150000000  0.4629590000000 1.0
C      1  0.5743880000000  0.5595680000000  0.5489370000000 1.0
C      1  0.5790810000000  0.5667200000000  0.4620990000000 1.0
C      1  0.4528060000000  0.5288530000000  0.4333720000000 1.0
C      1  0.5108520000000  0.4997660000000  0.5667720000000 1.0
C      1  0.4966610000000  0.5264100000000  0.4273170000000 1.0
C      1  0.5001680000000  0.4763710000000  0.5105460000000 1.0
C      1  0.5395500000000  0.4932230000000  0.4166150000000 1.0
C      1  0.5697580000000  0.5381730000000  0.5654860000000 1.0
C      1  0.4580490000000  0.6014090000000  0.5130940000000 1.0
C      1  0.4228340000000  0.4515170000000  0.4493780000000 1.0
C      1  0.4234380000000  0.4482890000000  0.5406960000000 1.0
C      1  0.5311220000000  0.5534660000000  0.5807580000000 1.0
C      1  0.4200220000000  0.5728060000000  0.4925870000000 1.0
C      1  0.4817860000000  0.4069290000000  0.5147390000000 1.0
C      1  0.4673170000000  0.5091990000000  0.5084380000000 1.0
C      1  0.5318820000000  0.5643180000000  0.4482510000000 1.0
C      1  0.4174800000000  0.5136580000000  0.4238060000000 1.0
C      1  0.4369760000000  0.4353830000000  0.5165490000000 1.0
C      1  0.4805600000000  0.5065870000000  0.4810240000000 1.0
C      1  0.5789270000000  0.5365990000000  0.4535270000000 1.0
C      1  0.4153630000000  0.5422870000000  0.4233240000000 1.0
C      1  0.4220600000000  0.5495430000000  0.4717820000000 1.0
C      1  0.4499620000000  0.5391840000000  0.4799200000000 1.0
C      1  0.5498970000000  0.4807900000000  0.5561560000000 1.0
C      1  0.5715500000000  0.4931150000000  0.5846620000000 1.0
C      1  0.5925300000000  0.5347530000000  0.4980380000000 1.0
C      1  0.6058520000000  0.5140670000000  0.5165320000000 1.0
C      1  0.4221860000000  0.4266650000000  0.4667470000000 1.0
C      1  0.5443830000000  0.5894280000000  0.4878960000000 1.0
C      1  0.5142280000000  0.6009950000000  0.5249690000000 1.0
C      1  0.5666640000000  0.4313440000000  0.5436930000000 1.0
C      1  0.4386720000000  0.4366280000000  0.5632490000000 1.0
C      1  0.4230130000000  0.5600090000000  0.4441100000000 1.0
C      1  0.6039590000000  0.4947210000000  0.4710620000000 1.0
C      1  0.5905320000000  0.5017630000000  0.5382290000000 1.0
C      1  0.4972730000000  0.5614490000000  0.4980480000000 1.0
C      1  0.4581700000000  0.5146660000000  0.4621960000000 1.0
C      1  0.4062890000000  0.5226740000000  0.4722540000000 1.0
C      1  0.5700780000000  0.4612980000000  0.5416530000000 1.0
C      1  0.5096950000000  0.4457060000000  0.5519040000000 1.0
C      1  0.5694890000000  0.4216260000000  0.4721110000000 1.0
C      1  0.5141060000000  0.4493980000000  0.5158390000000 1.0
C      1  0.6093070000000  0.4895770000000  0.5000590000000 1.0
C      1  0.5817690000000  0.4637560000000  0.4354100000000 1.0
C      1  0.4943160000000  0.5848330000000  0.5625640000000 1.0
C      1  0.5612270000000  0.4350860000000  0.4953200000000 1.0
C      1  0.4468000000000  0.5761120000000  0.4396730000000 1.0
C      1  0.5631830000000  0.5083450000000  0.4132500000000 1.0
C      1  0.4494540000000  0.5934220000000  0.5383280000000 1.0
C      1  0.4994290000000  0.4626270000000  0.5988140000000 1.0
C      1  0.5418390000000  0.5434840000000  0.5113830000000 1.0
C      1  0.4161780000000  0.4850870000000  0.5087540000000 1.0
C      1  0.4882020000000  0.5547660000000  0.4283840000000 1.0
C      1  0.5168290000000  0.5381600000000  0.5602850000000 1.0
C      1  0.5569310000000  0.4983180000000  0.5096110000000 1.0
C      1  0.4162090000000  0.4800630000000  0.5402690000000 1.0
C      1  0.5156110000000  0.5187120000000  0.4473600000000 1.0
C      1  0.5341100000000  0.4443800000000  0.5702070000000 1.0
C      1  0.4436670000000  0.4860340000000  0.4668810000000 1.0
C      1  0.4651360000000  0.4871560000000  0.5465130000000 1.0
C      1  0.5626930000000  0.4548910000000  0.4183990000000 1.0
C      1  0.4505670000000  0.4555010000000  0.5815940000000 1.0
C      1  0.4823930000000  0.5096250000000  0.5568380000000 1.0
C      1  0.4036550000000  0.5120110000000  0.4997060000000 1.0
C      1  0.4139810000000  0.5611080000000  0.5198520000000 1.0
C      1  0.4905170000000  0.5560990000000  0.5555730000000 1.0
C      1  0.4630950000000  0.4613890000000  0.4216250000000 1.0
C      1  0.4666050000000  0.4378490000000  0.4073020000000 1.0
C      1  0.4904740000000  0.4251720000000  0.4018190000000 1.0
C      1  0.5558600000000  0.4180940000000  0.5189380000000 1.0
C      1  0.4904860000000  0.4209450000000  0.5597200000000 1.0
C      1  0.5190210000000  0.5421830000000  0.4920720000000 1.0
C      1  0.5338710000000  0.5879790000000  0.5427290000000 1.0
C      1  0.5389720000000  0.4656660000000  0.4080230000000 1.0
C      1  0.4523300000000  0.4588390000000  0.4491980000000 1.0
C      1  0.4884660000000  0.5504510000000  0.5257050000000 1.0
C      1  0.4675310000000  0.5205960000000  0.5812720000000 1.0
C      1  0.4876380000000  0.6015030000000  0.5382190000000 1.0
C      1  0.5624810000000  0.5256110000000  0.4983630000000 1.0
C      1  0.4541720000000  0.5085570000000  0.4117410000000 1.0
C      1  0.5296530000000  0.5383110000000  0.4639730000000 1.0
C      1  0.5362530000000  0.4526980000000  0.4921640000000 1.0
C      1  0.5274600000000  0.4072270000000  0.5172230000000 1.0
C      1  0.5533230000000  0.4940120000000  0.4640770000000 1.0
C      1  0.6011410000000  0.5245380000000  0.4702100000000 1.0
C      1  0.4593820000000  0.4178750000000  0.5533350000000 1.0
C      1  0.4891170000000  0.5956860000000  0.4587240000000 1.0
C      1  0.4316100000000  0.5709100000000  0.5421250000000 1.0
C      1  0.5049120000000  0.3986770000000  0.4445120000000 1.0
C      1  0.4625860000000  0.5633450000000  0.4193840000000 1.0
C      1  0.5236520000000  0.5823470000000  0.5701940000000 1.0
C      1  0.5877410000000  0.5663050000000  0.4912290000000 1.0
C      1  0.5018870000000  0.6099320000000  0.4789900000000 1.0
C      1  0.4887150000000  0.4754850000000  0.4223070000000 1.0
C      1  0.4436160000000  0.4811390000000  0.4968330000000 1.0
C      1  0.5428450000000  0.4868770000000  0.5938500000000 1.0
C      1  0.5205660000000  0.4448360000000  0.4657920000000 1.0
C      1  0.4890670000000  0.5196640000000  0.5276250000000 1.0
END
