TITL C-951347-9520-261 7.00054480590968e-07 125000 -1215.39977659846 0 0 195 (C1) n - 1
REM
REM in /home/bkarasulu/work/CARBON/AIRSS/Generating-Clusters/EDIP-Nigel-Params/with-SteepDescent/Only-C1/SD-CG/HFTN-CG
REM
REM
REM
REM
REM
REM ./C.cell (11c1c37f851c82e70ff6c80c92926a4b)
REM
REM compiler GCC version 9.2.1 20190827 (Red Hat 9.2.1-1)
REM options -cpp -mtune=generic -march=x86-64 -g -O0 -fpre-include=/usr/include/finclude/math-vector-fortran.h
REM seed 1053097157 174257063 1375886156 1742834994 1585713313 1754149827 1541915269 -1097720059 492191496 -109072418 -136259356 -1248929019 -1884288187 -175751621 678088146 -420986082 -601733323 -480575828 346705453 -229813248 1780317358 -1800526573 1274687219 1424723554 575712240 -822003960 -1891301544 1783664284 1766827193 108370741 1033934936 1836199093 -899873669
REM
CELL 1.54180   50.00000   50.00000   50.00000   90.00000   90.00000   90.00000
LATT -1
SFAC C  
C      1  0.4505570000000  0.5208190000000  0.5839240000000 1.0
C      1  0.4198130000000  0.4486450000000  0.5447120000000 1.0
C      1  0.4467840000000  0.5925910000000  0.5261100000000 1.0
C      1  0.5591850000000  0.4084750000000  0.5106650000000 1.0
C      1  0.5209650000000  0.4818610000000  0.4940580000000 1.0
C      1  0.5052970000000  0.4919050000000  0.6150150000000 1.0
C      1  0.6006830000000  0.4530760000000  0.5226770000000 1.0
C      1  0.5251390000000  0.5378940000000  0.5040550000000 1.0
C      1  0.4320930000000  0.5381590000000  0.4764120000000 1.0
C      1  0.5041410000000  0.6034670000000  0.4815880000000 1.0
C      1  0.3776630000000  0.4715580000000  0.4881730000000 1.0
C      1  0.5402910000000  0.4329610000000  0.4301690000000 1.0
C      1  0.5132440000000  0.4184580000000  0.4388430000000 1.0
C      1  0.5004370000000  0.5344470000000  0.4837190000000 1.0
C      1  0.4882850000000  0.4424950000000  0.5924890000000 1.0
C      1  0.5210570000000  0.4553530000000  0.5080480000000 1.0
C      1  0.4298470000000  0.5867890000000  0.4636160000000 1.0
C      1  0.5512770000000  0.5818570000000  0.4305240000000 1.0
C      1  0.5215580000000  0.4027220000000  0.5813440000000 1.0
C      1  0.5475720000000  0.4976760000000  0.3887710000000 1.0
C      1  0.4110070000000  0.4368280000000  0.4900090000000 1.0
C      1  0.4711720000000  0.4095270000000  0.4166560000000 1.0
C      1  0.5082170000000  0.4867540000000  0.4678550000000 1.0
C      1  0.5529400000000  0.4863550000000  0.5940440000000 1.0
C      1  0.5223560000000  0.5380950000000  0.3985420000000 1.0
C      1  0.5629590000000  0.5560660000000  0.4260150000000 1.0
C      1  0.5034460000000  0.5401890000000  0.6095580000000 1.0
C      1  0.4309140000000  0.4598140000000  0.4909090000000 1.0
C      1  0.5844110000000  0.5608620000000  0.4711150000000 1.0
C      1  0.5218070000000  0.5270490000000  0.5557660000000 1.0
C      1  0.4246920000000  0.5204050000000  0.5682300000000 1.0
C      1  0.5503100000000  0.4924890000000  0.4910300000000 1.0
C      1  0.4116120000000  0.5802930000000  0.4861110000000 1.0
C      1  0.6067380000000  0.5229870000000  0.4885130000000 1.0
C      1  0.5210610000000  0.3991220000000  0.4897740000000 1.0
C      1  0.4314890000000  0.4501470000000  0.4255150000000 1.0
C      1  0.5712720000000  0.5965880000000  0.4994730000000 1.0
C      1  0.5669120000000  0.5173020000000  0.3950970000000 1.0
C      1  0.5962290000000  0.5547400000000  0.5204400000000 1.0
C      1  0.4231100000000  0.5712530000000  0.4389200000000 1.0
C      1  0.4872880000000  0.5488290000000  0.5342340000000 1.0
C      1  0.4710770000000  0.5212410000000  0.4414760000000 1.0
C      1  0.5990180000000  0.4390250000000  0.4691530000000 1.0
C      1  0.4593600000000  0.4363420000000  0.5851670000000 1.0
C      1  0.4581010000000  0.4413430000000  0.4342220000000 1.0
C      1  0.4005380000000  0.4629960000000  0.5278330000000 1.0
C      1  0.4419300000000  0.5639940000000  0.5682230000000 1.0
C      1  0.5050060000000  0.4471530000000  0.3979580000000 1.0
C      1  0.4486810000000  0.5428530000000  0.4476080000000 1.0
C      1  0.5839580000000  0.4554950000000  0.4309310000000 1.0
C      1  0.5467640000000  0.5911070000000  0.4584520000000 1.0
C      1  0.5750680000000  0.4316820000000  0.4488960000000 1.0
C      1  0.5198580000000  0.6081960000000  0.4574010000000 1.0
C      1  0.5141440000000  0.4850800000000  0.4233920000000 1.0
C      1  0.5382860000000  0.5446190000000  0.5767970000000 1.0
C      1  0.5090800000000  0.5769160000000  0.4910820000000 1.0
C      1  0.6137940000000  0.4889940000000  0.4552120000000 1.0
C      1  0.5877180000000  0.4510920000000  0.4948800000000 1.0
C      1  0.4817090000000  0.5933560000000  0.5598220000000 1.0
C      1  0.4228790000000  0.5464880000000  0.5548160000000 1.0
C      1  0.5059480000000  0.4987640000000  0.5138050000000 1.0
C      1  0.4258110000000  0.4773360000000  0.4635590000000 1.0
C      1  0.5328470000000  0.5669180000000  0.4727250000000 1.0
C      1  0.3892980000000  0.4513230000000  0.5036060000000 1.0
C      1  0.4858380000000  0.5707430000000  0.4250440000000 1.0
C      1  0.4528620000000  0.5545310000000  0.4933960000000 1.0
C      1  0.4967070000000  0.4166590000000  0.5286770000000 1.0
C      1  0.4464070000000  0.4622550000000  0.5840350000000 1.0
C      1  0.4146100000000  0.4520880000000  0.4486020000000 1.0
C      1  0.5932330000000  0.4806830000000  0.5649860000000 1.0
C      1  0.4595220000000  0.5040250000000  0.4808340000000 1.0
C      1  0.5517550000000  0.5390330000000  0.4048590000000 1.0
C      1  0.4503900000000  0.5052070000000  0.6095930000000 1.0
C      1  0.4460510000000  0.4035570000000  0.5216070000000 1.0
C      1  0.4888600000000  0.4832170000000  0.5323260000000 1.0
C      1  0.5028140000000  0.3881360000000  0.4689290000000 1.0
C      1  0.4064410000000  0.4292000000000  0.4632320000000 1.0
C      1  0.5346490000000  0.4492290000000  0.4044620000000 1.0
C      1  0.5603330000000  0.5085750000000  0.5492520000000 1.0
C      1  0.4033670000000  0.5512560000000  0.4825130000000 1.0
C      1  0.4928800000000  0.5348130000000  0.5606880000000 1.0
C      1  0.3988600000000  0.4921360000000  0.5331610000000 1.0
C      1  0.4912160000000  0.5167380000000  0.6222570000000 1.0
C      1  0.5749340000000  0.4182970000000  0.5539970000000 1.0
C      1  0.5004240000000  0.5791370000000  0.5775170000000 1.0
C      1  0.5509320000000  0.5944000000000  0.5182090000000 1.0
C      1  0.4230070000000  0.5795100000000  0.5142210000000 1.0
C      1  0.5479810000000  0.4044370000000  0.5907280000000 1.0
C      1  0.5252120000000  0.5172370000000  0.5258190000000 1.0
C      1  0.3960220000000  0.4914970000000  0.4427470000000 1.0
C      1  0.4091460000000  0.5573500000000  0.5296950000000 1.0
C      1  0.4967100000000  0.4316730000000  0.4715740000000 1.0
C      1  0.4887490000000  0.5526670000000  0.5856400000000 1.0
C      1  0.3930720000000  0.5405290000000  0.5097090000000 1.0
C      1  0.4555230000000  0.5836830000000  0.5523270000000 1.0
C      1  0.4353510000000  0.4222420000000  0.5437630000000 1.0
C      1  0.4985400000000  0.4817160000000  0.5600170000000 1.0
C      1  0.4580840000000  0.5798430000000  0.4733330000000 1.0
C      1  0.5123910000000  0.5802230000000  0.4321770000000 1.0
C      1  0.4773730000000  0.4072480000000  0.4692800000000 1.0
C      1  0.5023500000000  0.5320620000000  0.4548330000000 1.0
C      1  0.4751270000000  0.3961580000000  0.5245400000000 1.0
C      1  0.4211500000000  0.5248840000000  0.4182960000000 1.0
C      1  0.4805130000000  0.4382200000000  0.5437280000000 1.0
C      1  0.5102530000000  0.4664300000000  0.4475430000000 1.0
C      1  0.5433360000000  0.6163910000000  0.5337190000000 1.0
C      1  0.4595930000000  0.4478750000000  0.4966800000000 1.0
C      1  0.5299110000000  0.5307550000000  0.6018390000000 1.0
C      1  0.6017830000000  0.5501480000000  0.4920090000000 1.0
C      1  0.3870150000000  0.5104170000000  0.4615580000000 1.0
C      1  0.5725890000000  0.5872070000000  0.4737610000000 1.0
C      1  0.5839380000000  0.5733400000000  0.5392050000000 1.0
C      1  0.4949400000000  0.4257250000000  0.4167410000000 1.0
C      1  0.4587230000000  0.4774720000000  0.6053690000000 1.0
C      1  0.5993130000000  0.5060520000000  0.5763510000000 1.0
C      1  0.5044270000000  0.5728620000000  0.5218540000000 1.0
C      1  0.4339880000000  0.5286300000000  0.5160800000000 1.0
C      1  0.5208830000000  0.5089050000000  0.4534670000000 1.0
C      1  0.5106560000000  0.4264650000000  0.5003900000000 1.0
C      1  0.5369820000000  0.4528560000000  0.4522370000000 1.0
C      1  0.5356760000000  0.5690260000000  0.5256620000000 1.0
C      1  0.3806010000000  0.4992870000000  0.4876720000000 1.0
C      1  0.4350000000000  0.4772070000000  0.4162610000000 1.0
C      1  0.5679580000000  0.5731060000000  0.5645270000000 1.0
C      1  0.5689430000000  0.5460950000000  0.5780700000000 1.0
C      1  0.5468570000000  0.3894610000000  0.4940040000000 1.0
C      1  0.5953290000000  0.4800240000000  0.5348190000000 1.0
C      1  0.5473530000000  0.4376590000000  0.4745580000000 1.0
C      1  0.4403770000000  0.4799770000000  0.5227070000000 1.0
C      1  0.4981160000000  0.4516580000000  0.5649870000000 1.0
C      1  0.5610340000000  0.4377320000000  0.5008880000000 1.0
C      1  0.4944050000000  0.5475490000000  0.4076790000000 1.0
C      1  0.4144960000000  0.4972180000000  0.4221840000000 1.0
C      1  0.4693310000000  0.6076940000000  0.5141970000000 1.0
C      1  0.4405970000000  0.5288250000000  0.3973770000000 1.0
C      1  0.3918230000000  0.5391260000000  0.4577300000000 1.0
C      1  0.4575760000000  0.4822360000000  0.3988840000000 1.0
C      1  0.4729670000000  0.5296060000000  0.4922010000000 1.0
C      1  0.5300880000000  0.5011740000000  0.6016300000000 1.0
C      1  0.4756220000000  0.5250640000000  0.4104990000000 1.0
C      1  0.4774840000000  0.5241460000000  0.5203540000000 1.0
C      1  0.4350060000000  0.5021490000000  0.4975160000000 1.0
C      1  0.5925620000000  0.5193840000000  0.4440050000000 1.0
C      1  0.4601130000000  0.4105120000000  0.4440990000000 1.0
C      1  0.5445370000000  0.4619040000000  0.5519930000000 1.0
C      1  0.5694460000000  0.5286670000000  0.5119860000000 1.0
C      1  0.4728140000000  0.5104210000000  0.5635110000000 1.0
C      1  0.6055420000000  0.4960400000000  0.4815390000000 1.0
C      1  0.4867320000000  0.4682790000000  0.6112310000000 1.0
C      1  0.4549370000000  0.4901660000000  0.4537030000000 1.0
C      1  0.5511110000000  0.5365820000000  0.4868600000000 1.0
C      1  0.4507960000000  0.5053780000000  0.3818680000000 1.0
C      1  0.5417160000000  0.4781270000000  0.4112480000000 1.0
C      1  0.4169100000000  0.4952020000000  0.5558900000000 1.0
C      1  0.5740100000000  0.4448470000000  0.5917630000000 1.0
C      1  0.4539760000000  0.5102220000000  0.5366070000000 1.0
C      1  0.4581850000000  0.5500580000000  0.5884210000000 1.0
C      1  0.4990780000000  0.4960910000000  0.3782960000000 1.0
C      1  0.5810630000000  0.5233380000000  0.5641280000000 1.0
C      1  0.5232200000000  0.5126630000000  0.3826400000000 1.0
C      1  0.5957300000000  0.4318950000000  0.5405960000000 1.0
C      1  0.4270220000000  0.4689260000000  0.5637020000000 1.0
C      1  0.4603330000000  0.4224140000000  0.5593520000000 1.0
C      1  0.4692950000000  0.5648080000000  0.4493870000000 1.0
C      1  0.5560340000000  0.5467440000000  0.5359560000000 1.0
C      1  0.4595850000000  0.4166740000000  0.4956300000000 1.0
C      1  0.4643040000000  0.5174250000000  0.6307070000000 1.0
C      1  0.5705490000000  0.4190380000000  0.5824930000000 1.0
C      1  0.5150530000000  0.3896270000000  0.4434580000000 1.0
C      1  0.5229140000000  0.6062470000000  0.5500130000000 1.0
C      1  0.4768370000000  0.5132770000000  0.3733310000000 1.0
C      1  0.4720740000000  0.4643480000000  0.4502940000000 1.0
C      1  0.5722670000000  0.4993380000000  0.4525250000000 1.0
C      1  0.5203040000000  0.5557540000000  0.4484670000000 1.0
C      1  0.6088980000000  0.4603120000000  0.4478970000000 1.0
C      1  0.4792970000000  0.4544960000000  0.4765110000000 1.0
C      1  0.5672470000000  0.4681750000000  0.5760870000000 1.0
C      1  0.5531260000000  0.4057390000000  0.5394580000000 1.0
C      1  0.4745710000000  0.6045680000000  0.4850960000000 1.0
C      1  0.5707560000000  0.4954950000000  0.5244440000000 1.0
C      1  0.5035700000000  0.4179540000000  0.5971850000000 1.0
C      1  0.5287200000000  0.4891300000000  0.5594340000000 1.0
C      1  0.5250510000000  0.4416110000000  0.5607250000000 1.0
C      1  0.5243510000000  0.4127330000000  0.5517070000000 1.0
C      1  0.5655880000000  0.4788710000000  0.4309940000000 1.0
C      1  0.3937210000000  0.5110400000000  0.5107930000000 1.0
C      1  0.4928340000000  0.4764940000000  0.4005760000000 1.0
C      1  0.4962170000000  0.6004580000000  0.5349900000000 1.0
C      1  0.4075170000000  0.5468630000000  0.4337170000000 1.0
C      1  0.5807400000000  0.4796870000000  0.4853650000000 1.0
C      1  0.5298020000000  0.5813780000000  0.5668490000000 1.0
C      1  0.5834880000000  0.5471210000000  0.4452240000000 1.0
C      1  0.5482600000000  0.5122200000000  0.4680280000000 1.0
C      1  0.5475220000000  0.4579940000000  0.5209020000000 1.0
C      1  0.4686120000000  0.4614100000000  0.5247710000000 1.0
END
