TITL C-950522-5749-729 -6.66391837031728e-07 125000 -660.109732471087 0 0 106 (C1) n - 1
REM
REM in /home/bkarasulu/work/CARBON/AIRSS/Generating-Clusters/EDIP-Nigel-Params/with-SteepDescent/Only-C1/SD-CG/HFTN-CG
REM
REM
REM
REM
REM
REM ./C.cell (11c1c37f851c82e70ff6c80c92926a4b)
REM
REM compiler GCC version 9.2.1 20190827 (Red Hat 9.2.1-1)
REM options -cpp -mtune=generic -march=x86-64 -g -O0 -fpre-include=/usr/include/finclude/math-vector-fortran.h
REM seed 1133071371 -1166049357 1149434570 1292451965 -70042992 1553673333 1658364645 -1723112065 -2143144497 -1080994314 321129003 1164037467 -550995462 -1045064494 119575338 315747039 -1992719563 -628674812 -65166253 1421679978 -689647516 -101121309 -172042418 934583502 -1977896051 -1932761291 621439810 408784409 666560376 -40023880 -1327379908 268006469 -153582624
REM
CELL 1.54180   50.00000   50.00000   50.00000   90.00000   90.00000   90.00000
LATT -1
SFAC C  
C      1  0.5489910000000  0.5468180000000  0.5296770000000 1.0
C      1  0.4390930000000  0.5337290000000  0.4479300000000 1.0
C      1  0.4804730000000  0.5135240000000  0.4942490000000 1.0
C      1  0.5159110000000  0.4484800000000  0.5811600000000 1.0
C      1  0.5016070000000  0.4784290000000  0.4261270000000 1.0
C      1  0.4340950000000  0.4951000000000  0.4677510000000 1.0
C      1  0.4889010000000  0.4598670000000  0.4458100000000 1.0
C      1  0.4633990000000  0.4511340000000  0.5624180000000 1.0
C      1  0.5991170000000  0.4975010000000  0.4944840000000 1.0
C      1  0.5525870000000  0.4495280000000  0.4625640000000 1.0
C      1  0.5908330000000  0.5256440000000  0.5052350000000 1.0
C      1  0.5028420000000  0.4311170000000  0.4808230000000 1.0
C      1  0.4824880000000  0.4934380000000  0.5822210000000 1.0
C      1  0.5237230000000  0.5569600000000  0.5739050000000 1.0
C      1  0.4278790000000  0.4877760000000  0.4392680000000 1.0
C      1  0.5174580000000  0.5614730000000  0.4531150000000 1.0
C      1  0.4757610000000  0.5115650000000  0.5229740000000 1.0
C      1  0.5685840000000  0.5253020000000  0.5229700000000 1.0
C      1  0.4777350000000  0.5774090000000  0.5435090000000 1.0
C      1  0.4443020000000  0.4655250000000  0.4289990000000 1.0
C      1  0.4932850000000  0.4639940000000  0.4986750000000 1.0
C      1  0.4691980000000  0.4649440000000  0.5177810000000 1.0
C      1  0.5695980000000  0.5063430000000  0.5446420000000 1.0
C      1  0.5326200000000  0.4961510000000  0.5774710000000 1.0
C      1  0.5445250000000  0.4095070000000  0.5372320000000 1.0
C      1  0.5194560000000  0.5822420000000  0.5630530000000 1.0
C      1  0.5481050000000  0.5456830000000  0.5620070000000 1.0
C      1  0.5267210000000  0.4196420000000  0.4941060000000 1.0
C      1  0.4965250000000  0.5783900000000  0.4412100000000 1.0
C      1  0.4460370000000  0.5529560000000  0.5630840000000 1.0
C      1  0.5311580000000  0.5179040000000  0.4827770000000 1.0
C      1  0.5302260000000  0.5460420000000  0.4304660000000 1.0
C      1  0.5436740000000  0.5641710000000  0.4783440000000 1.0
C      1  0.4668400000000  0.4987900000000  0.4712200000000 1.0
C      1  0.4575290000000  0.5717000000000  0.4708000000000 1.0
C      1  0.4708070000000  0.4206510000000  0.5183640000000 1.0
C      1  0.5748740000000  0.4947310000000  0.4492850000000 1.0
C      1  0.5064260000000  0.4378250000000  0.4520850000000 1.0
C      1  0.4961770000000  0.4159130000000  0.5329910000000 1.0
C      1  0.4837250000000  0.4757780000000  0.5579140000000 1.0
C      1  0.5379640000000  0.4933460000000  0.4960200000000 1.0
C      1  0.4202000000000  0.4515980000000  0.4993180000000 1.0
C      1  0.4385860000000  0.5584100000000  0.5352100000000 1.0
C      1  0.4769860000000  0.5392660000000  0.5457020000000 1.0
C      1  0.5038240000000  0.5307810000000  0.4897220000000 1.0
C      1  0.5051900000000  0.5057550000000  0.4374630000000 1.0
C      1  0.5068570000000  0.5444830000000  0.5163040000000 1.0
C      1  0.5534580000000  0.5365440000000  0.4709320000000 1.0
C      1  0.5018110000000  0.4990750000000  0.5325810000000 1.0
C      1  0.4223160000000  0.5357190000000  0.5258930000000 1.0
C      1  0.4277110000000  0.4872360000000  0.5315000000000 1.0
C      1  0.4572610000000  0.4894960000000  0.5258200000000 1.0
C      1  0.5315880000000  0.4477990000000  0.4423040000000 1.0
C      1  0.4803920000000  0.4321900000000  0.5783610000000 1.0
C      1  0.4721350000000  0.5750220000000  0.4939510000000 1.0
C      1  0.5536240000000  0.5328470000000  0.4409180000000 1.0
C      1  0.4810830000000  0.5200830000000  0.4494690000000 1.0
C      1  0.4655610000000  0.4774120000000  0.4124650000000 1.0
C      1  0.4950020000000  0.4151500000000  0.5611190000000 1.0
C      1  0.5422440000000  0.5697930000000  0.5080230000000 1.0
C      1  0.4207530000000  0.5308100000000  0.4707470000000 1.0
C      1  0.4171020000000  0.4767440000000  0.4863740000000 1.0
C      1  0.4221780000000  0.5234940000000  0.4991040000000 1.0
C      1  0.4687870000000  0.5252620000000  0.3936500000000 1.0
C      1  0.4416900000000  0.5247390000000  0.5678660000000 1.0
C      1  0.5814200000000  0.4679370000000  0.5124380000000 1.0
C      1  0.5162790000000  0.4802670000000  0.5129650000000 1.0
C      1  0.4138290000000  0.4966530000000  0.5066010000000 1.0
C      1  0.4609120000000  0.5718960000000  0.5208900000000 1.0
C      1  0.4736550000000  0.4249420000000  0.4883630000000 1.0
C      1  0.5133130000000  0.5736590000000  0.5143860000000 1.0
C      1  0.4915700000000  0.5469580000000  0.4657260000000 1.0
C      1  0.5275890000000  0.4658540000000  0.4205560000000 1.0
C      1  0.5518110000000  0.4342160000000  0.4883360000000 1.0
C      1  0.4356730000000  0.5130140000000  0.4266770000000 1.0
C      1  0.4558440000000  0.5045620000000  0.4073900000000 1.0
C      1  0.5627250000000  0.4308820000000  0.5385060000000 1.0
C      1  0.4983180000000  0.5847990000000  0.4921060000000 1.0
C      1  0.4588840000000  0.5085590000000  0.5830990000000 1.0
C      1  0.4233310000000  0.5144920000000  0.5469820000000 1.0
C      1  0.4268650000000  0.4543960000000  0.5268290000000 1.0
C      1  0.4551120000000  0.4435600000000  0.5330220000000 1.0
C      1  0.4474720000000  0.4446620000000  0.4481830000000 1.0
C      1  0.5174870000000  0.5253760000000  0.5381070000000 1.0
C      1  0.5837760000000  0.5346650000000  0.4772950000000 1.0
C      1  0.4840210000000  0.5373570000000  0.4150530000000 1.0
C      1  0.5122270000000  0.5266530000000  0.4180230000000 1.0
C      1  0.5513680000000  0.5155550000000  0.5652390000000 1.0
C      1  0.5627990000000  0.5091260000000  0.4282990000000 1.0
C      1  0.5218650000000  0.4093890000000  0.5208230000000 1.0
C      1  0.5725910000000  0.4777990000000  0.5392880000000 1.0
C      1  0.5397600000000  0.4662440000000  0.5781940000000 1.0
C      1  0.5744750000000  0.4663280000000  0.4550860000000 1.0
C      1  0.4535710000000  0.5589840000000  0.4463970000000 1.0
C      1  0.5044810000000  0.5864900000000  0.5401530000000 1.0
C      1  0.5271840000000  0.4623890000000  0.5341350000000 1.0
C      1  0.5526790000000  0.4584890000000  0.5496230000000 1.0
C      1  0.4755860000000  0.5636940000000  0.4276850000000 1.0
C      1  0.5062070000000  0.4537010000000  0.5532020000000 1.0
C      1  0.5650750000000  0.4811430000000  0.4896620000000 1.0
C      1  0.4775870000000  0.4697060000000  0.4718090000000 1.0
C      1  0.5717500000000  0.4388250000000  0.5107330000000 1.0
C      1  0.4567240000000  0.4472960000000  0.4749700000000 1.0
C      1  0.5067800000000  0.5097210000000  0.5834500000000 1.0
C      1  0.5948400000000  0.5085620000000  0.4648570000000 1.0
C      1  0.5049820000000  0.5344720000000  0.5653500000000 1.0
END
